MODEL 1
REMARK VINA RESULT:      -8.9      0.000      0.000
REMARK  4 active torsions:
REMARK  status: ('A' for Active; 'I' for Inactive)
REMARK    1  A    between atoms: C_5  and  N_1 
REMARK       I    between atoms: C_2  and  N_3 
REMARK    2  A    between atoms: C_6  and  C_2 
REMARK    3  A    between atoms: N_3  and  C_4 
REMARK    4  A    between atoms: O_18  and  C_11 
ROOT
ATOM      1  C   UNL d   1      52.565  33.412  53.517  0.00  0.00     0.108 A 
ATOM      2  C   UNL d   1      53.114  34.455  54.221  0.00  0.00     0.128 A 
ATOM      3  C   UNL d   1      53.024  33.668  54.140  0.00  0.00     0.045 A 
ATOM      4  C   UNL d   1      52.219  33.917  53.009  0.00  0.00     0.112 A 
ATOM      5  C   UNL d   1      52.800  34.989  53.755  0.00  0.00     0.026 A 
ATOM      6  C   UNL d   1      52.331  34.740  53.118  0.00  0.00     0.027 A 
ENDROOT
BRANCH   1   7
ATOM      7  N   UNL d   1      52.446  32.540  53.401  0.00  0.00    -0.204 NA
ATOM      8  C   UNL d   1      53.125  32.065  53.299  0.00  0.00     0.302 C 
ATOM      9  O   UNL d   1      53.861  32.436  53.314  0.00  0.00    -0.263 OA
BRANCH   8  10
ATOM     10  C   UNL d   1      53.077  31.247  53.186  0.00  0.00     0.158 A 
ATOM     11  O   UNL d   1      52.671  30.826  52.603  0.00  0.00    -0.300 OA
ATOM     12  C   UNL d   1      52.808  30.014  52.745  0.00  0.00     0.123 A 
ATOM     13  C   UNL d   1      53.303  29.967  53.424  0.00  0.00     0.029 A 
ATOM     14  C   UNL d   1      53.445  30.720  53.663  0.00  0.00     0.032 A 
ENDBRANCH   8  10
ENDBRANCH   1   7
BRANCH   4  15
ATOM     15  O   UNL d   1      51.751  33.668  52.373  0.00  0.00    -0.327 OA
ATOM     16  C   UNL d   1      51.167  34.227  52.034  0.00  0.00     0.181 C 
ENDBRANCH   4  15
BRANCH   2  17
ATOM     17  N   UNL d   1      53.619  34.729  54.906  0.00  0.00    -0.114 N 
ATOM     18  O   UNL d   1      54.482  34.711  54.856  0.00  0.00    -0.532 OA
ATOM     19  O   UNL d   1      53.227  35.003  55.598  0.00  0.00    -0.532 OA
ENDBRANCH   2  17
TORSDOF 4
ENDMDL
MODEL 2
REMARK VINA RESULT:      -8.8      1.081      2.269
REMARK  4 active torsions:
REMARK  status: ('A' for Active; 'I' for Inactive)
REMARK    1  A    between atoms: C_5  and  N_1 
REMARK       I    between atoms: C_2  and  N_3 
REMARK    2  A    between atoms: C_6  and  C_2 
REMARK    3  A    between atoms: N_3  and  C_4 
REMARK    4  A    between atoms: O_18  and  C_11 
ROOT
ATOM      1  C   UNL d   1      52.554  33.200  53.540  0.00  0.00     0.108 A 
ATOM      2  C   UNL d   1      51.760  34.093  52.864  0.00  0.00     0.128 A 
ATOM      3  C   UNL d   1      51.912  33.335  53.058  0.00  0.00     0.045 A 
ATOM      4  C   UNL d   1      53.015  33.790  53.808  0.00  0.00     0.112 A 
ATOM      5  C   UNL d   1      52.176  34.703  53.098  0.00  0.00     0.026 A 
ATOM      6  C   UNL d   1      52.832  34.578  53.588  0.00  0.00     0.027 A 
ENDROOT
BRANCH   1   7
ATOM      7  N   UNL d   1      52.749  32.366  53.773  0.00  0.00    -0.204 NA
ATOM      8  C   UNL d   1      52.833  31.801  53.164  0.00  0.00     0.302 C 
ATOM      9  O   UNL d   1      52.730  32.054  52.387  0.00  0.00    -0.263 OA
BRANCH   8  10
ATOM     10  C   UNL d   1      53.014  31.009  53.320  0.00  0.00     0.158 A 
ATOM     11  O   UNL d   1      53.425  30.686  53.961  0.00  0.00    -0.300 OA
ATOM     12  C   UNL d   1      53.451  29.860  53.845  0.00  0.00     0.123 A 
ATOM     13  C   UNL d   1      53.047  29.703  53.123  0.00  0.00     0.029 A 
ATOM     14  C   UNL d   1      52.799  30.410  52.836  0.00  0.00     0.032 A 
ENDBRANCH   8  10
ENDBRANCH   1   7
BRANCH   4  15
ATOM     15  O   UNL d   1      53.672  33.664  54.298  0.00  0.00    -0.327 OA
ATOM     16  C   UNL d   1      53.942  34.316  54.818  0.00  0.00     0.181 C 
ENDBRANCH   4  15
BRANCH   2  17
ATOM     17  N   UNL d   1      51.052  34.234  52.335  0.00  0.00    -0.114 N 
ATOM     18  O   UNL d   1      50.252  34.252  52.661  0.00  0.00    -0.532 OA
ATOM     19  O   UNL d   1      51.193  34.348  51.515  0.00  0.00    -0.532 OA
ENDBRANCH   2  17
TORSDOF 4
ENDMDL
MODEL 3
REMARK VINA RESULT:      -8.8      1.226      3.093
REMARK  4 active torsions:
REMARK  status: ('A' for Active; 'I' for Inactive)
REMARK    1  A    between atoms: C_5  and  N_1 
REMARK       I    between atoms: C_2  and  N_3 
REMARK    2  A    between atoms: C_6  and  C_2 
REMARK    3  A    between atoms: N_3  and  C_4 
REMARK    4  A    between atoms: O_18  and  C_11 
ROOT
ATOM      1  C   UNL d   1      53.037  32.480  53.247  0.00  0.00     0.108 A 
ATOM      2  C   UNL d   1      54.032  32.533  54.192  0.00  0.00     0.128 A 
ATOM      3  C   UNL d   1      53.501  32.926  53.746  0.00  0.00     0.045 A 
ATOM      4  C   UNL d   1      53.104  31.688  53.200  0.00  0.00     0.112 A 
ATOM      5  C   UNL d   1      54.138  31.765  54.185  0.00  0.00     0.026 A 
ATOM      6  C   UNL d   1      53.671  31.301  53.681  0.00  0.00     0.027 A 
ENDROOT
BRANCH   1   7
ATOM      7  N   UNL d   1      52.436  32.888  52.738  0.00  0.00    -0.204 NA
ATOM      8  C   UNL d   1      51.887  33.393  53.114  0.00  0.00     0.302 C 
ATOM      9  O   UNL d   1      51.939  33.478  53.931  0.00  0.00    -0.263 OA
BRANCH   8  10
ATOM     10  C   UNL d   1      51.304  33.800  52.692  0.00  0.00     0.158 A 
ATOM     11  O   UNL d   1      51.319  34.069  51.910  0.00  0.00    -0.300 OA
ATOM     12  C   UNL d   1      50.588  34.444  51.765  0.00  0.00     0.123 A 
ATOM     13  C   UNL d   1      50.142  34.392  52.476  0.00  0.00     0.029 A 
ATOM     14  C   UNL d   1      50.598  34.002  53.009  0.00  0.00     0.032 A 
ENDBRANCH   8  10
ENDBRANCH   1   7
BRANCH   4  15
ATOM     15  O   UNL d   1      52.638  31.224  52.696  0.00  0.00    -0.327 OA
ATOM     16  C   UNL d   1      52.735  30.353  52.715  0.00  0.00     0.181 C 
ENDBRANCH   4  15
BRANCH   2  17
ATOM     17  N   UNL d   1      54.538  33.030  54.738  0.00  0.00    -0.114 N 
ATOM     18  O   UNL d   1      55.166  33.533  54.423  0.00  0.00    -0.532 OA
ATOM     19  O   UNL d   1      54.381  32.990  55.562  0.00  0.00    -0.532 OA
ENDBRANCH   2  17
TORSDOF 4
ENDMDL
MODEL 4
REMARK VINA RESULT:      -8.1      1.441      3.848
REMARK  4 active torsions:
REMARK  status: ('A' for Active; 'I' for Inactive)
REMARK    1  A    between atoms: C_5  and  N_1 
REMARK       I    between atoms: C_2  and  N_3 
REMARK    2  A    between atoms: C_6  and  C_2 
REMARK    3  A    between atoms: N_3  and  C_4 
REMARK    4  A    between atoms: O_18  and  C_11 
ROOT
ATOM      1  C   UNL d   1      52.957  32.301  53.239  0.00  0.00     0.108 A 
ATOM      2  C   UNL d   1      53.174  30.946  53.280  0.00  0.00     0.128 A 
ATOM      3  C   UNL d   1      52.752  31.555  52.986  0.00  0.00     0.045 A 
ATOM      4  C   UNL d   1      53.550  32.426  53.756  0.00  0.00     0.112 A 
ATOM      5  C   UNL d   1      53.758  31.012  53.784  0.00  0.00     0.026 A 
ATOM      6  C   UNL d   1      53.976  31.766  54.049  0.00  0.00     0.027 A 
ENDROOT
BRANCH   1   7
ATOM      7  N   UNL d   1      52.507  33.000  52.931  0.00  0.00    -0.204 NA
ATOM      8  C   UNL d   1      51.679  33.009  53.041  0.00  0.00     0.302 C 
ATOM      9  O   UNL d   1      51.335  32.368  53.429  0.00  0.00    -0.263 OA
BRANCH   8  10
ATOM     10  C   UNL d   1      51.206  33.633  52.775  0.00  0.00     0.158 A 
ATOM     11  O   UNL d   1      51.303  34.111  52.108  0.00  0.00    -0.300 OA
ATOM     12  C   UNL d   1      50.669  34.654  52.100  0.00  0.00     0.123 A 
ATOM     13  C   UNL d   1      50.197  34.487  52.776  0.00  0.00     0.029 A 
ATOM     14  C   UNL d   1      50.545  33.872  53.157  0.00  0.00     0.032 A 
ENDBRANCH   8  10
ENDBRANCH   1   7
BRANCH   4  15
ATOM     15  O   UNL d   1      53.768  33.180  54.021  0.00  0.00    -0.327 OA
ATOM     16  C   UNL d   1      54.455  33.256  54.559  0.00  0.00     0.181 C 
ENDBRANCH   4  15
BRANCH   2  17
ATOM     17  N   UNL d   1      52.942  30.129  52.997  0.00  0.00    -0.114 N 
ATOM     18  O   UNL d   1      52.660  29.531  53.553  0.00  0.00    -0.532 OA
ATOM     19  O   UNL d   1      53.008  29.966  52.175  0.00  0.00    -0.532 OA
ENDBRANCH   2  17
TORSDOF 4
ENDMDL
MODEL 5
REMARK VINA RESULT:      -7.9      1.635      3.615
REMARK  4 active torsions:
REMARK  status: ('A' for Active; 'I' for Inactive)
REMARK    1  A    between atoms: C_5  and  N_1 
REMARK       I    between atoms: C_2  and  N_3 
REMARK    2  A    between atoms: C_6  and  C_2 
REMARK    3  A    between atoms: N_3  and  C_4 
REMARK    4  A    between atoms: O_18  and  C_11 
ROOT
ATOM      1  C   UNL d   1      53.328  32.051  53.379  0.00  0.00     0.108 A 
ATOM      2  C   UNL d   1      52.928  30.742  53.269  0.00  0.00     0.128 A 
ATOM      3  C   UNL d   1      53.482  31.263  53.509  0.00  0.00     0.045 A 
ATOM      4  C   UNL d   1      52.658  32.300  53.029  0.00  0.00     0.112 A 
ATOM      5  C   UNL d   1      52.261  30.931  52.924  0.00  0.00     0.026 A 
ATOM      6  C   UNL d   1      52.092  31.731  52.786  0.00  0.00     0.027 A 
ENDROOT
BRANCH   1   7
ATOM      7  N   UNL d   1      53.925  32.655  53.635  0.00  0.00    -0.204 NA
ATOM      8  C   UNL d   1      54.128  32.683  54.445  0.00  0.00     0.302 C 
ATOM      9  O   UNL d   1      53.760  32.148  54.952  0.00  0.00    -0.263 OA
BRANCH   8  10
ATOM     10  C   UNL d   1      54.677  33.224  54.742  0.00  0.00     0.158 A 
ATOM     11  O   UNL d   1      55.351  33.535  54.378  0.00  0.00    -0.300 OA
ATOM     12  C   UNL d   1      55.708  34.056  54.924  0.00  0.00     0.123 A 
ATOM     13  C   UNL d   1      55.231  34.046  55.617  0.00  0.00     0.029 A 
ATOM     14  C   UNL d   1      54.624  33.540  55.476  0.00  0.00     0.032 A 
ENDBRANCH   8  10
ENDBRANCH   1   7
BRANCH   4  15
ATOM     15  O   UNL d   1      52.489  33.100  52.891  0.00  0.00    -0.327 OA
ATOM     16  C   UNL d   1      51.715  33.314  52.540  0.00  0.00     0.181 C 
ENDBRANCH   4  15
BRANCH   2  17
ATOM     17  N   UNL d   1      53.106  29.878  53.415  0.00  0.00    -0.114 N 
ATOM     18  O   UNL d   1      53.902  29.563  53.300  0.00  0.00    -0.532 OA
ATOM     19  O   UNL d   1      52.473  29.385  53.667  0.00  0.00    -0.532 OA
ENDBRANCH   2  17
TORSDOF 4
ENDMDL
MODEL 6
REMARK VINA RESULT:      -7.5      1.762      3.217
REMARK  4 active torsions:
REMARK  status: ('A' for Active; 'I' for Inactive)
REMARK    1  A    between atoms: C_5  and  N_1 
REMARK       I    between atoms: C_2  and  N_3 
REMARK    2  A    between atoms: C_6  and  C_2 
REMARK    3  A    between atoms: N_3  and  C_4 
REMARK    4  A    between atoms: O_18  and  C_11 
ROOT
ATOM      1  C   UNL d   1      52.830  34.084  53.682  0.00  0.00     0.108 A 
ATOM      2  C   UNL d   1      53.649  33.116  54.207  0.00  0.00     0.128 A 
ATOM      3  C   UNL d   1      53.100  33.316  53.665  0.00  0.00     0.045 A 
ATOM      4  C   UNL d   1      53.095  34.616  54.212  0.00  0.00     0.112 A 
ATOM      5  C   UNL d   1      53.940  33.593  54.743  0.00  0.00     0.026 A 
ATOM      6  C   UNL d   1      53.672  34.377  54.770  0.00  0.00     0.027 A 
ENDROOT
BRANCH   1   7
ATOM      7  N   UNL d   1      52.218  34.338  53.092  0.00  0.00    -0.204 NA
ATOM      8  C   UNL d   1      51.490  33.930  53.085  0.00  0.00     0.302 C 
ATOM      9  O   UNL d   1      51.387  33.318  53.628  0.00  0.00    -0.263 OA
BRANCH   8  10
ATOM     10  C   UNL d   1      50.883  34.121  52.558  0.00  0.00     0.158 A 
ATOM     11  O   UNL d   1      50.905  34.167  51.733  0.00  0.00    -0.300 OA
ATOM     12  C   UNL d   1      50.140  34.383  51.478  0.00  0.00     0.123 A 
ATOM     13  C   UNL d   1      49.667  34.464  52.169  0.00  0.00     0.029 A 
ATOM     14  C   UNL d   1      50.140  34.301  52.797  0.00  0.00     0.032 A 
ENDBRANCH   8  10
ENDBRANCH   1   7
BRANCH   4  15
ATOM     15  O   UNL d   1      52.827  35.400  54.239  0.00  0.00    -0.327 OA
ATOM     16  C   UNL d   1      53.223  35.963  54.781  0.00  0.00     0.181 C 
ENDBRANCH   4  15
BRANCH   2  17
ATOM     17  N   UNL d   1      53.942  32.270  54.182  0.00  0.00    -0.114 N 
ATOM     18  O   UNL d   1      54.411  31.983  53.516  0.00  0.00    -0.532 OA
ATOM     19  O   UNL d   1      53.745  31.768  54.827  0.00  0.00    -0.532 OA
ENDBRANCH   2  17
TORSDOF 4
ENDMDL
