MODEL 1
REMARK VINA RESULT:      -8.0      0.000      0.000
REMARK  5 active torsions:
REMARK  status: ('A' for Active; 'I' for Inactive)
REMARK    1  A    between atoms: N_10  and  C_2 
REMARK    2  A    between atoms: C_14  and  C_3 
REMARK    3  A    between atoms: C_5  and  S_13 
REMARK       I    between atoms: C_12  and  N_10 
REMARK    4  A    between atoms: C_16  and  C_12 
REMARK    5  A    between atoms: S_13  and  C_16 
ROOT
ATOM      1  N   UNL d   1      52.430  34.011  53.238  0.00  0.00    -0.051 NA
ATOM      2  C   UNL d   1      51.865  33.721  52.716  0.00  0.00     0.760 A 
ATOM      3  C   UNL d   1      52.924  33.390  53.439  0.00  0.00     0.147 A 
ATOM      4  N   UNL d   1      52.008  32.930  52.597  0.00  0.00    -0.019 NA
ATOM      5  S   UNL d   1      52.665  32.724  53.045  0.00  0.00     0.052 SA
ENDROOT
BRANCH   2   6
ATOM      6  N   UNL d   1      51.245  34.163  52.366  0.00  0.00    -0.018 NA
ATOM      7  C   UNL d   1      50.498  34.165  52.700  0.00  0.00     0.302 C 
ATOM      8  O   UNL d   1      50.357  33.730  53.382  0.00  0.00    -0.264 OA
BRANCH   7   9
ATOM      9  C   UNL d   1      49.887  34.599  52.355  0.00  0.00     0.100 C 
BRANCH   9  10
ATOM     10  S   UNL d   1      49.302  34.936  52.834  0.00  0.00    -0.054 SA
BRANCH  10  11
ATOM     11  C   UNL d   1      48.642  35.295  52.494  0.00  0.00     0.164 A 
ATOM     12  S   UNL d   1      48.134  35.818  52.866  0.00  0.00    -0.039 SA
ATOM     13  C   UNL d   1      47.551  36.040  52.319  0.00  0.00     0.134 A 
ATOM     14  C   UNL d   1      46.923  36.562  52.460  0.00  0.00     0.030 C 
ATOM     15  N   UNL d   1      47.706  35.648  51.608  0.00  0.00    -0.140 NA
ATOM     16  N   UNL d   1      48.381  35.186  51.714  0.00  0.00    -0.134 NA
ENDBRANCH  10  11
ENDBRANCH   9  10
ENDBRANCH   7   9
ENDBRANCH   2   6
BRANCH   3  17
ATOM     17  C   UNL d   1      53.577  33.395  53.946  0.00  0.00     0.026 A 
ATOM     18  C   UNL d   1      53.516  33.741  54.691  0.00  0.00     0.002 A 
ATOM     19  C   UNL d   1      54.172  33.744  55.198  0.00  0.00     0.000 A 
ATOM     20  C   UNL d   1      54.881  33.407  54.965  0.00  0.00     0.000 A 
ATOM     21  C   UNL d   1      54.941  33.062  54.221  0.00  0.00     0.000 A 
ATOM     22  C   UNL d   1      54.285  33.054  53.705  0.00  0.00     0.002 A 
ENDBRANCH   3  17
TORSDOF 5
ENDMDL
MODEL 2
REMARK VINA RESULT:      -7.1      1.207      5.662
REMARK  5 active torsions:
REMARK  status: ('A' for Active; 'I' for Inactive)
REMARK    1  A    between atoms: N_10  and  C_2 
REMARK    2  A    between atoms: C_14  and  C_3 
REMARK    3  A    between atoms: C_5  and  S_13 
REMARK       I    between atoms: C_12  and  N_10 
REMARK    4  A    between atoms: C_16  and  C_12 
REMARK    5  A    between atoms: S_13  and  C_16 
ROOT
ATOM      1  N   UNL d   1      49.514  34.810  53.090  0.00  0.00    -0.051 NA
ATOM      2  C   UNL d   1      50.030  34.289  52.719  0.00  0.00     0.760 A 
ATOM      3  C   UNL d   1      48.988  35.084  52.526  0.00  0.00     0.147 A 
ATOM      4  N   UNL d   1      49.825  34.242  51.933  0.00  0.00    -0.019 NA
ATOM      5  S   UNL d   1      49.179  34.736  51.813  0.00  0.00     0.052 SA
ENDROOT
BRANCH   2   6
ATOM      6  N   UNL d   1      50.661  33.875  53.084  0.00  0.00    -0.018 NA
ATOM      7  C   UNL d   1      51.437  34.072  52.915  0.00  0.00     0.302 C 
ATOM      8  O   UNL d   1      51.596  34.678  52.386  0.00  0.00    -0.264 OA
BRANCH   7   9
ATOM      9  C   UNL d   1      52.058  33.664  53.274  0.00  0.00     0.100 C 
BRANCH   9  10
ATOM     10  S   UNL d   1      52.759  34.065  53.458  0.00  0.00    -0.054 SA
BRANCH  10  11
ATOM     11  C   UNL d   1      53.370  33.673  53.851  0.00  0.00     0.164 A 
ATOM     12  S   UNL d   1      53.732  33.921  54.542  0.00  0.00    -0.039 SA
ATOM     13  C   UNL d   1      54.314  33.362  54.738  0.00  0.00     0.134 A 
ATOM     14  C   UNL d   1      54.817  33.391  55.396  0.00  0.00     0.030 C 
ATOM     15  N   UNL d   1      54.305  32.771  54.160  0.00  0.00    -0.140 NA
ATOM     16  N   UNL d   1      53.721  32.962  53.610  0.00  0.00    -0.134 NA
ENDBRANCH  10  11
ENDBRANCH   9  10
ENDBRANCH   7   9
ENDBRANCH   2   6
BRANCH   3  17
ATOM     17  C   UNL d   1      48.364  35.618  52.619  0.00  0.00     0.026 A 
ATOM     18  C   UNL d   1      48.273  36.023  53.331  0.00  0.00     0.002 A 
ATOM     19  C   UNL d   1      47.647  36.557  53.423  0.00  0.00     0.000 A 
ATOM     20  C   UNL d   1      47.116  36.688  52.814  0.00  0.00     0.000 A 
ATOM     21  C   UNL d   1      47.208  36.283  52.103  0.00  0.00     0.000 A 
ATOM     22  C   UNL d   1      47.836  35.744  52.003  0.00  0.00     0.002 A 
ENDBRANCH   3  17
TORSDOF 5
ENDMDL
MODEL 3
REMARK VINA RESULT:      -6.9      2.279      5.718
REMARK  5 active torsions:
REMARK  status: ('A' for Active; 'I' for Inactive)
REMARK    1  A    between atoms: N_10  and  C_2 
REMARK    2  A    between atoms: C_14  and  C_3 
REMARK    3  A    between atoms: C_5  and  S_13 
REMARK       I    between atoms: C_12  and  N_10 
REMARK    4  A    between atoms: C_16  and  C_12 
REMARK    5  A    between atoms: S_13  and  C_16 
ROOT
ATOM      1  N   UNL d   1      50.904  33.445  53.091  0.00  0.00    -0.051 NA
ATOM      2  C   UNL d   1      51.713  33.387  53.226  0.00  0.00     0.760 A 
ATOM      3  C   UNL d   1      50.760  34.175  52.751  0.00  0.00     0.147 A 
ATOM      4  N   UNL d   1      52.064  34.075  52.972  0.00  0.00    -0.019 NA
ATOM      5  S   UNL d   1      51.474  34.564  52.677  0.00  0.00     0.052 SA
ENDROOT
BRANCH   2   6
ATOM      6  N   UNL d   1      52.111  32.733  53.567  0.00  0.00    -0.018 NA
ATOM      7  C   UNL d   1      52.546  32.223  53.097  0.00  0.00     0.302 C 
ATOM      8  O   UNL d   1      52.592  32.355  52.289  0.00  0.00    -0.264 OA
BRANCH   7   9
ATOM      9  C   UNL d   1      52.939  31.579  53.432  0.00  0.00     0.100 C 
BRANCH   9  10
ATOM     10  S   UNL d   1      53.000  30.871  53.009  0.00  0.00    -0.054 SA
BRANCH  10  11
ATOM     11  C   UNL d   1      52.982  30.147  53.405  0.00  0.00     0.164 A 
ATOM     12  S   UNL d   1      53.500  29.909  53.992  0.00  0.00    -0.039 SA
ATOM     13  C   UNL d   1      53.278  29.146  54.232  0.00  0.00     0.134 A 
ATOM     14  C   UNL d   1      53.651  28.691  54.816  0.00  0.00     0.030 C 
ATOM     15  N   UNL d   1      52.620  28.919  53.787  0.00  0.00    -0.140 NA
ATOM     16  N   UNL d   1      52.434  29.538  53.273  0.00  0.00    -0.134 NA
ENDBRANCH  10  11
ENDBRANCH   9  10
ENDBRANCH   7   9
ENDBRANCH   2   6
BRANCH   3  17
ATOM     17  C   UNL d   1      50.038  34.498  52.512  0.00  0.00     0.026 A 
ATOM     18  C   UNL d   1      49.766  34.372  51.744  0.00  0.00     0.002 A 
ATOM     19  C   UNL d   1      49.042  34.697  51.505  0.00  0.00     0.000 A 
ATOM     20  C   UNL d   1      48.593  35.142  52.025  0.00  0.00     0.000 A 
ATOM     21  C   UNL d   1      48.865  35.268  52.791  0.00  0.00     0.000 A 
ATOM     22  C   UNL d   1      49.593  34.944  53.039  0.00  0.00     0.002 A 
ENDBRANCH   3  17
TORSDOF 5
ENDMDL
MODEL 4
REMARK VINA RESULT:      -5.2     10.578     11.223
REMARK  5 active torsions:
REMARK  status: ('A' for Active; 'I' for Inactive)
REMARK    1  A    between atoms: N_10  and  C_2 
REMARK    2  A    between atoms: C_14  and  C_3 
REMARK    3  A    between atoms: C_5  and  S_13 
REMARK       I    between atoms: C_12  and  N_10 
REMARK    4  A    between atoms: C_16  and  C_12 
REMARK    5  A    between atoms: S_13  and  C_16 
ROOT
ATOM      1  N   UNL d   1      44.478  25.541  55.536  0.00  0.00    -0.051 NA
ATOM      2  C   UNL d   1      44.434  25.835  56.303  0.00  0.00     0.760 A 
ATOM      3  C   UNL d   1      44.596  24.733  55.586  0.00  0.00     0.147 A 
ATOM      4  N   UNL d   1      44.525  25.215  56.820  0.00  0.00    -0.019 NA
ATOM      5  S   UNL d   1      44.625  24.530  56.376  0.00  0.00     0.052 SA
ENDROOT
BRANCH   2   6
ATOM      6  N   UNL d   1      44.317  26.637  56.519  0.00  0.00    -0.018 NA
ATOM      7  C   UNL d   1      44.956  27.109  56.716  0.00  0.00     0.302 C 
ATOM      8  O   UNL d   1      45.714  26.794  56.702  0.00  0.00    -0.264 OA
BRANCH   7   9
ATOM      9  C   UNL d   1      44.841  27.898  56.928  0.00  0.00     0.100 C 
BRANCH   9  10
ATOM     10  S   UNL d   1      45.182  28.189  57.625  0.00  0.00    -0.054 SA
BRANCH  10  11
ATOM     11  C   UNL d   1      45.086  28.981  57.834  0.00  0.00     0.164 A 
ATOM     12  S   UNL d   1      45.149  29.288  58.590  0.00  0.00    -0.039 SA
ATOM     13  C   UNL d   1      45.011  30.106  58.545  0.00  0.00     0.134 A 
ATOM     14  C   UNL d   1      45.021  30.638  59.181  0.00  0.00     0.030 C 
ATOM     15  N   UNL d   1      44.862  30.296  57.755  0.00  0.00    -0.140 NA
ATOM     16  N   UNL d   1      44.908  29.601  57.312  0.00  0.00    -0.134 NA
ENDBRANCH  10  11
ENDBRANCH   9  10
ENDBRANCH   7   9
ENDBRANCH   2   6
BRANCH   3  17
ATOM     17  C   UNL d   1      44.676  24.186  54.972  0.00  0.00     0.026 A 
ATOM     18  C   UNL d   1      45.044  23.463  55.112  0.00  0.00     0.002 A 
ATOM     19  C   UNL d   1      45.124  22.915  54.496  0.00  0.00     0.000 A 
ATOM     20  C   UNL d   1      44.839  23.085  53.747  0.00  0.00     0.000 A 
ATOM     21  C   UNL d   1      44.471  23.808  53.607  0.00  0.00     0.000 A 
ATOM     22  C   UNL d   1      44.388  24.364  54.223  0.00  0.00     0.002 A 
ENDBRANCH   3  17
TORSDOF 5
ENDMDL
