MODEL 1
REMARK VINA RESULT:      80.7      0.000      0.000
REMARK  4 active torsions:
REMARK  status: ('A' for Active; 'I' for Inactive)
REMARK    1  A    between atoms: N_3  and  C_1 
REMARK       I    between atoms: C_5  and  N_3 
REMARK    2  A    between atoms: C_15  and  C_5 
REMARK    3  A    between atoms: C_8  and  C_9 
REMARK    4  A    between atoms: O_16  and  C_8 
ROOT
ATOM      1  C   UNL d   1      60.743  47.933  50.313  0.00  0.00     0.197 A 
ATOM      2  N   UNL d   1      60.899  48.603  50.785  0.00  0.00    -0.221 NA
ATOM      3  S   UNL d   1      59.928  47.823  50.295  0.00  0.00    -0.047 SA
ATOM      4  C   UNL d   1      59.569  48.413  50.748  0.00  0.00     0.050 A 
ATOM      5  C   UNL d   1      60.175  48.900  51.054  0.00  0.00     0.090 A 
ATOM      6  C   UNL d   1      58.597  49.215  51.401  0.00  0.00     0.064 A 
ATOM      7  C   UNL d   1      58.780  48.576  50.925  0.00  0.00     0.013 A 
ATOM      8  C   UNL d   1      59.979  49.539  51.531  0.00  0.00     0.020 A 
ATOM      9  C   UNL d   1      59.202  49.701  51.707  0.00  0.00     0.007 A 
ENDROOT
BRANCH   1  10
ATOM     10  N   UNL d   1      61.310  47.466  49.933  0.00  0.00    -0.183 NA
ATOM     11  C   UNL d   1      61.348  46.657  50.086  0.00  0.00     0.281 C 
ATOM     12  O   UNL d   1      60.820  46.313  50.619  0.00  0.00    -0.265 OA
BRANCH  11  13
ATOM     13  C   UNL d   1      61.905  46.197  49.712  0.00  0.00     0.058 A 
ATOM     14  C   UNL d   1      61.871  45.368  49.779  0.00  0.00     0.005 A 
ATOM     15  C   UNL d   1      62.437  44.902  49.399  0.00  0.00     0.000 A 
ATOM     16  C   UNL d   1      63.038  45.264  48.953  0.00  0.00     0.000 A 
ATOM     17  C   UNL d   1      63.064  46.075  48.893  0.00  0.00     0.000 A 
ATOM     18  C   UNL d   1      62.498  46.541  49.273  0.00  0.00     0.005 A 
ENDBRANCH  11  13
ENDBRANCH   1  10
BRANCH   6  19
ATOM     19  C   UNL d   1      57.811  49.390  51.586  0.00  0.00     0.296 C 
ATOM     20  O   UNL d   1      57.550  49.363  52.360  0.00  0.00    -0.259 OA
BRANCH  19  21
ATOM     21  O   UNL d   1      57.289  49.594  50.973  0.00  0.00    -0.296 OA
ATOM     22  C   UNL d   1      56.584  49.182  50.888  0.00  0.00     0.185 C 
ENDBRANCH  19  21
ENDBRANCH   6  19
TORSDOF 4
ENDMDL
MODEL 2
REMARK VINA RESULT:      80.7      0.820      1.079
REMARK  4 active torsions:
REMARK  status: ('A' for Active; 'I' for Inactive)
REMARK    1  A    between atoms: N_3  and  C_1 
REMARK       I    between atoms: C_5  and  N_3 
REMARK    2  A    between atoms: C_15  and  C_5 
REMARK    3  A    between atoms: C_8  and  C_9 
REMARK    4  A    between atoms: O_16  and  C_8 
ROOT
ATOM      1  C   UNL d   1      61.314  47.206  50.459  0.00  0.00     0.197 A 
ATOM      2  N   UNL d   1      61.604  47.986  50.519  0.00  0.00    -0.221 NA
ATOM      3  S   UNL d   1      60.508  47.224  50.626  0.00  0.00    -0.047 SA
ATOM      4  C   UNL d   1      60.288  48.004  50.791  0.00  0.00     0.050 A 
ATOM      5  C   UNL d   1      60.972  48.479  50.724  0.00  0.00     0.090 A 
ATOM      6  C   UNL d   1      59.523  49.152  51.122  0.00  0.00     0.064 A 
ATOM      7  C   UNL d   1      59.565  48.347  50.991  0.00  0.00     0.013 A 
ATOM      8  C   UNL d   1      60.918  49.287  50.859  0.00  0.00     0.020 A 
ATOM      9  C   UNL d   1      60.207  49.627  51.056  0.00  0.00     0.007 A 
ENDROOT
BRANCH   1  10
ATOM     10  N   UNL d   1      61.760  46.537  50.266  0.00  0.00    -0.183 NA
ATOM     11  C   UNL d   1      61.391  45.876  49.938  0.00  0.00     0.281 C 
ATOM     12  O   UNL d   1      60.578  45.884  49.803  0.00  0.00    -0.265 OA
BRANCH  11  13
ATOM     13  C   UNL d   1      61.829  45.218  49.748  0.00  0.00     0.058 A 
ATOM     14  C   UNL d   1      61.756  44.526  50.204  0.00  0.00     0.005 A 
ATOM     15  C   UNL d   1      62.202  43.858  50.011  0.00  0.00     0.000 A 
ATOM     16  C   UNL d   1      62.720  43.881  49.361  0.00  0.00     0.000 A 
ATOM     17  C   UNL d   1      62.785  44.562  48.921  0.00  0.00     0.000 A 
ATOM     18  C   UNL d   1      62.340  45.230  49.114  0.00  0.00     0.005 A 
ENDBRANCH  11  13
ENDBRANCH   1  10
BRANCH   6  19
ATOM     19  C   UNL d   1      58.806  49.509  51.323  0.00  0.00     0.296 C 
ATOM     20  O   UNL d   1      58.640  49.702  52.100  0.00  0.00    -0.259 OA
BRANCH  19  21
ATOM     21  O   UNL d   1      58.255  49.670  50.723  0.00  0.00    -0.296 OA
ATOM     22  C   UNL d   1      57.579  49.209  50.662  0.00  0.00     0.185 C 
ENDBRANCH  19  21
ENDBRANCH   6  19
TORSDOF 4
ENDMDL
MODEL 3
REMARK VINA RESULT:      81.1      2.178      5.434
REMARK  4 active torsions:
REMARK  status: ('A' for Active; 'I' for Inactive)
REMARK    1  A    between atoms: N_3  and  C_1 
REMARK       I    between atoms: C_5  and  N_3 
REMARK    2  A    between atoms: C_15  and  C_5 
REMARK    3  A    between atoms: C_8  and  C_9 
REMARK    4  A    between atoms: O_16  and  C_8 
ROOT
ATOM      1  C   UNL d   1      61.179  46.200  50.338  0.00  0.00     0.197 A 
ATOM      2  N   UNL d   1      61.429  46.047  49.557  0.00  0.00    -0.221 NA
ATOM      3  S   UNL d   1      61.346  45.533  50.791  0.00  0.00    -0.047 SA
ATOM      4  C   UNL d   1      61.697  44.963  50.305  0.00  0.00     0.050 A 
ATOM      5  C   UNL d   1      61.748  45.284  49.536  0.00  0.00     0.090 A 
ATOM      6  C   UNL d   1      62.301  43.764  49.846  0.00  0.00     0.064 A 
ATOM      7  C   UNL d   1      61.975  44.201  50.455  0.00  0.00     0.013 A 
ATOM      8  C   UNL d   1      62.077  44.836  48.932  0.00  0.00     0.020 A 
ATOM      9  C   UNL d   1      62.352  44.085  49.077  0.00  0.00     0.007 A 
ENDROOT
BRANCH   1  10
ATOM     10  N   UNL d   1      60.827  46.899  50.606  0.00  0.00    -0.183 NA
ATOM     11  C   UNL d   1      61.206  47.623  50.490  0.00  0.00     0.281 C 
ATOM     12  O   UNL d   1      61.936  47.649  50.106  0.00  0.00    -0.265 OA
BRANCH  11  13
ATOM     13  C   UNL d   1      60.860  48.310  50.753  0.00  0.00     0.058 A 
ATOM     14  C   UNL d   1      60.699  48.408  51.563  0.00  0.00     0.005 A 
ATOM     15  C   UNL d   1      60.347  49.106  51.831  0.00  0.00     0.000 A 
ATOM     16  C   UNL d   1      60.156  49.707  51.288  0.00  0.00     0.000 A 
ATOM     17  C   UNL d   1      60.317  49.602  50.497  0.00  0.00     0.000 A 
ATOM     18  C   UNL d   1      60.669  48.904  50.230  0.00  0.00     0.005 A 
ENDBRANCH  11  13
ENDBRANCH   1  10
BRANCH   6  19
ATOM     19  C   UNL d   1      62.583  43.001  49.981  0.00  0.00     0.296 C 
ATOM     20  O   UNL d   1      62.576  42.442  49.384  0.00  0.00    -0.259 OA
BRANCH  19  21
ATOM     21  O   UNL d   1      62.876  42.807  50.734  0.00  0.00    -0.296 OA
ATOM     22  C   UNL d   1      63.120  42.039  50.887  0.00  0.00     0.185 C 
ENDBRANCH  19  21
ENDBRANCH   6  19
TORSDOF 4
ENDMDL
