MODEL 1
REMARK VINA RESULT:      -5.0      0.000      0.000
REMARK  6 active torsions:
REMARK  status: ('A' for Active; 'I' for Inactive)
REMARK    1  A    between atoms: N_2  and  S_1 
REMARK    2  A    between atoms: C_3  and  S_1 
REMARK    3  A    between atoms: C_9  and  N_2 
REMARK    4  A    between atoms: C_13  and  C_9 
REMARK    5  A    between atoms: O_14  and  C_10 
REMARK    6  A    between atoms: C_17  and  O_14 
ROOT
ATOM      1  S   UNL d   1     -41.446-122.630 -51.862  0.00  0.00     0.285 S 
ATOM      2  O   UNL d   1     -41.403-123.426 -52.073  0.00  0.00    -0.198 OA
ATOM      3  O   UNL d   1     -41.488-121.834 -51.651  0.00  0.00    -0.198 OA
ENDROOT
BRANCH   1   4
ATOM      4  N   UNL d   1     -41.351-122.415 -52.653  0.00  0.00    -0.157 NA
BRANCH   4   5
ATOM      5  C   UNL d   1     -41.818-122.766 -53.237  0.00  0.00     0.112 C 
BRANCH   5   6
ATOM      6  C   UNL d   1     -41.769-122.504 -54.018  0.00  0.00     0.023 A 
ATOM      7  C   UNL d   1     -42.302-121.933 -54.302  0.00  0.00     0.022 A 
ATOM      8  C   UNL d   1     -42.253-121.671 -55.083  0.00  0.00     0.099 A 
ATOM      9  N   UNL d   1     -41.678-121.973 -55.581  0.00  0.00    -0.242 NA
ATOM     10  C   UNL d   1     -41.147-122.541 -55.303  0.00  0.00     0.099 A 
ATOM     11  C   UNL d   1     -41.194-122.807 -54.516  0.00  0.00     0.022 A 
ENDBRANCH   5   6
ENDBRANCH   4   5
ENDBRANCH   1   4
BRANCH   1  12
ATOM     12  C   UNL d   1     -41.541-122.845 -51.071  0.00  0.00     0.105 A 
ATOM     13  C   UNL d   1     -42.053-122.416 -50.587  0.00  0.00     0.015 A 
ATOM     14  C   UNL d   1     -42.148-122.631 -49.796  0.00  0.00     0.025 A 
ATOM     15  C   UNL d   1     -41.730-123.275 -49.489  0.00  0.00     0.100 A 
ATOM     16  C   UNL d   1     -41.218-123.704 -49.973  0.00  0.00     0.025 A 
ATOM     17  C   UNL d   1     -41.123-123.489 -50.763  0.00  0.00     0.015 A 
BRANCH  15  18
ATOM     18  O   UNL d   1     -41.825-123.490 -48.698  0.00  0.00    -0.305 OA
BRANCH  18  19
ATOM     19  C   UNL d   1     -41.219-123.347 -48.158  0.00  0.00     0.123 C 
ATOM     20  C   UNL d   1     -41.346-123.474 -47.349  0.00  0.00     0.029 C 
ENDBRANCH  18  19
ENDBRANCH  15  18
ENDBRANCH   1  12
TORSDOF 6
ENDMDL
MODEL 2
REMARK VINA RESULT:      -5.0      1.593      4.959
REMARK  6 active torsions:
REMARK  status: ('A' for Active; 'I' for Inactive)
REMARK    1  A    between atoms: N_2  and  S_1 
REMARK    2  A    between atoms: C_3  and  S_1 
REMARK    3  A    between atoms: C_9  and  N_2 
REMARK    4  A    between atoms: C_13  and  C_9 
REMARK    5  A    between atoms: O_14  and  C_10 
REMARK    6  A    between atoms: C_17  and  O_14 
ROOT
ATOM      1  S   UNL d   1     -41.196-122.981 -51.316  0.00  0.00     0.285 S 
ATOM      2  O   UNL d   1     -41.134-123.793 -51.437  0.00  0.00    -0.198 OA
ATOM      3  O   UNL d   1     -41.258-122.167 -51.195  0.00  0.00    -0.198 OA
ENDROOT
BRANCH   1   4
ATOM      4  N   UNL d   1     -41.135-123.097 -50.502  0.00  0.00    -0.157 NA
BRANCH   4   5
ATOM      5  C   UNL d   1     -41.745-123.473 -50.089  0.00  0.00     0.112 C 
BRANCH   5   6
ATOM      6  C   UNL d   1     -41.770-123.438 -49.265  0.00  0.00     0.023 A 
ATOM      7  C   UNL d   1     -41.127-123.715 -48.816  0.00  0.00     0.022 A 
ATOM      8  C   UNL d   1     -41.152-123.680 -47.992  0.00  0.00     0.099 A 
ATOM      9  N   UNL d   1     -41.809-123.372 -47.614  0.00  0.00    -0.242 NA
ATOM     10  C   UNL d   1     -42.449-123.096 -48.057  0.00  0.00     0.099 A 
ATOM     11  C   UNL d   1     -42.427-123.130 -48.888  0.00  0.00     0.022 A 
ENDBRANCH   5   6
ENDBRANCH   4   5
ENDBRANCH   1   4
BRANCH   1  12
ATOM     12  C   UNL d   1     -41.258-122.864 -52.131  0.00  0.00     0.105 A 
ATOM     13  C   UNL d   1     -41.453-122.119 -52.426  0.00  0.00     0.015 A 
ATOM     14  C   UNL d   1     -41.514-122.002 -53.240  0.00  0.00     0.025 A 
ATOM     15  C   UNL d   1     -41.380-122.631 -53.760  0.00  0.00     0.100 A 
ATOM     16  C   UNL d   1     -41.185-123.376 -53.465  0.00  0.00     0.025 A 
ATOM     17  C   UNL d   1     -41.124-123.493 -52.650  0.00  0.00     0.015 A 
BRANCH  15  18
ATOM     18  O   UNL d   1     -41.441-122.514 -54.574  0.00  0.00    -0.305 OA
BRANCH  18  19
ATOM     19  C   UNL d   1     -42.000-121.986 -54.873  0.00  0.00     0.123 C 
ATOM     20  C   UNL d   1     -42.136-121.943 -55.689  0.00  0.00     0.029 C 
ENDBRANCH  18  19
ENDBRANCH  15  18
ENDBRANCH   1  12
TORSDOF 6
ENDMDL
