MODEL 1
REMARK VINA RESULT:       6.9      0.000      0.000
REMARK  9 active torsions:
REMARK  status: ('A' for Active; 'I' for Inactive)
REMARK    1  A    between atoms: N_2  and  C_1 
REMARK       I    between atoms: C_4  and  N_2 
REMARK    2  A    between atoms: C_7  and  C_4 
REMARK    3  A    between atoms: C_8  and  C_5 
REMARK    4  A    between atoms: C_10  and  C_8 
REMARK       I    between atoms: N_12  and  C_10 
REMARK    5  A    between atoms: C_11  and  C_19 
REMARK    6  A    between atoms: C_19  and  N_12 
REMARK    7  A    between atoms: O_23  and  C_17 
REMARK    8  A    between atoms: O_24  and  C_18 
REMARK    9  A    between atoms: O_22  and  C_20 
ROOT
ATOM      1  C   UNL d   1     -41.496-122.243 -52.843  0.00  0.00     0.197 A 
ATOM      2  N   UNL d   1     -41.284-122.927 -52.416  0.00  0.00    -0.220 NA
ATOM      3  C   UNL d   1     -41.298-122.745 -51.617  0.00  0.00     0.095 A 
ATOM      4  S   UNL d   1     -41.638-121.648 -52.291  0.00  0.00    -0.046 SA
ATOM      5  C   UNL d   1     -41.516-121.954 -51.537  0.00  0.00     0.058 A 
ENDROOT
BRANCH   1   6
ATOM      6  N   UNL d   1     -41.550-122.188 -53.659  0.00  0.00    -0.183 NA
ATOM      7  C   UNL d   1     -42.213-121.869 -54.016  0.00  0.00     0.281 C 
ATOM      8  O   UNL d   1     -42.847-121.595 -53.556  0.00  0.00    -0.265 OA
BRANCH   7   9
ATOM      9  C   UNL d   1     -42.270-121.812 -54.839  0.00  0.00     0.062 A 
ATOM     10  C   UNL d   1     -41.965-121.171 -55.234  0.00  0.00     0.029 A 
ATOM     11  C   UNL d   1     -42.025-121.121 -56.052  0.00  0.00     0.096 A 
ATOM     12  C   UNL d   1     -42.399-121.726 -56.475  0.00  0.00     0.048 A 
ATOM     13  C   UNL d   1     -42.704-122.368 -56.068  0.00  0.00     0.096 A 
ATOM     14  C   UNL d   1     -42.648-122.425 -55.254  0.00  0.00     0.029 A 
BRANCH  11  15
ATOM     15  O   UNL d   1     -41.716-120.474 -56.452  0.00  0.00    -0.328 OA
ATOM     16  C   UNL d   1     -41.188-120.588 -57.084  0.00  0.00     0.181 C 
ENDBRANCH  11  15
BRANCH  13  17
ATOM     17  O   UNL d   1     -43.082-122.982 -56.482  0.00  0.00    -0.328 OA
ATOM     18  C   UNL d   1     -43.726-123.371 -56.145  0.00  0.00     0.181 C 
ENDBRANCH  13  17
ENDBRANCH   7   9
ENDBRANCH   1   6
BRANCH   3  19
ATOM     19  C   UNL d   1     -41.123-123.262 -50.997  0.00  0.00     0.082 C 
BRANCH  19  20
ATOM     20  C   UNL d   1     -41.709-123.462 -50.447  0.00  0.00     0.281 C 
ATOM     21  N   UNL d   1     -41.588-123.302 -49.650  0.00  0.00    -0.206 NA
ATOM     22  O   UNL d   1     -42.403-123.817 -50.706  0.00  0.00    -0.265 OA
BRANCH  21  23
ATOM     23  C   UNL d   1     -42.167-123.500 -49.106  0.00  0.00     0.104 C 
BRANCH  23  24
ATOM     24  C   UNL d   1     -42.001-123.474 -48.297  0.00  0.00     0.042 A 
ATOM     25  C   UNL d   1     -42.529-123.099 -47.781  0.00  0.00     0.096 A 
ATOM     26  C   UNL d   1     -42.377-123.067 -46.977  0.00  0.00     0.024 A 
ATOM     27  C   UNL d   1     -41.691-123.410 -46.676  0.00  0.00     0.002 A 
ATOM     28  C   UNL d   1     -41.161-123.784 -47.183  0.00  0.00     0.000 A 
ATOM     29  C   UNL d   1     -41.314-123.817 -47.993  0.00  0.00     0.004 A 
BRANCH  25  30
ATOM     30  O   UNL d   1     -43.226-122.750 -48.077  0.00  0.00    -0.328 OA
ATOM     31  C   UNL d   1     -43.218-121.977 -48.370  0.00  0.00     0.181 C 
ENDBRANCH  25  30
ENDBRANCH  23  24
ENDBRANCH  21  23
ENDBRANCH  19  20
ENDBRANCH   3  19
TORSDOF 9
ENDMDL
