MODEL 1
REMARK VINA RESULT:      -4.6      0.000      0.000
REMARK  4 active torsions:
REMARK  status: ('A' for Active; 'I' for Inactive)
REMARK    1  A    between atoms: C_5  and  C_3 
REMARK    2  A    between atoms: C_8  and  C_5 
REMARK    3  A    between atoms: C_7  and  C_9 
REMARK    4  A    between atoms: C_9  and  C_8 
ROOT
ATOM      1  C   UNL d   1      56.986  -0.252  31.680  0.00  0.00     0.042 C 
ENDROOT
BRANCH   1   2
ATOM      2  C   UNL d   1      57.407  -0.652  31.099  0.00  0.00     0.006 C 
BRANCH   2   3
ATOM      3  C   UNL d   1      57.764  -0.223  30.480  0.00  0.00     0.039 A 
ATOM      4  C   UNL d   1      57.738   0.585  30.272  0.00  0.00     0.122 A 
ATOM      5  N   UNL d   1      58.200   0.681  29.609  0.00  0.00    -0.164 NA
ATOM      6  N   UNL d   1      58.519  -0.043  29.390  0.00  0.00    -0.227 N 
ATOM      7  C   UNL d   1      58.244  -0.609  29.937  0.00  0.00     0.085 A 
ATOM      8  C   UNL d   1      59.018  -0.246  28.765  0.00  0.00     0.121 C 
ATOM      9  C   UNL d   1      58.371  -1.422  30.008  0.00  0.00     0.021 C 
ENDBRANCH   2   3
ENDBRANCH   1   2
BRANCH   1  10
ATOM     10  C   UNL d   1      56.634  -0.682  32.296  0.00  0.00     0.199 C 
ATOM     11  O   UNL d   1      56.584  -1.514  32.252  0.00  0.00    -0.286 OA
BRANCH  10  12
ATOM     12  C   UNL d   1      56.329  -0.284  32.962  0.00  0.00     0.078 A 
ATOM     13  C   UNL d   1      55.571  -0.453  33.237  0.00  0.00     0.199 A 
ATOM     14  O   UNL d   1      55.117  -1.015  32.850  0.00  0.00    -0.286 OA
ATOM     15  C   UNL d   1      55.280  -0.053  33.896  0.00  0.00     0.042 A 
ATOM     16  C   UNL d   1      55.744   0.515  34.284  0.00  0.00     0.003 A 
ATOM     17  C   UNL d   1      56.492   0.678  34.009  0.00  0.00     0.000 A 
ATOM     18  C   UNL d   1      56.792   0.284  33.349  0.00  0.00     0.006 A 
ENDBRANCH  10  12
ENDBRANCH   1  10
TORSDOF 4
ENDMDL
MODEL 2
REMARK VINA RESULT:      -4.3      2.015      4.381
REMARK  4 active torsions:
REMARK  status: ('A' for Active; 'I' for Inactive)
REMARK    1  A    between atoms: C_5  and  C_3 
REMARK    2  A    between atoms: C_8  and  C_5 
REMARK    3  A    between atoms: C_7  and  C_9 
REMARK    4  A    between atoms: C_9  and  C_8 
ROOT
ATOM      1  C   UNL d   1      57.615  -0.446  30.972  0.00  0.00     0.042 C 
ENDROOT
BRANCH   1   2
ATOM      2  C   UNL d   1      57.093  -0.061  31.478  0.00  0.00     0.006 C 
BRANCH   2   3
ATOM      3  C   UNL d   1      56.637  -0.506  32.015  0.00  0.00     0.039 A 
ATOM      4  C   UNL d   1      56.456  -1.320  32.056  0.00  0.00     0.122 A 
ATOM      5  N   UNL d   1      55.982  -1.433  32.707  0.00  0.00    -0.164 NA
ATOM      6  N   UNL d   1      55.856  -0.713  33.082  0.00  0.00    -0.227 N 
ATOM      7  C   UNL d   1      56.267  -0.133  32.646  0.00  0.00     0.085 A 
ATOM      8  C   UNL d   1      55.421  -0.526  33.758  0.00  0.00     0.121 C 
ATOM      9  C   UNL d   1      56.350   0.682  32.746  0.00  0.00     0.021 C 
ENDBRANCH   2   3
ENDBRANCH   1   2
BRANCH   1  10
ATOM     10  C   UNL d   1      57.904  -0.045  30.306  0.00  0.00     0.199 C 
ATOM     11  O   UNL d   1      57.546   0.666  30.055  0.00  0.00    -0.286 OA
BRANCH  10  12
ATOM     12  C   UNL d   1      58.555  -0.352  29.884  0.00  0.00     0.078 A 
ATOM     13  C   UNL d   1      59.291   0.013  29.931  0.00  0.00     0.199 A 
ATOM     14  O   UNL d   1      59.381   0.681  30.397  0.00  0.00    -0.286 OA
ATOM     15  C   UNL d   1      59.927  -0.300  29.510  0.00  0.00     0.042 A 
ATOM     16  C   UNL d   1      59.829  -0.977  29.040  0.00  0.00     0.003 A 
ATOM     17  C   UNL d   1      59.100  -1.333  28.996  0.00  0.00     0.000 A 
ATOM     18  C   UNL d   1      58.457  -1.028  29.415  0.00  0.00     0.006 A 
ENDBRANCH  10  12
ENDBRANCH   1  10
TORSDOF 4
ENDMDL
MODEL 3
REMARK VINA RESULT:      -3.8      1.853      4.214
REMARK  4 active torsions:
REMARK  status: ('A' for Active; 'I' for Inactive)
REMARK    1  A    between atoms: C_5  and  C_3 
REMARK    2  A    between atoms: C_8  and  C_5 
REMARK    3  A    between atoms: C_7  and  C_9 
REMARK    4  A    between atoms: C_9  and  C_8 
ROOT
ATOM      1  C   UNL d   1      57.493  -0.212  31.009  0.00  0.00     0.042 C 
ENDROOT
BRANCH   1   2
ATOM      2  C   UNL d   1      56.984  -0.600  31.524  0.00  0.00     0.006 C 
BRANCH   2   3
ATOM      3  C   UNL d   1      56.663  -0.190  32.174  0.00  0.00     0.039 A 
ATOM      4  C   UNL d   1      56.753   0.597  32.439  0.00  0.00     0.122 A 
ATOM      5  N   UNL d   1      56.301   0.682  33.110  0.00  0.00    -0.164 NA
ATOM      6  N   UNL d   1      55.925  -0.029  33.279  0.00  0.00    -0.227 N 
ATOM      7  C   UNL d   1      56.153  -0.574  32.691  0.00  0.00     0.085 A 
ATOM      8  C   UNL d   1      55.412  -0.235  33.891  0.00  0.00     0.121 C 
ATOM      9  C   UNL d   1      55.962  -1.367  32.564  0.00  0.00     0.021 C 
ENDBRANCH   2   3
ENDBRANCH   1   2
BRANCH   1  10
ATOM     10  C   UNL d   1      57.821  -0.628  30.372  0.00  0.00     0.199 C 
ATOM     11  O   UNL d   1      57.739  -1.458  30.323  0.00  0.00    -0.286 OA
BRANCH  10  12
ATOM     12  C   UNL d   1      58.237  -0.219  29.775  0.00  0.00     0.078 A 
ATOM     13  C   UNL d   1      59.052  -0.305  29.701  0.00  0.00     0.199 A 
ATOM     14  O   UNL d   1      59.455  -0.796  30.219  0.00  0.00    -0.286 OA
ATOM     15  C   UNL d   1      59.451   0.105  29.107  0.00  0.00     0.042 A 
ATOM     16  C   UNL d   1      59.038   0.601  28.586  0.00  0.00     0.003 A 
ATOM     17  C   UNL d   1      58.233   0.682  28.663  0.00  0.00     0.000 A 
ATOM     18  C   UNL d   1      57.824   0.277  29.254  0.00  0.00     0.006 A 
ENDBRANCH  10  12
ENDBRANCH   1  10
TORSDOF 4
ENDMDL
