MODEL 1
REMARK VINA RESULT:      -7.8      0.000      0.000
REMARK  4 active torsions:
REMARK  status: ('A' for Active; 'I' for Inactive)
REMARK    1  A    between atoms: S_2  and  C_1 
REMARK    2  A    between atoms: C_10  and  S_2 
REMARK    3  A    between atoms: N_7  and  C_4 
REMARK    4  A    between atoms: C_8  and  N_7 
ROOT
ATOM      1  C   UNL d   1      52.408  33.175  53.032  0.00  0.00     0.187 A 
ATOM      2  N   UNL d   1      53.142  33.472  53.270  0.00  0.00    -0.208 NA
ATOM      3  C   UNL d   1      53.635  32.838  53.418  0.00  0.00     0.198 A 
ATOM      4  C   UNL d   1      52.456  32.354  53.035  0.00  0.00     0.118 A 
ATOM      5  S   UNL d   1      53.216  32.147  53.275  0.00  0.00    -0.035 SA
ATOM      6 CL   UNL d   1      51.840  31.818  52.831  0.00  0.00    -0.073 Cl
ENDROOT
BRANCH   1   7
ATOM      7  S   UNL d   1      51.705  33.547  52.813  0.00  0.00     0.228 S 
ATOM      8  O   UNL d   1      52.016  33.694  52.063  0.00  0.00    -0.216 OA
ATOM      9  O   UNL d   1      51.394  33.401  53.563  0.00  0.00    -0.216 OA
BRANCH   7  10
ATOM     10  C   UNL d   1      51.002  33.920  52.594  0.00  0.00     0.089 A 
ATOM     11  C   UNL d   1      50.515  34.257  53.175  0.00  0.00     0.011 A 
ATOM     12  C   UNL d   1      49.805  34.633  52.954  0.00  0.00     0.001 A 
ATOM     13  C   UNL d   1      49.589  34.668  52.153  0.00  0.00     0.000 A 
ATOM     14  C   UNL d   1      50.075  34.332  51.579  0.00  0.00     0.001 A 
ATOM     15  C   UNL d   1      48.887  35.040  51.935  0.00  0.00     0.000 C 
ATOM     16  C   UNL d   1      50.784  33.956  51.800  0.00  0.00     0.011 A 
ENDBRANCH   7  10
ENDBRANCH   1   7
BRANCH   3  17
ATOM     17  N   UNL d   1      54.423  32.896  53.670  0.00  0.00    -0.196 NA
BRANCH  17  18
ATOM     18  C   UNL d   1      54.589  33.138  54.439  0.00  0.00     0.196 A 
ATOM     19  N   UNL d   1      54.292  32.898  55.171  0.00  0.00    -0.219 NA
ATOM     20  C   UNL d   1      54.669  33.342  55.753  0.00  0.00     0.108 A 
ATOM     21  C   UNL d   1      55.196  33.854  55.386  0.00  0.00     0.059 A 
ATOM     22  S   UNL d   1      55.148  33.730  54.577  0.00  0.00    -0.046 SA
ENDBRANCH  17  18
ENDBRANCH   3  17
TORSDOF 4
ENDMDL
MODEL 2
REMARK VINA RESULT:      -7.3      1.628      2.147
REMARK  4 active torsions:
REMARK  status: ('A' for Active; 'I' for Inactive)
REMARK    1  A    between atoms: S_2  and  C_1 
REMARK    2  A    between atoms: C_10  and  S_2 
REMARK    3  A    between atoms: N_7  and  C_4 
REMARK    4  A    between atoms: C_8  and  N_7 
ROOT
ATOM      1  C   UNL d   1      51.881  33.540  52.892  0.00  0.00     0.187 A 
ATOM      2  N   UNL d   1      52.247  32.849  52.627  0.00  0.00    -0.208 NA
ATOM      3  C   UNL d   1      52.963  32.776  53.016  0.00  0.00     0.198 A 
ATOM      4  C   UNL d   1      52.378  33.891  53.447  0.00  0.00     0.118 A 
ATOM      5  S   UNL d   1      53.046  33.417  53.521  0.00  0.00    -0.035 SA
ATOM      6 CL   UNL d   1      52.231  34.607  53.864  0.00  0.00    -0.073 Cl
ENDROOT
BRANCH   1   7
ATOM      7  S   UNL d   1      51.161  33.894  52.700  0.00  0.00     0.228 S 
ATOM      8  O   UNL d   1      51.528  34.308  52.088  0.00  0.00    -0.216 OA
ATOM      9  O   UNL d   1      50.794  33.479  53.312  0.00  0.00    -0.216 OA
BRANCH   7  10
ATOM     10  C   UNL d   1      50.441  34.247  52.508  0.00  0.00     0.089 A 
ATOM     11  C   UNL d   1      50.147  34.192  51.733  0.00  0.00     0.011 A 
ATOM     12  C   UNL d   1      49.420  34.549  51.539  0.00  0.00     0.001 A 
ATOM     13  C   UNL d   1      48.993  34.958  52.121  0.00  0.00     0.000 A 
ATOM     14  C   UNL d   1      49.287  35.012  52.888  0.00  0.00     0.001 A 
ATOM     15  C   UNL d   1      48.274  35.312  51.928  0.00  0.00     0.000 C 
ATOM     16  C   UNL d   1      50.014  34.655  53.083  0.00  0.00     0.011 A 
ENDBRANCH   7  10
ENDBRANCH   1   7
BRANCH   3  17
ATOM     17  N   UNL d   1      53.503  32.156  52.909  0.00  0.00    -0.196 NA
BRANCH  17  18
ATOM     18  C   UNL d   1      53.271  31.382  53.063  0.00  0.00     0.196 A 
ATOM     19  N   UNL d   1      52.705  30.893  52.712  0.00  0.00    -0.219 NA
ATOM     20  C   UNL d   1      52.720  30.169  53.103  0.00  0.00     0.108 A 
ATOM     21  C   UNL d   1      53.291  30.206  53.692  0.00  0.00     0.059 A 
ATOM     22  S   UNL d   1      53.631  30.952  53.668  0.00  0.00    -0.046 SA
ENDBRANCH  17  18
ENDBRANCH   3  17
TORSDOF 4
ENDMDL
MODEL 3
REMARK VINA RESULT:      -7.2      2.008      4.664
REMARK  4 active torsions:
REMARK  status: ('A' for Active; 'I' for Inactive)
REMARK    1  A    between atoms: S_2  and  C_1 
REMARK    2  A    between atoms: C_10  and  S_2 
REMARK    3  A    between atoms: N_7  and  C_4 
REMARK    4  A    between atoms: C_8  and  N_7 
ROOT
ATOM      1  C   UNL d   1      51.387  34.090  53.083  0.00  0.00     0.187 A 
ATOM      2  N   UNL d   1      50.585  34.070  53.279  0.00  0.00    -0.208 NA
ATOM      3  C   UNL d   1      50.156  34.267  52.611  0.00  0.00     0.198 A 
ATOM      4  C   UNL d   1      51.447  34.300  52.289  0.00  0.00     0.118 A 
ATOM      5  S   UNL d   1      50.684  34.408  52.000  0.00  0.00    -0.035 SA
ATOM      6 CL   UNL d   1      52.159  34.388  51.850  0.00  0.00    -0.073 Cl
ENDROOT
BRANCH   1   7
ATOM      7  S   UNL d   1      52.068  33.944  53.524  0.00  0.00     0.228 S 
ATOM      8  O   UNL d   1      51.936  33.132  53.459  0.00  0.00    -0.216 OA
ATOM      9  O   UNL d   1      52.200  34.756  53.589  0.00  0.00    -0.216 OA
BRANCH   7  10
ATOM     10  C   UNL d   1      52.750  33.798  53.966  0.00  0.00     0.089 A 
ATOM     11  C   UNL d   1      53.115  33.054  53.928  0.00  0.00     0.011 A 
ATOM     12  C   UNL d   1      53.803  32.906  54.374  0.00  0.00     0.001 A 
ATOM     13  C   UNL d   1      54.120  33.505  54.854  0.00  0.00     0.000 A 
ATOM     14  C   UNL d   1      53.755  34.243  54.889  0.00  0.00     0.001 A 
ATOM     15  C   UNL d   1      54.801  33.359  55.295  0.00  0.00     0.000 C 
ATOM     16  C   UNL d   1      53.067  34.390  54.443  0.00  0.00     0.011 A 
ENDBRANCH   7  10
ENDBRANCH   1   7
BRANCH   3  17
ATOM     17  N   UNL d   1      49.329  34.311  52.572  0.00  0.00    -0.196 NA
BRANCH  17  18
ATOM     18  C   UNL d   1      48.948  35.012  52.773  0.00  0.00     0.196 A 
ATOM     19  N   UNL d   1      49.017  35.511  53.428  0.00  0.00    -0.219 NA
ATOM     20  C   UNL d   1      48.489  36.135  53.325  0.00  0.00     0.108 A 
ATOM     21  C   UNL d   1      48.095  36.025  52.613  0.00  0.00     0.059 A 
ATOM     22  S   UNL d   1      48.376  35.333  52.272  0.00  0.00    -0.046 SA
ENDBRANCH  17  18
ENDBRANCH   3  17
TORSDOF 4
ENDMDL
MODEL 4
REMARK VINA RESULT:      -7.2      2.163      4.457
REMARK  4 active torsions:
REMARK  status: ('A' for Active; 'I' for Inactive)
REMARK    1  A    between atoms: S_2  and  C_1 
REMARK    2  A    between atoms: C_10  and  S_2 
REMARK    3  A    between atoms: N_7  and  C_4 
REMARK    4  A    between atoms: C_8  and  N_7 
ROOT
ATOM      1  C   UNL d   1      53.102  32.448  53.594  0.00  0.00     0.187 A 
ATOM      2  N   UNL d   1      52.445  32.950  53.592  0.00  0.00    -0.208 NA
ATOM      3  C   UNL d   1      52.699  33.696  53.378  0.00  0.00     0.198 A 
ATOM      4  C   UNL d   1      53.759  32.893  53.379  0.00  0.00     0.118 A 
ATOM      5  S   UNL d   1      53.508  33.665  53.246  0.00  0.00    -0.035 SA
ATOM      6 CL   UNL d   1      54.549  32.613  53.308  0.00  0.00    -0.073 Cl
ENDROOT
BRANCH   1   7
ATOM      7  S   UNL d   1      53.184  31.645  53.764  0.00  0.00     0.228 S 
ATOM      8  O   UNL d   1      53.453  31.833  54.521  0.00  0.00    -0.216 OA
ATOM      9  O   UNL d   1      52.915  31.457  53.008  0.00  0.00    -0.216 OA
BRANCH   7  10
ATOM     10  C   UNL d   1      53.266  30.842  53.934  0.00  0.00     0.089 A 
ATOM     11  C   UNL d   1      53.250  30.286  53.318  0.00  0.00     0.011 A 
ATOM     12  C   UNL d   1      53.333  29.475  53.490  0.00  0.00     0.001 A 
ATOM     13  C   UNL d   1      53.432  29.227  54.276  0.00  0.00     0.000 A 
ATOM     14  C   UNL d   1      53.447  29.782  54.885  0.00  0.00     0.001 A 
ATOM     15  C   UNL d   1      53.514  28.425  54.446  0.00  0.00     0.000 C 
ATOM     16  C   UNL d   1      53.364  30.593  54.714  0.00  0.00     0.011 A 
ENDBRANCH   7  10
ENDBRANCH   1   7
BRANCH   3  17
ATOM     17  N   UNL d   1      52.211  34.363  53.309  0.00  0.00    -0.196 NA
BRANCH  17  18
ATOM     18  C   UNL d   1      51.553  34.339  52.814  0.00  0.00     0.196 A 
ATOM     19  N   UNL d   1      51.479  34.240  51.997  0.00  0.00    -0.219 NA
ATOM     20  C   UNL d   1      50.677  34.264  51.813  0.00  0.00     0.108 A 
ATOM     21  C   UNL d   1      50.255  34.376  52.509  0.00  0.00     0.059 A 
ATOM     22  S   UNL d   1      50.794  34.423  53.126  0.00  0.00    -0.046 SA
ENDBRANCH  17  18
ENDBRANCH   3  17
TORSDOF 4
ENDMDL
MODEL 5
REMARK VINA RESULT:      -7.0      1.955      4.612
REMARK  4 active torsions:
REMARK  status: ('A' for Active; 'I' for Inactive)
REMARK    1  A    between atoms: S_2  and  C_1 
REMARK    2  A    between atoms: C_10  and  S_2 
REMARK    3  A    between atoms: N_7  and  C_4 
REMARK    4  A    between atoms: C_8  and  N_7 
ROOT
ATOM      1  C   UNL d   1      51.687  33.425  53.014  0.00  0.00     0.187 A 
ATOM      2  N   UNL d   1      50.869  33.535  53.051  0.00  0.00    -0.208 NA
ATOM      3  C   UNL d   1      50.713  34.320  52.890  0.00  0.00     0.198 A 
ATOM      4  C   UNL d   1      52.031  34.149  52.829  0.00  0.00     0.118 A 
ATOM      5  S   UNL d   1      51.426  34.701  52.752  0.00  0.00    -0.035 SA
ATOM      6 CL   UNL d   1      52.853  34.301  52.733  0.00  0.00    -0.073 Cl
ENDROOT
BRANCH   1   7
ATOM      7  S   UNL d   1      52.161  32.759  53.125  0.00  0.00     0.228 S 
ATOM      8  O   UNL d   1      52.138  32.607  52.315  0.00  0.00    -0.216 OA
ATOM      9  O   UNL d   1      52.185  32.911  53.935  0.00  0.00    -0.216 OA
BRANCH   7  10
ATOM     10  C   UNL d   1      52.636  32.093  53.236  0.00  0.00     0.089 A 
ATOM     11  C   UNL d   1      53.311  32.142  53.717  0.00  0.00     0.011 A 
ATOM     12  C   UNL d   1      53.789  31.470  53.829  0.00  0.00     0.001 A 
ATOM     13  C   UNL d   1      53.589  30.754  53.460  0.00  0.00     0.000 A 
ATOM     14  C   UNL d   1      52.919  30.708  52.983  0.00  0.00     0.001 A 
ATOM     15  C   UNL d   1      54.063  30.089  53.570  0.00  0.00     0.000 C 
ATOM     16  C   UNL d   1      52.440  31.381  52.871  0.00  0.00     0.011 A 
ENDBRANCH   7  10
ENDBRANCH   1   7
BRANCH   3  17
ATOM     17  N   UNL d   1      49.957  34.661  52.871  0.00  0.00    -0.196 NA
BRANCH  17  18
ATOM     18  C   UNL d   1      49.520  34.648  52.174  0.00  0.00     0.196 A 
ATOM     19  N   UNL d   1      49.688  34.354  51.421  0.00  0.00    -0.219 NA
ATOM     20  C   UNL d   1      49.034  34.499  50.942  0.00  0.00     0.108 A 
ATOM     21  C   UNL d   1      48.464  34.880  51.393  0.00  0.00     0.059 A 
ATOM     22  S   UNL d   1      48.761  34.972  52.152  0.00  0.00    -0.046 SA
ENDBRANCH  17  18
ENDBRANCH   3  17
TORSDOF 4
ENDMDL
