MODEL 1
REMARK VINA RESULT:      52.0      0.000      0.000
REMARK  7 active torsions:
REMARK  status: ('A' for Active; 'I' for Inactive)
REMARK    1  A    between atoms: C_3  and  C_1 
REMARK    2  A    between atoms: C_5  and  C_3 
REMARK    3  A    between atoms: C_14  and  C_3 
REMARK    4  A    between atoms: N_6  and  C_14 
REMARK    5  A    between atoms: O_17  and  C_9 
REMARK    6  A    between atoms: O_18  and  C_10 
REMARK    7  A    between atoms: O_19  and  C_11 
ROOT
ATOM      1  C   UNL d   1      44.030 -15.660  37.731  0.00  0.00     0.025 C 
ENDROOT
BRANCH   1   2
ATOM      2  C   UNL d   1      44.695 -15.590  37.247  0.00  0.00     0.021 A 
ATOM      3  C   UNL d   1      44.954 -16.163  36.688  0.00  0.00     0.082 A 
ATOM      4  N   UNL d   1      45.625 -15.880  36.331  0.00  0.00    -0.246 NA
ATOM      5  C   UNL d   1      44.586 -16.888  36.534  0.00  0.00     0.021 C 
ATOM      6  C   UNL d   1      45.795 -15.140  36.652  0.00  0.00     0.081 A 
ATOM      7  C   UNL d   1      45.212 -14.973  37.216  0.00  0.00     0.019 A 
ATOM      8  C   UNL d   1      46.386 -14.603  36.514  0.00  0.00     0.019 A 
ATOM      9  C   UNL d   1      45.238 -14.262  37.634  0.00  0.00     0.002 A 
ATOM     10  C   UNL d   1      45.837 -13.723  37.492  0.00  0.00     0.000 A 
ATOM     11  C   UNL d   1      46.419 -13.889  36.927  0.00  0.00     0.002 A 
ENDBRANCH   1   2
BRANCH   1  12
ATOM     12  C   UNL d   1      43.280 -15.511  37.412  0.00  0.00     0.006 A 
ATOM     13  C   UNL d   1      42.949 -14.766  37.480  0.00  0.00     0.026 A 
ATOM     14  C   UNL d   1      42.206 -14.609  37.167  0.00  0.00     0.118 A 
ATOM     15  C   UNL d   1      41.799 -15.207  36.784  0.00  0.00     0.138 A 
ATOM     16  C   UNL d   1      42.124 -15.962  36.710  0.00  0.00     0.118 A 
ATOM     17  C   UNL d   1      42.873 -16.110  37.029  0.00  0.00     0.026 A 
BRANCH  14  18
ATOM     18  O   UNL d   1      41.876 -13.864  37.235  0.00  0.00    -0.326 OA
ATOM     19  C   UNL d   1      41.387 -13.686  37.867  0.00  0.00     0.181 C 
ENDBRANCH  14  18
BRANCH  15  20
ATOM     20  O   UNL d   1      41.059 -15.053  36.471  0.00  0.00    -0.324 OA
ATOM     21  C   UNL d   1      40.836 -14.269  36.330  0.00  0.00     0.182 C 
ENDBRANCH  15  20
BRANCH  16  22
ATOM     22  O   UNL d   1      41.723 -16.562  36.330  0.00  0.00    -0.326 OA
ATOM     23  C   UNL d   1      41.083 -16.930  36.691  0.00  0.00     0.181 C 
ENDBRANCH  16  22
ENDBRANCH   1  12
BRANCH   1  24
ATOM     24  C   UNL d   1      44.105 -15.878  38.525  0.00  0.00     0.148 C 
BRANCH  24  25
ATOM     25  N   UNL d   1      44.298 -16.669  38.681  0.00  0.00    -0.112 N 
ATOM     26  O   UNL d   1      43.684 -17.224  38.784  0.00  0.00    -0.532 OA
ATOM     27  O   UNL d   1      45.084 -16.899  38.733  0.00  0.00    -0.532 OA
ENDBRANCH  24  25
ENDBRANCH   1  24
TORSDOF 7
ENDMDL
MODEL 2
REMARK VINA RESULT:      52.6      1.466      3.415
REMARK  7 active torsions:
REMARK  status: ('A' for Active; 'I' for Inactive)
REMARK    1  A    between atoms: C_3  and  C_1 
REMARK    2  A    between atoms: C_5  and  C_3 
REMARK    3  A    between atoms: C_14  and  C_3 
REMARK    4  A    between atoms: N_6  and  C_14 
REMARK    5  A    between atoms: O_17  and  C_9 
REMARK    6  A    between atoms: O_18  and  C_10 
REMARK    7  A    between atoms: O_19  and  C_11 
ROOT
ATOM      1  C   UNL d   1      44.062 -15.554  37.892  0.00  0.00     0.025 C 
ENDROOT
BRANCH   1   2
ATOM      2  C   UNL d   1      43.521 -15.821  37.329  0.00  0.00     0.021 A 
ATOM      3  C   UNL d   1      43.652 -16.450  36.785  0.00  0.00     0.082 A 
ATOM      4  N   UNL d   1      42.985 -16.534  36.331  0.00  0.00    -0.246 NA
ATOM      5  C   UNL d   1      44.343 -16.901  36.728  0.00  0.00     0.021 C 
ATOM      6  C   UNL d   1      42.435 -15.971  36.577  0.00  0.00     0.081 A 
ATOM      7  C   UNL d   1      42.779 -15.538  37.193  0.00  0.00     0.019 A 
ATOM      8  C   UNL d   1      41.683 -15.793  36.332  0.00  0.00     0.019 A 
ATOM      9  C   UNL d   1      42.353 -14.928  37.553  0.00  0.00     0.002 A 
ATOM     10  C   UNL d   1      41.594 -14.753  37.303  0.00  0.00     0.000 A 
ATOM     11  C   UNL d   1      41.251 -15.186  36.686  0.00  0.00     0.002 A 
ENDBRANCH   1   2
BRANCH   1  12
ATOM     12  C   UNL d   1      44.696 -15.079  37.650  0.00  0.00     0.006 A 
ATOM     13  C   UNL d   1      44.660 -14.268  37.755  0.00  0.00     0.026 A 
ATOM     14  C   UNL d   1      45.284 -13.789  37.518  0.00  0.00     0.118 A 
ATOM     15  C   UNL d   1      45.944 -14.133  37.176  0.00  0.00     0.138 A 
ATOM     16  C   UNL d   1      45.989 -14.950  37.066  0.00  0.00     0.118 A 
ATOM     17  C   UNL d   1      45.356 -15.422  37.308  0.00  0.00     0.026 A 
BRANCH  14  18
ATOM     18  O   UNL d   1      45.249 -12.980  37.622  0.00  0.00    -0.326 OA
ATOM     19  C   UNL d   1      44.727 -12.656  38.163  0.00  0.00     0.181 C 
ENDBRANCH  14  18
BRANCH  15  20
ATOM     20  O   UNL d   1      46.567 -13.658  36.939  0.00  0.00    -0.324 OA
ATOM     21  C   UNL d   1      46.454 -12.839  36.889  0.00  0.00     0.182 C 
ENDBRANCH  15  20
BRANCH  16  22
ATOM     22  O   UNL d   1      46.644 -15.296  36.725  0.00  0.00    -0.326 OA
ATOM     23  C   UNL d   1      46.579 -16.015  36.332  0.00  0.00     0.181 C 
ENDBRANCH  16  22
ENDBRANCH   1  12
BRANCH   1  24
ATOM     24  C   UNL d   1      43.977 -15.757  38.690  0.00  0.00     0.148 C 
BRANCH  24  25
ATOM     25  N   UNL d   1      44.009 -16.564  38.877  0.00  0.00    -0.112 N 
ATOM     26  O   UNL d   1      43.362 -16.916  39.269  0.00  0.00    -0.532 OA
ATOM     27  O   UNL d   1      44.670 -17.007  38.679  0.00  0.00    -0.532 OA
ENDBRANCH  24  25
ENDBRANCH   1  24
TORSDOF 7
ENDMDL
MODEL 3
REMARK VINA RESULT:      54.6      5.683      7.512
REMARK  7 active torsions:
REMARK  status: ('A' for Active; 'I' for Inactive)
REMARK    1  A    between atoms: C_3  and  C_1 
REMARK    2  A    between atoms: C_5  and  C_3 
REMARK    3  A    between atoms: C_14  and  C_3 
REMARK    4  A    between atoms: N_6  and  C_14 
REMARK    5  A    between atoms: O_17  and  C_9 
REMARK    6  A    between atoms: O_18  and  C_10 
REMARK    7  A    between atoms: O_19  and  C_11 
ROOT
ATOM      1  C   UNL d   1      45.735 -15.631  44.158  0.00  0.00     0.025 C 
ENDROOT
BRANCH   1   2
ATOM      2  C   UNL d   1      45.007 -15.246  44.194  0.00  0.00     0.021 A 
ATOM      3  C   UNL d   1      44.313 -15.547  44.564  0.00  0.00     0.082 A 
ATOM      4  N   UNL d   1      43.722 -14.999  44.475  0.00  0.00    -0.246 NA
ATOM      5  C   UNL d   1      44.250 -16.276  44.950  0.00  0.00     0.021 C 
ATOM      6  C   UNL d   1      44.028 -14.357  44.057  0.00  0.00     0.081 A 
ATOM      7  C   UNL d   1      44.822 -14.523  43.890  0.00  0.00     0.019 A 
ATOM      8  C   UNL d   1      43.703 -13.658  43.808  0.00  0.00     0.019 A 
ATOM      9  C   UNL d   1      45.276 -13.975  43.471  0.00  0.00     0.002 A 
ATOM     10  C   UNL d   1      44.943 -13.270  43.222  0.00  0.00     0.000 A 
ATOM     11  C   UNL d   1      44.150 -13.104  43.389  0.00  0.00     0.002 A 
ENDBRANCH   1   2
BRANCH   1  12
ATOM     12  C   UNL d   1      45.788 -16.362  43.771  0.00  0.00     0.006 A 
ATOM     13  C   UNL d   1      45.992 -17.033  44.193  0.00  0.00     0.026 A 
ATOM     14  C   UNL d   1      46.046 -17.761  43.817  0.00  0.00     0.118 A 
ATOM     15  C   UNL d   1      45.893 -17.809  43.014  0.00  0.00     0.138 A 
ATOM     16  C   UNL d   1      45.687 -17.138  42.580  0.00  0.00     0.118 A 
ATOM     17  C   UNL d   1      45.635 -16.410  42.968  0.00  0.00     0.026 A 
BRANCH  14  18
ATOM     18  O   UNL d   1      46.249 -18.431  44.239  0.00  0.00    -0.326 OA
ATOM     19  C   UNL d   1      46.641 -18.365  44.955  0.00  0.00     0.181 C 
ENDBRANCH  14  18
BRANCH  15  20
ATOM     20  O   UNL d   1      45.947 -18.534  42.638  0.00  0.00    -0.324 OA
ATOM     21  C   UNL d   1      46.235 -19.186  43.058  0.00  0.00     0.182 C 
ENDBRANCH  15  20
BRANCH  16  22
ATOM     22  O   UNL d   1      45.534 -17.181  41.780  0.00  0.00    -0.326 OA
ATOM     23  C   UNL d   1      44.790 -17.399  41.509  0.00  0.00     0.181 C 
ENDBRANCH  16  22
ENDBRANCH   1  12
BRANCH   1  24
ATOM     24  C   UNL d   1      46.409 -15.297  44.503  0.00  0.00     0.148 C 
BRANCH  24  25
ATOM     25  N   UNL d   1      46.567 -14.503  44.323  0.00  0.00    -0.112 N 
ATOM     26  O   UNL d   1      46.647 -13.953  44.945  0.00  0.00    -0.532 OA
ATOM     27  O   UNL d   1      46.644 -14.265  43.541  0.00  0.00    -0.532 OA
ENDBRANCH  24  25
ENDBRANCH   1  24
TORSDOF 7
ENDMDL
