MODEL 1
REMARK VINA RESULT:      -2.4      0.000      0.000
REMARK  3 active torsions:
REMARK  status: ('A' for Active; 'I' for Inactive)
REMARK    1  A    between atoms: S_3  and  N_1 
REMARK    2  A    between atoms: C_5  and  C_4 
REMARK    3  A    between atoms: C_12  and  C_6 
ROOT
ATOM      1  N   UNL d   1     -41.522-121.988 -51.496  0.00  0.00    -0.155 N 
ATOM      2  N   UNL d   1     -41.344-122.009 -52.292  0.00  0.00    -0.153 NA
ATOM      3  C   UNL d   1     -41.780-122.724 -51.267  0.00  0.00     0.098 A 
ATOM      4  C   UNL d   1     -41.495-122.775 -52.560  0.00  0.00     0.126 A 
ATOM      5  C   UNL d   1     -41.764-123.217 -51.927  0.00  0.00     0.043 A 
ENDROOT
BRANCH   3   6
ATOM      6  C   UNL d   1     -42.016-122.943 -50.507  0.00  0.00     0.047 A 
ATOM      7  C   UNL d   1     -42.815-123.059 -50.341  0.00  0.00     0.140 A 
ATOM      8  N   UNL d   1     -43.052-123.279 -49.581  0.00  0.00    -0.234 NA
ATOM      9 CL   UNL d   1     -43.379-122.956 -50.935  0.00  0.00    -0.061 Cl
ATOM     10  C   UNL d   1     -42.488-123.382 -48.988  0.00  0.00     0.082 A 
ATOM     11  C   UNL d   1     -41.689-123.266 -49.154  0.00  0.00     0.018 A 
ATOM     12  C   UNL d   1     -42.725-123.602 -48.229  0.00  0.00     0.018 A 
ATOM     13  C   UNL d   1     -41.452-123.047 -49.913  0.00  0.00     0.005 A 
ATOM     14  C   UNL d   1     -41.125-123.369 -48.561  0.00  0.00     0.002 A 
ATOM     15  C   UNL d   1     -41.368-123.583 -47.826  0.00  0.00     0.000 A 
ATOM     16  C   UNL d   1     -42.167-123.699 -47.661  0.00  0.00     0.002 A 
ATOM     17  C   UNL d   1     -43.524-123.718 -48.064  0.00  0.00     0.002 C 
ENDBRANCH   3   6
BRANCH   1  18
ATOM     18  S   UNL d   1     -41.319-121.201 -51.431  0.00  0.00     0.266 S 
ATOM     19  O   UNL d   1     -41.187-120.852 -50.696  0.00  0.00    -0.203 OA
ATOM     20  O   UNL d   1     -41.293-120.918 -52.205  0.00  0.00    -0.203 OA
ATOM     21  C   UNL d   1     -41.127-120.412 -51.575  0.00  0.00     0.165 C 
ENDBRANCH   1  18
BRANCH   4  22
ATOM     22  C   UNL d   1     -41.395-123.045 -53.317  0.00  0.00     0.119 A 
ATOM     23  O   UNL d   1     -41.181-123.789 -53.558  0.00  0.00    -0.304 OA
ATOM     24  C   UNL d   1     -41.146-123.815 -54.375  0.00  0.00     0.123 A 
ATOM     25  C   UNL d   1     -41.341-123.077 -54.661  0.00  0.00     0.029 A 
ATOM     26  C   UNL d   1     -41.499-122.584 -54.013  0.00  0.00     0.028 A 
ENDBRANCH   4  22
TORSDOF 3
ENDMDL
MODEL 2
REMARK VINA RESULT:      -1.0      1.222      4.467
REMARK  3 active torsions:
REMARK  status: ('A' for Active; 'I' for Inactive)
REMARK    1  A    between atoms: S_3  and  N_1 
REMARK    2  A    between atoms: C_5  and  C_4 
REMARK    3  A    between atoms: C_12  and  C_6 
ROOT
ATOM      1  N   UNL d   1     -41.627-121.564 -51.551  0.00  0.00    -0.155 N 
ATOM      2  N   UNL d   1     -41.758-121.616 -50.748  0.00  0.00    -0.153 NA
ATOM      3  C   UNL d   1     -41.830-122.273 -51.893  0.00  0.00     0.098 A 
ATOM      4  C   UNL d   1     -42.049-122.372 -50.590  0.00  0.00     0.126 A 
ATOM      5  C   UNL d   1     -42.093-122.779 -51.299  0.00  0.00     0.043 A 
ENDROOT
BRANCH   3   6
ATOM      6  C   UNL d   1     -41.783-122.458 -52.697  0.00  0.00     0.047 A 
ATOM      7  C   UNL d   1     -41.431-123.163 -52.937  0.00  0.00     0.140 A 
ATOM      8  N   UNL d   1     -41.383-123.348 -53.740  0.00  0.00    -0.234 NA
ATOM      9 CL   UNL d   1     -41.125-123.685 -52.375  0.00  0.00    -0.061 Cl
ATOM     10  C   UNL d   1     -41.688-122.827 -54.302  0.00  0.00     0.082 A 
ATOM     11  C   UNL d   1     -42.040-122.122 -54.061  0.00  0.00     0.018 A 
ATOM     12  C   UNL d   1     -41.641-123.012 -55.104  0.00  0.00     0.018 A 
ATOM     13  C   UNL d   1     -42.088-121.936 -53.259  0.00  0.00     0.005 A 
ATOM     14  C   UNL d   1     -42.346-121.600 -54.623  0.00  0.00     0.002 A 
ATOM     15  C   UNL d   1     -42.293-121.792 -55.400  0.00  0.00     0.000 A 
ATOM     16  C   UNL d   1     -41.941-122.497 -55.641  0.00  0.00     0.002 A 
ATOM     17  C   UNL d   1     -41.288-123.718 -55.345  0.00  0.00     0.002 C 
ENDBRANCH   3   6
BRANCH   1  18
ATOM     18  S   UNL d   1     -41.362-120.795 -51.499  0.00  0.00     0.266 S 
ATOM     19  O   UNL d   1     -41.123-120.472 -50.781  0.00  0.00    -0.203 OA
ATOM     20  O   UNL d   1     -41.404-120.499 -52.267  0.00  0.00    -0.203 OA
ATOM     21  C   UNL d   1     -41.132-120.018 -51.655  0.00  0.00     0.165 C 
ENDBRANCH   1  18
BRANCH   4  22
ATOM     22  C   UNL d   1     -42.254-122.664 -49.863  0.00  0.00     0.119 A 
ATOM     23  O   UNL d   1     -41.763-122.926 -49.274  0.00  0.00    -0.304 OA
ATOM     24  C   UNL d   1     -42.209-123.172 -48.633  0.00  0.00     0.123 A 
ATOM     25  C   UNL d   1     -42.997-123.067 -48.816  0.00  0.00     0.029 A 
ATOM     26  C   UNL d   1     -43.042-122.750 -49.581  0.00  0.00     0.028 A 
ENDBRANCH   4  22
TORSDOF 3
ENDMDL
