MODEL 1
REMARK VINA RESULT:      -5.9      0.000      0.000
REMARK  10 active torsions:
REMARK  status: ('A' for Active; 'I' for Inactive)
REMARK    1  A    between atoms: C_15  and  C_3 
REMARK       I    between atoms: C_8  and  N_7 
REMARK    2  A    between atoms: O_29  and  C_8 
REMARK       I    between atoms: N_9  and  C_11 
REMARK    3  A    between atoms: S_17  and  C_10 
REMARK    4  A    between atoms: C_11  and  C_23 
REMARK       I    between atoms: C_13  and  N_26 
REMARK    5  A    between atoms: C_16  and  C_13 
REMARK    6  A    between atoms: C_30  and  C_15 
REMARK    7  A    between atoms: C_23  and  S_17 
REMARK    8  A    between atoms: N_26  and  C_30 
REMARK    9  A    between atoms: C_35  and  O_29 
REMARK   10  A    between atoms: O_34  and  C_31 
ROOT
ATOM      1  N   UNL d   1      51.666  34.366  53.068  0.00  0.00    -0.191 N 
ATOM      2  C   UNL d   1      51.566  34.946  53.655  0.00  0.00     0.187 A 
ATOM      3  C   UNL d   1      52.438  34.074  53.123  0.00  0.00     0.188 A 
ATOM      4  N   UNL d   1      51.041  34.180  52.561  0.00  0.00    -0.156 NA
ATOM      5  N   UNL d   1      52.280  35.006  54.068  0.00  0.00    -0.127 NA
ATOM      6  N   UNL d   1      52.817  34.473  53.744  0.00  0.00    -0.127 NA
ATOM      7  C   UNL d   1      50.315  34.574  52.641  0.00  0.00     0.131 A 
ATOM      8  C   UNL d   1      50.845  35.329  53.726  0.00  0.00     0.043 A 
ATOM      9  C   UNL d   1      50.217  35.148  53.222  0.00  0.00     0.031 A 
ENDROOT
BRANCH   7  10
ATOM     10  S   UNL d   1      49.689  34.383  52.128  0.00  0.00    -0.061 SA
BRANCH  10  11
ATOM     11  C   UNL d   1      49.052  34.912  52.040  0.00  0.00     0.098 C 
BRANCH  11  12
ATOM     12  C   UNL d   1      48.529  34.818  51.399  0.00  0.00     0.272 C 
ATOM     13  N   UNL d   1      47.782  35.151  51.444  0.00  0.00    -0.269 N 
ATOM     14  C   UNL d   1      47.567  35.566  52.115  0.00  0.00     0.102 A 
ATOM     15  C   UNL d   1      47.255  35.068  50.820  0.00  0.00     0.102 A 
ATOM     16  C   UNL d   1      46.805  35.901  52.152  0.00  0.00     0.104 A 
ATOM     17  N   UNL d   1      46.283  35.809  51.514  0.00  0.00    -0.249 N 
ATOM     18  C   UNL d   1      46.512  35.394  50.855  0.00  0.00     0.104 A 
ATOM     19  C   UNL d   1      45.526  36.147  51.562  0.00  0.00     0.378 C 
ATOM     20  O   UNL d   1      45.004  36.055  50.924  0.00  0.00    -0.237 OA
ATOM     21  O   UNL d   1      48.761  34.398  50.731  0.00  0.00    -0.266 OA
BRANCH  19  22
ATOM     22  O   UNL d   1      45.306  36.562  52.230  0.00  0.00    -0.257 OA
BRANCH  22  23
ATOM     23  C   UNL d   1      44.517  36.559  52.459  0.00  0.00     0.128 C 
ATOM     24  C   UNL d   1      44.318  36.702  53.244  0.00  0.00     0.029 C 
ENDBRANCH  22  23
ENDBRANCH  19  22
ENDBRANCH  11  12
ENDBRANCH  10  11
ENDBRANCH   7  10
BRANCH   3  25
ATOM     25  C   UNL d   1      52.767  33.488  52.640  0.00  0.00     0.061 C 
BRANCH  25  26
ATOM     26  C   UNL d   1      53.360  32.989  52.934  0.00  0.00     0.105 C 
BRANCH  26  27
ATOM     27  N   UNL d   1      53.162  32.229  53.188  0.00  0.00    -0.206 NA
ATOM     28  C   UNL d   1      53.765  31.692  53.390  0.00  0.00     0.279 C 
ATOM     29  O   UNL d   1      54.560  31.930  53.332  0.00  0.00    -0.265 OA
BRANCH  28  30
ATOM     30  C   UNL d   1      53.571  30.934  53.644  0.00  0.00     0.058 A 
ATOM     31  C   UNL d   1      53.467  30.789  54.449  0.00  0.00     0.007 A 
ATOM     32  C   UNL d   1      53.272  30.031  54.709  0.00  0.00     0.024 A 
ATOM     33  C   UNL d   1      53.183  29.420  54.159  0.00  0.00     0.094 A 
ATOM     34  C   UNL d   1      53.287  29.566  53.353  0.00  0.00     0.024 A 
ATOM     35  C   UNL d   1      53.482  30.329  53.098  0.00  0.00     0.007 A 
BRANCH  33  36
ATOM     36  O   UNL d   1      52.989  28.665  54.416  0.00  0.00    -0.328 OA
ATOM     37  C   UNL d   1      53.529  28.223  54.843  0.00  0.00     0.181 C 
ENDBRANCH  33  36
ENDBRANCH  28  30
ENDBRANCH  26  27
ENDBRANCH  25  26
ENDBRANCH   3  25
TORSDOF 10
ENDMDL
MODEL 2
REMARK VINA RESULT:      -5.8      1.292      1.862
REMARK  10 active torsions:
REMARK  status: ('A' for Active; 'I' for Inactive)
REMARK    1  A    between atoms: C_15  and  C_3 
REMARK       I    between atoms: C_8  and  N_7 
REMARK    2  A    between atoms: O_29  and  C_8 
REMARK       I    between atoms: N_9  and  C_11 
REMARK    3  A    between atoms: S_17  and  C_10 
REMARK    4  A    between atoms: C_11  and  C_23 
REMARK       I    between atoms: C_13  and  N_26 
REMARK    5  A    between atoms: C_16  and  C_13 
REMARK    6  A    between atoms: C_30  and  C_15 
REMARK    7  A    between atoms: C_23  and  S_17 
REMARK    8  A    between atoms: N_26  and  C_30 
REMARK    9  A    between atoms: C_35  and  O_29 
REMARK   10  A    between atoms: O_34  and  C_31 
ROOT
ATOM      1  N   UNL d   1      53.304  34.376  54.164  0.00  0.00    -0.191 N 
ATOM      2  C   UNL d   1      53.141  35.057  54.611  0.00  0.00     0.187 A 
ATOM      3  C   UNL d   1      53.964  34.003  54.495  0.00  0.00     0.188 A 
ATOM      4  N   UNL d   1      52.829  34.185  53.516  0.00  0.00    -0.156 NA
ATOM      5  N   UNL d   1      53.704  35.099  55.215  0.00  0.00    -0.127 NA
ATOM      6  N   UNL d   1      54.211  34.453  55.147  0.00  0.00    -0.127 NA
ATOM      7  C   UNL d   1      52.192  34.675  53.313  0.00  0.00     0.131 A 
ATOM      8  C   UNL d   1      52.509  35.536  54.403  0.00  0.00     0.043 A 
ATOM      9  C   UNL d   1      52.031  35.350  53.756  0.00  0.00     0.031 A 
ENDROOT
BRANCH   7  10
ATOM     10  S   UNL d   1      51.717  34.479  52.660  0.00  0.00    -0.061 SA
BRANCH  10  11
ATOM     11  C   UNL d   1      50.889  34.551  52.714  0.00  0.00     0.098 C 
BRANCH  11  12
ATOM     12  C   UNL d   1      50.420  34.369  52.051  0.00  0.00     0.272 C 
ATOM     13  N   UNL d   1      49.652  34.655  52.018  0.00  0.00    -0.269 N 
ATOM     14  C   UNL d   1      49.367  35.110  52.634  0.00  0.00     0.102 A 
ATOM     15  C   UNL d   1      49.177  34.486  51.371  0.00  0.00     0.102 A 
ATOM     16  C   UNL d   1      48.585  35.397  52.592  0.00  0.00     0.104 A 
ATOM     17  N   UNL d   1      48.116  35.218  51.932  0.00  0.00    -0.249 N 
ATOM     18  C   UNL d   1      48.415  34.765  51.329  0.00  0.00     0.104 A 
ATOM     19  C   UNL d   1      47.338  35.509  51.901  0.00  0.00     0.378 C 
ATOM     20  O   UNL d   1      46.869  35.330  51.241  0.00  0.00    -0.237 OA
ATOM     21  O   UNL d   1      50.722  33.910  51.440  0.00  0.00    -0.266 OA
BRANCH  19  22
ATOM     22  O   UNL d   1      47.048  35.964  52.514  0.00  0.00    -0.257 OA
BRANCH  22  23
ATOM     23  C   UNL d   1      46.250  36.157  52.523  0.00  0.00     0.128 C 
ATOM     24  C   UNL d   1      45.960  36.672  53.095  0.00  0.00     0.029 C 
ENDBRANCH  22  23
ENDBRANCH  19  22
ENDBRANCH  11  12
ENDBRANCH  10  11
ENDBRANCH   7  10
BRANCH   3  25
ATOM     25  C   UNL d   1      54.311  33.305  54.218  0.00  0.00     0.061 C 
BRANCH  25  26
ATOM     26  C   UNL d   1      54.205  32.594  54.630  0.00  0.00     0.105 C 
BRANCH  26  27
ATOM     27  N   UNL d   1      53.955  31.921  54.223  0.00  0.00    -0.206 NA
ATOM     28  C   UNL d   1      53.692  31.255  54.647  0.00  0.00     0.279 C 
ATOM     29  O   UNL d   1      53.684  31.278  55.479  0.00  0.00    -0.265 OA
BRANCH  28  30
ATOM     30  C   UNL d   1      53.443  30.583  54.244  0.00  0.00     0.058 A 
ATOM     31  C   UNL d   1      53.168  30.652  53.469  0.00  0.00     0.007 A 
ATOM     32  C   UNL d   1      52.917  29.983  53.059  0.00  0.00     0.024 A 
ATOM     33  C   UNL d   1      52.942  29.243  53.430  0.00  0.00     0.094 A 
ATOM     34  C   UNL d   1      53.217  29.174  54.205  0.00  0.00     0.024 A 
ATOM     35  C   UNL d   1      53.468  29.851  54.611  0.00  0.00     0.007 A 
BRANCH  33  36
ATOM     36  O   UNL d   1      52.693  28.575  53.024  0.00  0.00    -0.328 OA
ATOM     37  C   UNL d   1      52.053  28.616  52.514  0.00  0.00     0.181 C 
ENDBRANCH  33  36
ENDBRANCH  28  30
ENDBRANCH  26  27
ENDBRANCH  25  26
ENDBRANCH   3  25
TORSDOF 10
ENDMDL
MODEL 3
REMARK VINA RESULT:      -5.0      1.357      7.655
REMARK  10 active torsions:
REMARK  status: ('A' for Active; 'I' for Inactive)
REMARK    1  A    between atoms: C_15  and  C_3 
REMARK       I    between atoms: C_8  and  N_7 
REMARK    2  A    between atoms: O_29  and  C_8 
REMARK       I    between atoms: N_9  and  C_11 
REMARK    3  A    between atoms: S_17  and  C_10 
REMARK    4  A    between atoms: C_11  and  C_23 
REMARK       I    between atoms: C_13  and  N_26 
REMARK    5  A    between atoms: C_16  and  C_13 
REMARK    6  A    between atoms: C_30  and  C_15 
REMARK    7  A    between atoms: C_23  and  S_17 
REMARK    8  A    between atoms: N_26  and  C_30 
REMARK    9  A    between atoms: C_35  and  O_29 
REMARK   10  A    between atoms: O_34  and  C_31 
ROOT
ATOM      1  N   UNL d   1      51.655  34.527  53.414  0.00  0.00    -0.191 N 
ATOM      2  C   UNL d   1      52.284  34.927  53.783  0.00  0.00     0.187 A 
ATOM      3  C   UNL d   1      50.967  34.974  53.522  0.00  0.00     0.188 A 
ATOM      4  N   UNL d   1      51.793  33.810  53.028  0.00  0.00    -0.156 NA
ATOM      5  N   UNL d   1      51.976  35.619  54.116  0.00  0.00    -0.127 NA
ATOM      6  N   UNL d   1      51.168  35.651  53.958  0.00  0.00    -0.127 NA
ATOM      7  C   UNL d   1      52.559  33.492  53.012  0.00  0.00     0.131 A 
ATOM      8  C   UNL d   1      53.037  34.605  53.761  0.00  0.00     0.043 A 
ATOM      9  C   UNL d   1      53.180  33.889  53.377  0.00  0.00     0.031 A 
ENDROOT
BRANCH   7  10
ATOM     10  S   UNL d   1      52.693  32.770  52.622  0.00  0.00    -0.061 SA
BRANCH  10  11
ATOM     11  C   UNL d   1      53.018  32.128  53.042  0.00  0.00     0.098 C 
BRANCH  11  12
ATOM     12  C   UNL d   1      52.902  31.354  52.758  0.00  0.00     0.272 C 
ATOM     13  N   UNL d   1      53.033  30.723  53.263  0.00  0.00    -0.269 N 
ATOM     14  C   UNL d   1      53.273  30.866  54.031  0.00  0.00     0.102 A 
ATOM     15  C   UNL d   1      52.923  29.954  52.999  0.00  0.00     0.102 A 
ATOM     16  C   UNL d   1      53.404  30.218  54.538  0.00  0.00     0.104 A 
ATOM     17  N   UNL d   1      53.289  29.446  54.258  0.00  0.00    -0.249 N 
ATOM     18  C   UNL d   1      53.050  29.321  53.493  0.00  0.00     0.104 A 
ATOM     19  C   UNL d   1      53.423  28.807  54.772  0.00  0.00     0.378 C 
ATOM     20  O   UNL d   1      53.308  28.036  54.491  0.00  0.00    -0.237 OA
ATOM     21  O   UNL d   1      52.659  31.227  51.983  0.00  0.00    -0.266 OA
BRANCH  19  22
ATOM     22  O   UNL d   1      53.664  28.945  55.540  0.00  0.00    -0.257 OA
BRANCH  22  23
ATOM     23  C   UNL d   1      53.317  28.516  56.149  0.00  0.00     0.128 C 
ATOM     24  C   UNL d   1      53.384  28.780  56.925  0.00  0.00     0.029 C 
ENDBRANCH  22  23
ENDBRANCH  19  22
ENDBRANCH  11  12
ENDBRANCH  10  11
ENDBRANCH   7  10
BRANCH   3  25
ATOM     25  C   UNL d   1      50.215  34.774  53.242  0.00  0.00     0.061 C 
BRANCH  25  26
ATOM     26  C   UNL d   1      49.574  35.285  53.363  0.00  0.00     0.105 C 
BRANCH  26  27
ATOM     27  N   UNL d   1      48.918  35.239  52.864  0.00  0.00    -0.206 NA
ATOM     28  C   UNL d   1      48.302  35.794  52.942  0.00  0.00     0.279 C 
ATOM     29  O   UNL d   1      48.357  36.388  53.522  0.00  0.00    -0.265 OA
BRANCH  28  30
ATOM     30  C   UNL d   1      47.646  35.750  52.447  0.00  0.00     0.058 A 
ATOM     31  C   UNL d   1      46.909  35.991  52.725  0.00  0.00     0.007 A 
ATOM     32  C   UNL d   1      46.249  35.950  52.234  0.00  0.00     0.024 A 
ATOM     33  C   UNL d   1      46.331  35.666  51.461  0.00  0.00     0.094 A 
ATOM     34  C   UNL d   1      47.069  35.425  51.182  0.00  0.00     0.024 A 
ATOM     35  C   UNL d   1      47.729  35.469  51.681  0.00  0.00     0.007 A 
BRANCH  33  36
ATOM     36  O   UNL d   1      45.675  35.624  50.970  0.00  0.00    -0.328 OA
ATOM     37  C   UNL d   1      45.000  36.053  51.144  0.00  0.00     0.181 C 
ENDBRANCH  33  36
ENDBRANCH  28  30
ENDBRANCH  26  27
ENDBRANCH  25  26
ENDBRANCH   3  25
TORSDOF 10
ENDMDL
MODEL 4
REMARK VINA RESULT:      -4.3     11.265     12.559
REMARK  10 active torsions:
REMARK  status: ('A' for Active; 'I' for Inactive)
REMARK    1  A    between atoms: C_15  and  C_3 
REMARK       I    between atoms: C_8  and  N_7 
REMARK    2  A    between atoms: O_29  and  C_8 
REMARK       I    between atoms: N_9  and  C_11 
REMARK    3  A    between atoms: S_17  and  C_10 
REMARK    4  A    between atoms: C_11  and  C_23 
REMARK       I    between atoms: C_13  and  N_26 
REMARK    5  A    between atoms: C_16  and  C_13 
REMARK    6  A    between atoms: C_30  and  C_15 
REMARK    7  A    between atoms: C_23  and  S_17 
REMARK    8  A    between atoms: N_26  and  C_30 
REMARK    9  A    between atoms: C_35  and  O_29 
REMARK   10  A    between atoms: O_34  and  C_31 
ROOT
ATOM      1  N   UNL d   1      44.800  29.645  59.535  0.00  0.00    -0.191 N 
ATOM      2  C   UNL d   1      45.264  30.327  59.435  0.00  0.00     0.187 A 
ATOM      3  C   UNL d   1      44.731  29.270  58.801  0.00  0.00     0.188 A 
ATOM      4  N   UNL d   1      44.501  29.456  60.281  0.00  0.00    -0.156 NA
ATOM      5  N   UNL d   1      45.479  30.366  58.637  0.00  0.00    -0.127 NA
ATOM      6  N   UNL d   1      45.154  29.719  58.245  0.00  0.00    -0.127 NA
ATOM      7  C   UNL d   1      44.666  29.948  60.928  0.00  0.00     0.131 A 
ATOM      8  C   UNL d   1      45.422  30.807  60.080  0.00  0.00     0.043 A 
ATOM      9  C   UNL d   1      45.126  30.623  60.828  0.00  0.00     0.031 A 
ENDROOT
BRANCH   7  10
ATOM     10  S   UNL d   1      44.363  29.754  61.677  0.00  0.00    -0.061 SA
BRANCH  10  11
ATOM     11  C   UNL d   1      44.885  29.591  62.305  0.00  0.00     0.098 C 
BRANCH  11  12
ATOM     12  C   UNL d   1      44.651  29.760  63.085  0.00  0.00     0.272 C 
ATOM     13  N   UNL d   1      44.626  29.151  63.633  0.00  0.00    -0.269 N 
ATOM     14  C   UNL d   1      44.833  28.395  63.402  0.00  0.00     0.102 A 
ATOM     15  C   UNL d   1      44.397  29.301  64.406  0.00  0.00     0.102 A 
ATOM     16  C   UNL d   1      44.805  27.781  63.966  0.00  0.00     0.104 A 
ATOM     17  N   UNL d   1      44.572  27.948  64.743  0.00  0.00    -0.249 N 
ATOM     18  C   UNL d   1      44.370  28.704  64.957  0.00  0.00     0.104 A 
ATOM     19  C   UNL d   1      44.548  27.329  65.297  0.00  0.00     0.378 C 
ATOM     20  O   UNL d   1      44.314  27.495  66.075  0.00  0.00    -0.237 OA
ATOM     21  O   UNL d   1      44.446  30.526  63.302  0.00  0.00    -0.266 OA
BRANCH  19  22
ATOM     22  O   UNL d   1      44.753  26.571  65.071  0.00  0.00    -0.257 OA
BRANCH  22  23
ATOM     23  C   UNL d   1      44.359  25.935  65.409  0.00  0.00     0.128 C 
ATOM     24  C   UNL d   1      44.594  25.167  65.231  0.00  0.00     0.029 C 
ENDBRANCH  22  23
ENDBRANCH  19  22
ENDBRANCH  11  12
ENDBRANCH  10  11
ENDBRANCH   7  10
BRANCH   3  25
ATOM     25  C   UNL d   1      44.314  28.571  58.655  0.00  0.00     0.061 C 
BRANCH  25  26
ATOM     26  C   UNL d   1      44.679  27.835  58.766  0.00  0.00     0.105 C 
BRANCH  26  27
ATOM     27  N   UNL d   1      44.542  27.227  58.225  0.00  0.00    -0.206 NA
ATOM     28  C   UNL d   1      44.953  26.507  58.300  0.00  0.00     0.279 C 
ATOM     29  O   UNL d   1      45.498  26.411  58.921  0.00  0.00    -0.265 OA
BRANCH  28  30
ATOM     30  C   UNL d   1      44.819  25.900  57.762  0.00  0.00     0.058 A 
ATOM     31  C   UNL d   1      45.028  26.003  56.971  0.00  0.00     0.007 A 
ATOM     32  C   UNL d   1      44.896  25.398  56.428  0.00  0.00     0.024 A 
ATOM     33  C   UNL d   1      44.552  24.689  56.681  0.00  0.00     0.094 A 
ATOM     34  C   UNL d   1      44.342  24.586  57.472  0.00  0.00     0.024 A 
ATOM     35  C   UNL d   1      44.478  25.198  58.014  0.00  0.00     0.007 A 
BRANCH  33  36
ATOM     36  O   UNL d   1      44.418  24.085  56.141  0.00  0.00    -0.328 OA
ATOM     37  C   UNL d   1      44.826  24.068  55.431  0.00  0.00     0.181 C 
ENDBRANCH  33  36
ENDBRANCH  28  30
ENDBRANCH  26  27
ENDBRANCH  25  26
ENDBRANCH   3  25
TORSDOF 10
ENDMDL
