MODEL 1
REMARK VINA RESULT:      -3.2      0.000      0.000
REMARK  4 active torsions:
REMARK  status: ('A' for Active; 'I' for Inactive)
REMARK    1  A    between atoms: N_5  and  C_2 
REMARK    2  A    between atoms: C_9  and  C_3 
REMARK       I    between atoms: C_7  and  N_5 
REMARK    3  A    between atoms: C_8  and  C_7 
REMARK    4  A    between atoms: O_16  and  C_13 
ROOT
ATOM      1  N   UNL d   1      33.022  22.003 -19.424  0.00  0.00    -0.200 NA
ATOM      2  C   UNL d   1      33.127  22.083 -20.233  0.00  0.00     0.216 A 
ATOM      3  C   UNL d   1      32.930  22.752 -19.098  0.00  0.00     0.172 A 
ATOM      4  N   UNL d   1      32.979  23.300 -19.713  0.00  0.00    -0.187 NA
ATOM      5  S   UNL d   1      33.100  22.884 -20.411  0.00  0.00     0.054 SA
ENDROOT
BRANCH   2   6
ATOM      6  N   UNL d   1      33.239  21.468 -20.772  0.00  0.00    -0.181 NA
ATOM      7  C   UNL d   1      32.590  21.114 -21.123  0.00  0.00     0.281 C 
ATOM      8  O   UNL d   1      31.828  21.369 -20.939  0.00  0.00    -0.265 OA
BRANCH   7   9
ATOM      9  C   UNL d   1      32.702  20.500 -21.662  0.00  0.00     0.058 A 
ATOM     10  C   UNL d   1      33.056  19.798 -21.418  0.00  0.00     0.007 A 
ATOM     11  C   UNL d   1      33.169  19.183 -21.957  0.00  0.00     0.024 A 
ATOM     12  C   UNL d   1      32.927  19.271 -22.740  0.00  0.00     0.094 A 
ATOM     13  C   UNL d   1      32.573  19.974 -22.982  0.00  0.00     0.024 A 
ATOM     14  C   UNL d   1      32.460  20.588 -22.443  0.00  0.00     0.007 A 
BRANCH  12  15
ATOM     15  O   UNL d   1      33.039  18.657 -23.279  0.00  0.00    -0.328 OA
ATOM     16  C   UNL d   1      32.446  18.099 -23.397  0.00  0.00     0.181 C 
ENDBRANCH  12  15
ENDBRANCH   7   9
ENDBRANCH   2   6
BRANCH   3  17
ATOM     17  C   UNL d   1      32.811  22.927 -18.308  0.00  0.00     0.036 A 
ATOM     18  C   UNL d   1      32.277  23.518 -18.095  0.00  0.00     0.003 A 
ATOM     19  C   UNL d   1      32.156  23.695 -17.290  0.00  0.00     0.000 A 
ATOM     20  C   UNL d   1      32.573  23.279 -16.704  0.00  0.00     0.000 A 
ATOM     21  C   UNL d   1      33.108  22.686 -16.927  0.00  0.00     0.000 A 
ATOM     22  C   UNL d   1      33.227  22.511 -17.723  0.00  0.00     0.003 A 
ENDBRANCH   3  17
TORSDOF 4
ENDMDL
MODEL 2
REMARK VINA RESULT:      -3.2      1.675      5.450
REMARK  4 active torsions:
REMARK  status: ('A' for Active; 'I' for Inactive)
REMARK    1  A    between atoms: N_5  and  C_2 
REMARK    2  A    between atoms: C_9  and  C_3 
REMARK       I    between atoms: C_7  and  N_5 
REMARK    3  A    between atoms: C_8  and  C_7 
REMARK    4  A    between atoms: O_16  and  C_13 
ROOT
ATOM      1  N   UNL d   1      32.965  19.484 -22.384  0.00  0.00    -0.200 NA
ATOM      2  C   UNL d   1      33.149  20.273 -22.512  0.00  0.00     0.216 A 
ATOM      3  C   UNL d   1      32.927  19.104 -23.112  0.00  0.00     0.172 A 
ATOM      4  N   UNL d   1      33.089  19.664 -23.696  0.00  0.00    -0.187 NA
ATOM      5  S   UNL d   1      33.225  20.383 -23.322  0.00  0.00     0.054 SA
ENDROOT
BRANCH   2   6
ATOM      6  N   UNL d   1      33.241  20.852 -21.932  0.00  0.00    -0.181 NA
ATOM      7  C   UNL d   1      32.586  21.115 -21.516  0.00  0.00     0.281 C 
ATOM      8  O   UNL d   1      31.840  20.805 -21.676  0.00  0.00    -0.265 OA
BRANCH   7   9
ATOM      9  C   UNL d   1      32.678  21.694 -20.936  0.00  0.00     0.058 A 
ATOM     10  C   UNL d   1      33.131  21.538 -20.266  0.00  0.00     0.007 A 
ATOM     11  C   UNL d   1      33.223  22.117 -19.686  0.00  0.00     0.024 A 
ATOM     12  C   UNL d   1      32.862  22.853 -19.775  0.00  0.00     0.094 A 
ATOM     13  C   UNL d   1      32.411  23.008 -20.446  0.00  0.00     0.024 A 
ATOM     14  C   UNL d   1      32.319  22.429 -21.026  0.00  0.00     0.007 A 
BRANCH  12  15
ATOM     15  O   UNL d   1      32.954  23.432 -19.195  0.00  0.00    -0.328 OA
ATOM     16  C   UNL d   1      32.465  23.434 -18.534  0.00  0.00     0.181 C 
ENDBRANCH  12  15
ENDBRANCH   7   9
ENDBRANCH   2   6
BRANCH   3  17
ATOM     17  C   UNL d   1      32.758  18.313 -23.238  0.00  0.00     0.036 A 
ATOM     18  C   UNL d   1      32.132  18.101 -23.731  0.00  0.00     0.003 A 
ATOM     19  C   UNL d   1      31.961  17.296 -23.860  0.00  0.00     0.000 A 
ATOM     20  C   UNL d   1      32.420  16.709 -23.492  0.00  0.00     0.000 A 
ATOM     21  C   UNL d   1      33.047  16.931 -22.998  0.00  0.00     0.000 A 
ATOM     22  C   UNL d   1      33.217  17.727 -22.871  0.00  0.00     0.003 A 
ENDBRANCH   3  17
TORSDOF 4
ENDMDL
MODEL 3
REMARK VINA RESULT:      -2.8      1.861      2.914
REMARK  4 active torsions:
REMARK  status: ('A' for Active; 'I' for Inactive)
REMARK    1  A    between atoms: N_5  and  C_2 
REMARK    2  A    between atoms: C_9  and  C_3 
REMARK       I    between atoms: C_7  and  N_5 
REMARK    3  A    between atoms: C_8  and  C_7 
REMARK    4  A    between atoms: O_16  and  C_13 
ROOT
ATOM      1  N   UNL d   1      32.672  20.691 -21.449  0.00  0.00    -0.200 NA
ATOM      2  C   UNL d   1      32.894  20.296 -22.132  0.00  0.00     0.216 A 
ATOM      3  C   UNL d   1      32.879  21.483 -21.528  0.00  0.00     0.172 A 
ATOM      4  N   UNL d   1      33.232  21.578 -22.267  0.00  0.00    -0.187 NA
ATOM      5  S   UNL d   1      33.240  20.844 -22.637  0.00  0.00     0.054 SA
ENDROOT
BRANCH   2   6
ATOM      6  N   UNL d   1      32.789  19.492 -22.286  0.00  0.00    -0.181 NA
ATOM      7  C   UNL d   1      32.874  19.212 -23.050  0.00  0.00     0.281 C 
ATOM      8  O   UNL d   1      33.063  19.729 -23.664  0.00  0.00    -0.265 OA
BRANCH   7   9
ATOM      9  C   UNL d   1      32.769  18.408 -23.204  0.00  0.00     0.058 A 
ATOM     10  C   UNL d   1      32.192  18.163 -23.737  0.00  0.00     0.007 A 
ATOM     11  C   UNL d   1      32.087  17.359 -23.891  0.00  0.00     0.024 A 
ATOM     12  C   UNL d   1      32.560  16.801 -23.510  0.00  0.00     0.094 A 
ATOM     13  C   UNL d   1      33.136  17.048 -22.977  0.00  0.00     0.024 A 
ATOM     14  C   UNL d   1      33.241  17.852 -22.824  0.00  0.00     0.007 A 
BRANCH  12  15
ATOM     15  O   UNL d   1      32.455  15.997 -23.664  0.00  0.00    -0.328 OA
ATOM     16  C   UNL d   1      32.350  15.735 -24.437  0.00  0.00     0.181 C 
ENDBRANCH  12  15
ENDBRANCH   7   9
ENDBRANCH   2   6
BRANCH   3  17
ATOM     17  C   UNL d   1      32.757  22.074 -20.974  0.00  0.00     0.036 A 
ATOM     18  C   UNL d   1      33.099  22.011 -20.226  0.00  0.00     0.003 A 
ATOM     19  C   UNL d   1      32.975  22.612 -19.663  0.00  0.00     0.000 A 
ATOM     20  C   UNL d   1      32.509  23.273 -19.855  0.00  0.00     0.000 A 
ATOM     21  C   UNL d   1      32.170  23.328 -20.609  0.00  0.00     0.000 A 
ATOM     22  C   UNL d   1      32.292  22.734 -21.166  0.00  0.00     0.003 A 
ENDBRANCH   3  17
TORSDOF 4
ENDMDL
MODEL 4
REMARK VINA RESULT:      -2.7      1.326      5.242
REMARK  4 active torsions:
REMARK  status: ('A' for Active; 'I' for Inactive)
REMARK    1  A    between atoms: N_5  and  C_2 
REMARK    2  A    between atoms: C_9  and  C_3 
REMARK       I    between atoms: C_7  and  N_5 
REMARK    3  A    between atoms: C_8  and  C_7 
REMARK    4  A    between atoms: O_16  and  C_13 
ROOT
ATOM      1  N   UNL d   1      33.130  20.153 -21.632  0.00  0.00    -0.200 NA
ATOM      2  C   UNL d   1      33.205  20.969 -21.613  0.00  0.00     0.216 A 
ATOM      3  C   UNL d   1      33.117  19.911 -22.417  0.00  0.00     0.172 A 
ATOM      4  N   UNL d   1      33.183  20.584 -22.889  0.00  0.00    -0.187 NA
ATOM      5  S   UNL d   1      33.238  21.235 -22.389  0.00  0.00     0.054 SA
ENDROOT
BRANCH   2   6
ATOM      6  N   UNL d   1      33.241  21.440 -20.936  0.00  0.00    -0.181 NA
ATOM      7  C   UNL d   1      32.566  21.821 -20.673  0.00  0.00     0.281 C 
ATOM      8  O   UNL d   1      31.855  21.737 -21.080  0.00  0.00    -0.265 OA
BRANCH   7   9
ATOM      9  C   UNL d   1      32.602  22.291 -19.996  0.00  0.00     0.058 A 
ATOM     10  C   UNL d   1      32.855  21.968 -19.283  0.00  0.00     0.007 A 
ATOM     11  C   UNL d   1      32.891  22.438 -18.606  0.00  0.00     0.024 A 
ATOM     12  C   UNL d   1      32.674  23.232 -18.643  0.00  0.00     0.094 A 
ATOM     13  C   UNL d   1      32.421  23.554 -19.356  0.00  0.00     0.024 A 
ATOM     14  C   UNL d   1      32.385  23.084 -20.033  0.00  0.00     0.007 A 
BRANCH  12  15
ATOM     15  O   UNL d   1      32.709  23.702 -17.966  0.00  0.00    -0.328 OA
ATOM     16  C   UNL d   1      32.474  23.397 -17.239  0.00  0.00     0.181 C 
ENDBRANCH  12  15
ENDBRANCH   7   9
ENDBRANCH   2   6
BRANCH   3  17
ATOM     17  C   UNL d   1      33.049  19.141 -22.687  0.00  0.00     0.036 A 
ATOM     18  C   UNL d   1      32.839  18.999 -23.472  0.00  0.00     0.003 A 
ATOM     19  C   UNL d   1      32.771  18.215 -23.746  0.00  0.00     0.000 A 
ATOM     20  C   UNL d   1      32.912  17.579 -23.230  0.00  0.00     0.000 A 
ATOM     21  C   UNL d   1      33.122  17.731 -22.443  0.00  0.00     0.000 A 
ATOM     22  C   UNL d   1      33.190  18.506 -22.172  0.00  0.00     0.003 A 
ENDBRANCH   3  17
TORSDOF 4
ENDMDL
MODEL 5
REMARK VINA RESULT:      -1.8      1.937      2.500
REMARK  4 active torsions:
REMARK  status: ('A' for Active; 'I' for Inactive)
REMARK    1  A    between atoms: N_5  and  C_2 
REMARK    2  A    between atoms: C_9  and  C_3 
REMARK       I    between atoms: C_7  and  N_5 
REMARK    3  A    between atoms: C_8  and  C_7 
REMARK    4  A    between atoms: O_16  and  C_13 
ROOT
ATOM      1  N   UNL d   1      32.932  23.078 -19.196  0.00  0.00    -0.200 NA
ATOM      2  C   UNL d   1      33.123  22.592 -19.828  0.00  0.00     0.216 A 
ATOM      3  C   UNL d   1      32.927  22.624 -18.511  0.00  0.00     0.172 A 
ATOM      4  N   UNL d   1      33.116  21.850 -18.722  0.00  0.00    -0.187 NA
ATOM      5  S   UNL d   1      33.237  21.834 -19.534  0.00  0.00     0.054 SA
ENDROOT
BRANCH   2   6
ATOM      6  N   UNL d   1      33.190  22.823 -20.617  0.00  0.00    -0.181 NA
ATOM      7  C   UNL d   1      32.684  22.503 -21.176  0.00  0.00     0.281 C 
ATOM      8  O   UNL d   1      32.111  21.954 -20.953  0.00  0.00    -0.265 OA
BRANCH   7   9
ATOM      9  C   UNL d   1      32.750  22.734 -21.965  0.00  0.00     0.058 A 
ATOM     10  C   UNL d   1      32.470  23.471 -22.203  0.00  0.00     0.007 A 
ATOM     11  C   UNL d   1      32.536  23.702 -22.993  0.00  0.00     0.024 A 
ATOM     12  C   UNL d   1      32.883  23.197 -23.543  0.00  0.00     0.094 A 
ATOM     13  C   UNL d   1      33.162  22.460 -23.304  0.00  0.00     0.024 A 
ATOM     14  C   UNL d   1      33.096  22.229 -22.514  0.00  0.00     0.007 A 
BRANCH  12  15
ATOM     15  O   UNL d   1      32.949  23.428 -24.333  0.00  0.00    -0.328 OA
ATOM     16  C   UNL d   1      32.896  22.867 -24.932  0.00  0.00     0.181 C 
ENDBRANCH  12  15
ENDBRANCH   7   9
ENDBRANCH   2   6
BRANCH   3  17
ATOM     17  C   UNL d   1      32.763  22.889 -17.754  0.00  0.00     0.036 A 
ATOM     18  C   UNL d   1      33.238  22.649 -17.124  0.00  0.00     0.003 A 
ATOM     19  C   UNL d   1      33.071  22.919 -16.354  0.00  0.00     0.000 A 
ATOM     20  C   UNL d   1      32.428  23.429 -16.221  0.00  0.00     0.000 A 
ATOM     21  C   UNL d   1      31.957  23.665 -16.860  0.00  0.00     0.000 A 
ATOM     22  C   UNL d   1      32.121  23.399 -17.621  0.00  0.00     0.003 A 
ENDBRANCH   3  17
TORSDOF 4
ENDMDL
MODEL 6
REMARK VINA RESULT:      -0.6      1.886      5.302
REMARK  4 active torsions:
REMARK  status: ('A' for Active; 'I' for Inactive)
REMARK    1  A    between atoms: N_5  and  C_2 
REMARK    2  A    between atoms: C_9  and  C_3 
REMARK       I    between atoms: C_7  and  N_5 
REMARK    3  A    between atoms: C_8  and  C_7 
REMARK    4  A    between atoms: O_16  and  C_13 
ROOT
ATOM      1  N   UNL d   1      33.163  22.470 -22.008  0.00  0.00    -0.200 NA
ATOM      2  C   UNL d   1      33.192  22.082 -21.286  0.00  0.00     0.216 A 
ATOM      3  C   UNL d   1      33.117  21.906 -22.605  0.00  0.00     0.172 A 
ATOM      4  N   UNL d   1      33.118  21.163 -22.248  0.00  0.00    -0.187 NA
ATOM      5  S   UNL d   1      33.164  21.275 -21.435  0.00  0.00     0.054 SA
ENDROOT
BRANCH   2   6
ATOM      6  N   UNL d   1      33.240  22.438 -20.543  0.00  0.00    -0.181 NA
ATOM      7  C   UNL d   1      32.713  22.221 -19.956  0.00  0.00     0.281 C 
ATOM      8  O   UNL d   1      32.138  21.650 -20.104  0.00  0.00    -0.265 OA
BRANCH   7   9
ATOM      9  C   UNL d   1      32.762  22.577 -19.213  0.00  0.00     0.058 A 
ATOM     10  C   UNL d   1      33.081  22.162 -18.578  0.00  0.00     0.007 A 
ATOM     11  C   UNL d   1      33.130  22.518 -17.835  0.00  0.00     0.024 A 
ATOM     12  C   UNL d   1      32.859  23.289 -17.728  0.00  0.00     0.094 A 
ATOM     13  C   UNL d   1      32.539  23.702 -18.364  0.00  0.00     0.024 A 
ATOM     14  C   UNL d   1      32.491  23.346 -19.107  0.00  0.00     0.007 A 
BRANCH  12  15
ATOM     15  O   UNL d   1      32.907  23.645 -16.986  0.00  0.00    -0.328 OA
ATOM     16  C   UNL d   1      33.074  23.190 -16.321  0.00  0.00     0.181 C 
ENDBRANCH  12  15
ENDBRANCH   7   9
ENDBRANCH   2   6
BRANCH   3  17
ATOM     17  C   UNL d   1      33.078  22.053 -23.409  0.00  0.00     0.036 A 
ATOM     18  C   UNL d   1      32.906  21.437 -23.930  0.00  0.00     0.003 A 
ATOM     19  C   UNL d   1      32.866  21.587 -24.748  0.00  0.00     0.000 A 
ATOM     20  C   UNL d   1      32.999  22.354 -25.039  0.00  0.00     0.000 A 
ATOM     21  C   UNL d   1      33.171  22.967 -24.508  0.00  0.00     0.000 A 
ATOM     22  C   UNL d   1      33.211  22.819 -23.699  0.00  0.00     0.003 A 
ENDBRANCH   3  17
TORSDOF 4
ENDMDL
