MODEL 1
REMARK VINA RESULT:      -2.4      0.000      0.000
REMARK  7 active torsions:
REMARK  status: ('A' for Active; 'I' for Inactive)
REMARK    1  A    between atoms: C_7  and  C_1 
REMARK    2  A    between atoms: N_5  and  C_2 
REMARK       I    between atoms: C_8  and  N_5 
REMARK    3  A    between atoms: N_9  and  C_7 
REMARK    4  A    between atoms: C_11  and  C_7 
REMARK    5  A    between atoms: C_16  and  C_8 
REMARK    6  A    between atoms: C_21  and  N_10 
REMARK    7  A    between atoms: C_27  and  C_21 
ROOT
ATOM      1  C   UNL d   1      53.651  32.217  54.383  0.00  0.00     0.042 A 
ATOM      2  C   UNL d   1      53.431  31.485  54.062  0.00  0.00     0.115 A 
ATOM      3  C   UNL d   1      53.752  32.121  55.180  0.00  0.00     0.009 A 
ATOM      4  S   UNL d   1      53.399  30.949  54.666  0.00  0.00    -0.068 SA
ATOM      5  C   UNL d   1      53.602  31.353  55.369  0.00  0.00     0.031 A 
ATOM      6  C   UNL d   1      53.983  32.734  55.753  0.00  0.00     0.001 C 
ATOM      7  C   UNL d   1      53.638  31.016  56.112  0.00  0.00     0.007 C 
ENDROOT
BRANCH   1   8
ATOM      8  C   UNL d   1      53.732  32.880  53.908  0.00  0.00     0.084 C 
BRANCH   8   9
ATOM      9  N   UNL d   1      53.053  33.295  53.705  0.00  0.00    -0.300 N 
ATOM     10  C   UNL d   1      52.737  33.250  52.940  0.00  0.00     0.100 A 
ATOM     11  C   UNL d   1      52.057  33.675  52.768  0.00  0.00     0.100 A 
ATOM     12  N   UNL d   1      51.689  34.134  53.321  0.00  0.00    -0.297 N 
ATOM     13  C   UNL d   1      52.004  34.179  54.086  0.00  0.00     0.100 A 
ATOM     14  C   UNL d   1      52.684  33.764  54.288  0.00  0.00     0.100 A 
BRANCH  12  15
ATOM     15  C   UNL d   1      50.991  34.564  53.127  0.00  0.00     0.126 C 
BRANCH  15  16
ATOM     16  C   UNL d   1      50.369  34.205  52.717  0.00  0.00     0.253 C 
ATOM     17  O   UNL d   1      49.705  34.638  52.521  0.00  0.00    -0.281 OA
ENDBRANCH  15  16
ENDBRANCH  12  15
ENDBRANCH   8   9
BRANCH   8  18
ATOM     18  C   UNL d   1      54.476  33.125  53.640  0.00  0.00     0.098 A 
ATOM     19  N   UNL d   1      54.726  32.918  52.895  0.00  0.00    -0.243 NA
ATOM     20  C   UNL d   1      55.472  33.176  52.655  0.00  0.00     0.099 A 
ATOM     21  C   UNL d   1      55.938  33.605  53.113  0.00  0.00     0.021 A 
ATOM     22  C   UNL d   1      55.698  33.823  53.872  0.00  0.00     0.003 A 
ATOM     23  C   UNL d   1      54.957  33.579  54.139  0.00  0.00     0.021 A 
ENDBRANCH   8  18
ENDBRANCH   1   8
BRANCH   2  24
ATOM     24  N   UNL d   1      53.295  31.426  53.270  0.00  0.00    -0.201 NA
ATOM     25  C   UNL d   1      53.160  30.671  52.954  0.00  0.00     0.280 C 
ATOM     26  O   UNL d   1      53.020  30.586  52.159  0.00  0.00    -0.265 OA
BRANCH  25  27
ATOM     27  C   UNL d   1      53.166  30.005  53.447  0.00  0.00     0.058 A 
ATOM     28  C   UNL d   1      53.870  29.616  53.609  0.00  0.00     0.005 A 
ATOM     29  C   UNL d   1      53.879  28.943  54.107  0.00  0.00     0.000 A 
ATOM     30  C   UNL d   1      53.177  28.669  54.435  0.00  0.00     0.000 A 
ATOM     31  C   UNL d   1      52.473  29.067  54.266  0.00  0.00     0.000 A 
ATOM     32  C   UNL d   1      52.458  29.731  53.776  0.00  0.00     0.005 A 
ENDBRANCH  25  27
ENDBRANCH   2  24
TORSDOF 7
ENDMDL
MODEL 2
REMARK VINA RESULT:      -2.3      1.383      4.129
REMARK  7 active torsions:
REMARK  status: ('A' for Active; 'I' for Inactive)
REMARK    1  A    between atoms: C_7  and  C_1 
REMARK    2  A    between atoms: N_5  and  C_2 
REMARK       I    between atoms: C_8  and  N_5 
REMARK    3  A    between atoms: N_9  and  C_7 
REMARK    4  A    between atoms: C_11  and  C_7 
REMARK    5  A    between atoms: C_16  and  C_8 
REMARK    6  A    between atoms: C_21  and  N_10 
REMARK    7  A    between atoms: C_27  and  C_21 
ROOT
ATOM      1  C   UNL d   1      53.040  33.474  53.273  0.00  0.00     0.042 A 
ATOM      2  C   UNL d   1      52.218  33.578  53.280  0.00  0.00     0.115 A 
ATOM      3  C   UNL d   1      53.340  33.888  52.646  0.00  0.00     0.009 A 
ATOM      4  S   UNL d   1      52.022  34.054  52.657  0.00  0.00    -0.068 SA
ATOM      5  C   UNL d   1      52.732  34.247  52.259  0.00  0.00     0.031 A 
ATOM      6  C   UNL d   1      54.176  33.946  52.412  0.00  0.00     0.001 C 
ATOM      7  C   UNL d   1      52.785  34.720  51.595  0.00  0.00     0.007 C 
ENDROOT
BRANCH   1   8
ATOM      8  C   UNL d   1      53.414  33.014  53.841  0.00  0.00     0.084 C 
BRANCH   8   9
ATOM      9  N   UNL d   1      53.383  32.198  53.756  0.00  0.00    -0.300 N 
ATOM     10  C   UNL d   1      53.543  31.837  53.027  0.00  0.00     0.100 A 
ATOM     11  C   UNL d   1      53.505  31.020  52.974  0.00  0.00     0.100 A 
ATOM     12  N   UNL d   1      53.315  30.559  53.609  0.00  0.00    -0.297 N 
ATOM     13  C   UNL d   1      53.155  30.919  54.338  0.00  0.00     0.100 A 
ATOM     14  C   UNL d   1      53.186  31.736  54.422  0.00  0.00     0.100 A 
BRANCH  12  15
ATOM     15  C   UNL d   1      53.280  29.721  53.537  0.00  0.00     0.126 C 
BRANCH  15  16
ATOM     16  C   UNL d   1      53.238  29.236  54.206  0.00  0.00     0.253 C 
ATOM     17  O   UNL d   1      53.234  28.424  54.123  0.00  0.00    -0.281 OA
ENDBRANCH  15  16
ENDBRANCH  12  15
ENDBRANCH   8   9
BRANCH   8  18
ATOM     18  C   UNL d   1      53.810  33.362  54.479  0.00  0.00     0.098 A 
ATOM     19  N   UNL d   1      53.385  33.715  55.074  0.00  0.00    -0.243 NA
ATOM     20  C   UNL d   1      53.807  34.053  55.698  0.00  0.00     0.099 A 
ATOM     21  C   UNL d   1      54.588  34.046  55.732  0.00  0.00     0.021 A 
ATOM     22  C   UNL d   1      55.032  33.692  55.135  0.00  0.00     0.003 A 
ATOM     23  C   UNL d   1      54.638  33.345  54.499  0.00  0.00     0.021 A 
ENDBRANCH   8  18
ENDBRANCH   1   8
BRANCH   2  24
ATOM     24  N   UNL d   1      51.780  33.220  53.855  0.00  0.00    -0.201 NA
ATOM     25  C   UNL d   1      50.955  33.302  53.822  0.00  0.00     0.280 C 
ATOM     26  O   UNL d   1      50.492  32.952  54.389  0.00  0.00    -0.265 OA
BRANCH  25  27
ATOM     27  C   UNL d   1      50.603  33.740  53.213  0.00  0.00     0.058 A 
ATOM     28  C   UNL d   1      50.428  33.384  52.494  0.00  0.00     0.005 A 
ATOM     29  C   UNL d   1      50.072  33.824  51.877  0.00  0.00     0.000 A 
ATOM     30  C   UNL d   1      49.896  34.619  51.993  0.00  0.00     0.000 A 
ATOM     31  C   UNL d   1      50.076  34.969  52.719  0.00  0.00     0.000 A 
ATOM     32  C   UNL d   1      50.427  34.540  53.331  0.00  0.00     0.005 A 
ENDBRANCH  25  27
ENDBRANCH   2  24
TORSDOF 7
ENDMDL
MODEL 3
REMARK VINA RESULT:      -2.0      1.369      2.213
REMARK  7 active torsions:
REMARK  status: ('A' for Active; 'I' for Inactive)
REMARK    1  A    between atoms: C_7  and  C_1 
REMARK    2  A    between atoms: N_5  and  C_2 
REMARK       I    between atoms: C_8  and  N_5 
REMARK    3  A    between atoms: N_9  and  C_7 
REMARK    4  A    between atoms: C_11  and  C_7 
REMARK    5  A    between atoms: C_16  and  C_8 
REMARK    6  A    between atoms: C_21  and  N_10 
REMARK    7  A    between atoms: C_27  and  C_21 
ROOT
ATOM      1  C   UNL d   1      53.254  33.237  53.328  0.00  0.00     0.042 A 
ATOM      2  C   UNL d   1      52.988  32.454  53.385  0.00  0.00     0.115 A 
ATOM      3  C   UNL d   1      54.039  33.221  53.130  0.00  0.00     0.009 A 
ATOM      4  S   UNL d   1      53.611  31.967  53.221  0.00  0.00    -0.068 SA
ATOM      5  C   UNL d   1      54.272  32.453  53.061  0.00  0.00     0.031 A 
ATOM      6  C   UNL d   1      54.558  33.908  53.009  0.00  0.00     0.001 C 
ATOM      7  C   UNL d   1      55.019  32.185  52.869  0.00  0.00     0.007 C 
ENDROOT
BRANCH   1   8
ATOM      8  C   UNL d   1      52.747  33.867  53.465  0.00  0.00     0.084 C 
BRANCH   8   9
ATOM      9  N   UNL d   1      52.145  34.001  52.923  0.00  0.00    -0.300 N 
ATOM     10  C   UNL d   1      52.314  34.146  52.124  0.00  0.00     0.100 A 
ATOM     11  C   UNL d   1      51.692  34.277  51.606  0.00  0.00     0.100 A 
ATOM     12  N   UNL d   1      50.923  34.268  51.852  0.00  0.00    -0.297 N 
ATOM     13  C   UNL d   1      50.754  34.123  52.650  0.00  0.00     0.100 A 
ATOM     14  C   UNL d   1      51.356  33.989  53.192  0.00  0.00     0.100 A 
BRANCH  12  15
ATOM     15  C   UNL d   1      50.296  34.404  51.307  0.00  0.00     0.126 C 
BRANCH  15  16
ATOM     16  C   UNL d   1      49.514  34.484  51.566  0.00  0.00     0.253 C 
ATOM     17  O   UNL d   1      48.905  34.529  51.025  0.00  0.00    -0.281 OA
ENDBRANCH  15  16
ENDBRANCH  12  15
ENDBRANCH   8   9
BRANCH   8  18
ATOM     18  C   UNL d   1      52.840  34.353  54.128  0.00  0.00     0.098 A 
ATOM     19  N   UNL d   1      52.816  34.030  54.873  0.00  0.00    -0.243 NA
ATOM     20  C   UNL d   1      52.912  34.539  55.515  0.00  0.00     0.099 A 
ATOM     21  C   UNL d   1      53.021  35.308  55.432  0.00  0.00     0.021 A 
ATOM     22  C   UNL d   1      53.047  35.651  54.682  0.00  0.00     0.003 A 
ATOM     23  C   UNL d   1      52.955  35.166  54.021  0.00  0.00     0.021 A 
ENDBRANCH   8  18
ENDBRANCH   1   8
BRANCH   2  24
ATOM     24  N   UNL d   1      52.217  32.312  53.577  0.00  0.00    -0.201 NA
ATOM     25  C   UNL d   1      51.974  31.522  53.647  0.00  0.00     0.280 C 
ATOM     26  O   UNL d   1      51.204  31.353  53.839  0.00  0.00    -0.265 OA
BRANCH  25  27
ATOM     27  C   UNL d   1      52.514  30.906  53.521  0.00  0.00     0.058 A 
ATOM     28  C   UNL d   1      52.962  30.614  54.143  0.00  0.00     0.005 A 
ATOM     29  C   UNL d   1      53.508  29.991  54.019  0.00  0.00     0.000 A 
ATOM     30  C   UNL d   1      53.595  29.670  53.267  0.00  0.00     0.000 A 
ATOM     31  C   UNL d   1      53.140  29.970  52.647  0.00  0.00     0.000 A 
ATOM     32  C   UNL d   1      52.600  30.584  52.764  0.00  0.00     0.005 A 
ENDBRANCH  25  27
ENDBRANCH   2  24
TORSDOF 7
ENDMDL
MODEL 4
REMARK VINA RESULT:      -0.9      1.659      3.897
REMARK  7 active torsions:
REMARK  status: ('A' for Active; 'I' for Inactive)
REMARK    1  A    between atoms: C_7  and  C_1 
REMARK    2  A    between atoms: N_5  and  C_2 
REMARK       I    between atoms: C_8  and  N_5 
REMARK    3  A    between atoms: N_9  and  C_7 
REMARK    4  A    between atoms: C_11  and  C_7 
REMARK    5  A    between atoms: C_16  and  C_8 
REMARK    6  A    between atoms: C_21  and  N_10 
REMARK    7  A    between atoms: C_27  and  C_21 
ROOT
ATOM      1  C   UNL d   1      52.487  33.757  53.646  0.00  0.00     0.042 A 
ATOM      2  C   UNL d   1      53.311  33.780  53.742  0.00  0.00     0.115 A 
ATOM      3  C   UNL d   1      52.154  34.206  54.230  0.00  0.00     0.009 A 
ATOM      4  S   UNL d   1      53.473  34.243  54.384  0.00  0.00    -0.068 SA
ATOM      5  C   UNL d   1      52.742  34.510  54.689  0.00  0.00     0.031 A 
ATOM      6  C   UNL d   1      51.306  34.348  54.357  0.00  0.00     0.001 C 
ATOM      7  C   UNL d   1      52.652  34.995  55.341  0.00  0.00     0.007 C 
ENDROOT
BRANCH   1   8
ATOM      8  C   UNL d   1      52.144  33.328  53.037  0.00  0.00     0.084 C 
BRANCH   8   9
ATOM      9  N   UNL d   1      52.165  32.508  53.083  0.00  0.00    -0.300 N 
ATOM     10  C   UNL d   1      52.630  32.063  52.561  0.00  0.00     0.100 A 
ATOM     11  C   UNL d   1      52.630  31.245  52.631  0.00  0.00     0.100 A 
ATOM     12  N   UNL d   1      52.193  30.865  53.194  0.00  0.00    -0.297 N 
ATOM     13  C   UNL d   1      51.729  31.311  53.716  0.00  0.00     0.100 A 
ATOM     14  C   UNL d   1      51.708  32.131  53.670  0.00  0.00     0.100 A 
BRANCH  12  15
ATOM     15  C   UNL d   1      52.205  30.026  53.252  0.00  0.00     0.126 C 
BRANCH  15  16
ATOM     16  C   UNL d   1      52.867  29.628  53.550  0.00  0.00     0.253 C 
ATOM     17  O   UNL d   1      52.815  28.838  53.750  0.00  0.00    -0.281 OA
ENDBRANCH  15  16
ENDBRANCH  12  15
ENDBRANCH   8   9
BRANCH   8  18
ATOM     18  C   UNL d   1      51.788  33.710  52.394  0.00  0.00     0.098 A 
ATOM     19  N   UNL d   1      52.249  34.057  51.824  0.00  0.00    -0.243 NA
ATOM     20  C   UNL d   1      51.866  34.431  51.195  0.00  0.00     0.099 A 
ATOM     21  C   UNL d   1      51.087  34.459  51.133  0.00  0.00     0.021 A 
ATOM     22  C   UNL d   1      50.606  34.111  51.704  0.00  0.00     0.003 A 
ATOM     23  C   UNL d   1      50.961  33.730  52.344  0.00  0.00     0.021 A 
ENDBRANCH   8  18
ENDBRANCH   1   8
BRANCH   2  24
ATOM     24  N   UNL d   1      53.780  33.374  53.227  0.00  0.00    -0.201 NA
ATOM     25  C   UNL d   1      54.557  33.205  53.461  0.00  0.00     0.280 C 
ATOM     26  O   UNL d   1      55.049  32.797  52.961  0.00  0.00    -0.265 OA
BRANCH  25  27
ATOM     27  C   UNL d   1      54.833  33.451  54.203  0.00  0.00     0.058 A 
ATOM     28  C   UNL d   1      54.682  33.000  54.871  0.00  0.00     0.005 A 
ATOM     29  C   UNL d   1      54.959  33.246  55.622  0.00  0.00     0.000 A 
ATOM     30  C   UNL d   1      55.387  33.945  55.689  0.00  0.00     0.000 A 
ATOM     31  C   UNL d   1      55.535  34.392  55.011  0.00  0.00     0.000 A 
ATOM     32  C   UNL d   1      55.264  34.154  54.268  0.00  0.00     0.005 A 
ENDBRANCH  25  27
ENDBRANCH   2  24
TORSDOF 7
ENDMDL
MODEL 5
REMARK VINA RESULT:      -0.2      1.460      3.508
REMARK  7 active torsions:
REMARK  status: ('A' for Active; 'I' for Inactive)
REMARK    1  A    between atoms: C_7  and  C_1 
REMARK    2  A    between atoms: N_5  and  C_2 
REMARK       I    between atoms: C_8  and  N_5 
REMARK    3  A    between atoms: N_9  and  C_7 
REMARK    4  A    between atoms: C_11  and  C_7 
REMARK    5  A    between atoms: C_16  and  C_8 
REMARK    6  A    between atoms: C_21  and  N_10 
REMARK    7  A    between atoms: C_27  and  C_21 
ROOT
ATOM      1  C   UNL d   1      53.693  32.358  53.419  0.00  0.00     0.042 A 
ATOM      2  C   UNL d   1      53.844  32.869  54.053  0.00  0.00     0.115 A 
ATOM      3  C   UNL d   1      54.367  32.302  52.975  0.00  0.00     0.009 A 
ATOM      4  S   UNL d   1      54.609  33.122  53.991  0.00  0.00    -0.068 SA
ATOM      5  C   UNL d   1      54.936  32.762  53.311  0.00  0.00     0.031 A 
ATOM      6  C   UNL d   1      54.477  31.829  52.254  0.00  0.00     0.001 C 
ATOM      7  C   UNL d   1      55.700  32.867  53.044  0.00  0.00     0.007 C 
ENDROOT
BRANCH   1   8
ATOM      8  C   UNL d   1      52.957  32.006  53.326  0.00  0.00     0.084 C 
BRANCH   8   9
ATOM      9  N   UNL d   1      52.331  32.480  53.087  0.00  0.00    -0.300 N 
ATOM     10  C   UNL d   1      52.402  32.984  52.432  0.00  0.00     0.100 A 
ATOM     11  C   UNL d   1      51.759  33.446  52.217  0.00  0.00     0.100 A 
ATOM     12  N   UNL d   1      51.063  33.424  52.625  0.00  0.00    -0.297 N 
ATOM     13  C   UNL d   1      50.992  32.921  53.280  0.00  0.00     0.100 A 
ATOM     14  C   UNL d   1      51.618  32.446  53.518  0.00  0.00     0.100 A 
BRANCH  12  15
ATOM     15  C   UNL d   1      50.413  33.905  52.391  0.00  0.00     0.126 C 
BRANCH  15  16
ATOM     16  C   UNL d   1      50.127  34.505  52.883  0.00  0.00     0.253 C 
ATOM     17  O   UNL d   1      49.468  34.935  52.664  0.00  0.00    -0.281 OA
ENDBRANCH  15  16
ENDBRANCH  12  15
ENDBRANCH   8   9
BRANCH   8  18
ATOM     18  C   UNL d   1      52.850  31.197  53.468  0.00  0.00     0.098 A 
ATOM     19  N   UNL d   1      52.901  30.910  54.225  0.00  0.00    -0.243 NA
ATOM     20  C   UNL d   1      52.790  30.099  54.336  0.00  0.00     0.099 A 
ATOM     21  C   UNL d   1      52.639  29.609  53.746  0.00  0.00     0.021 A 
ATOM     22  C   UNL d   1      52.584  29.887  52.972  0.00  0.00     0.003 A 
ATOM     23  C   UNL d   1      52.691  30.693  52.830  0.00  0.00     0.021 A 
ENDBRANCH   8  18
ENDBRANCH   1   8
BRANCH   2  24
ATOM     24  N   UNL d   1      53.258  33.023  54.586  0.00  0.00    -0.201 NA
ATOM     25  C   UNL d   1      53.433  33.528  55.220  0.00  0.00     0.280 C 
ATOM     26  O   UNL d   1      52.860  33.698  55.770  0.00  0.00    -0.265 OA
BRANCH  25  27
ATOM     27  C   UNL d   1      54.189  33.859  55.295  0.00  0.00     0.058 A 
ATOM     28  C   UNL d   1      54.358  34.586  54.956  0.00  0.00     0.005 A 
ATOM     29  C   UNL d   1      55.121  34.923  55.030  0.00  0.00     0.000 A 
ATOM     30  C   UNL d   1      55.705  34.521  55.447  0.00  0.00     0.000 A 
ATOM     31  C   UNL d   1      55.526  33.789  55.784  0.00  0.00     0.000 A 
ATOM     32  C   UNL d   1      54.775  33.452  55.714  0.00  0.00     0.005 A 
ENDBRANCH  25  27
ENDBRANCH   2  24
TORSDOF 7
ENDMDL
MODEL 6
REMARK VINA RESULT:       0.2      1.590      4.321
REMARK  7 active torsions:
REMARK  status: ('A' for Active; 'I' for Inactive)
REMARK    1  A    between atoms: C_7  and  C_1 
REMARK    2  A    between atoms: N_5  and  C_2 
REMARK       I    between atoms: C_8  and  N_5 
REMARK    3  A    between atoms: N_9  and  C_7 
REMARK    4  A    between atoms: C_11  and  C_7 
REMARK    5  A    between atoms: C_16  and  C_8 
REMARK    6  A    between atoms: C_21  and  N_10 
REMARK    7  A    between atoms: C_27  and  C_21 
ROOT
ATOM      1  C   UNL d   1      53.716  32.506  53.401  0.00  0.00     0.042 A 
ATOM      2  C   UNL d   1      53.833  33.095  53.973  0.00  0.00     0.115 A 
ATOM      3  C   UNL d   1      54.403  32.423  52.982  0.00  0.00     0.009 A 
ATOM      4  S   UNL d   1      54.590  33.367  53.897  0.00  0.00    -0.068 SA
ATOM      5  C   UNL d   1      54.946  32.941  53.272  0.00  0.00     0.031 A 
ATOM      6  C   UNL d   1      54.547  31.871  52.326  0.00  0.00     0.001 C 
ATOM      7  C   UNL d   1      55.714  33.042  53.010  0.00  0.00     0.007 C 
ENDROOT
BRANCH   1   8
ATOM      8  C   UNL d   1      52.996  32.118  53.335  0.00  0.00     0.084 C 
BRANCH   8   9
ATOM      9  N   UNL d   1      52.962  31.328  53.559  0.00  0.00    -0.300 N 
ATOM     10  C   UNL d   1      53.037  31.106  54.354  0.00  0.00     0.100 A 
ATOM     11  C   UNL d   1      52.999  30.309  54.547  0.00  0.00     0.100 A 
ATOM     12  N   UNL d   1      52.891  29.739  53.986  0.00  0.00    -0.297 N 
ATOM     13  C   UNL d   1      52.816  29.961  53.190  0.00  0.00     0.100 A 
ATOM     14  C   UNL d   1      52.850  30.751  52.967  0.00  0.00     0.100 A 
BRANCH  12  15
ATOM     15  C   UNL d   1      52.854  28.926  54.201  0.00  0.00     0.126 C 
BRANCH  15  16
ATOM     16  C   UNL d   1      53.359  28.614  54.777  0.00  0.00     0.253 C 
ATOM     17  O   UNL d   1      53.357  27.812  54.932  0.00  0.00    -0.281 OA
ENDBRANCH  15  16
ENDBRANCH  12  15
ENDBRANCH   8   9
BRANCH   8  18
ATOM     18  C   UNL d   1      52.324  32.510  53.052  0.00  0.00     0.098 A 
ATOM     19  N   UNL d   1      52.367  32.940  52.365  0.00  0.00    -0.243 NA
ATOM     20  C   UNL d   1      51.681  33.320  52.106  0.00  0.00     0.099 A 
ATOM     21  C   UNL d   1      51.005  33.280  52.495  0.00  0.00     0.021 A 
ATOM     22  C   UNL d   1      50.946  32.848  53.195  0.00  0.00     0.003 A 
ATOM     23  C   UNL d   1      51.616  32.457  53.477  0.00  0.00     0.021 A 
ENDBRANCH   8  18
ENDBRANCH   1   8
BRANCH   2  24
ATOM     24  N   UNL d   1      53.228  33.289  54.470  0.00  0.00    -0.201 NA
ATOM     25  C   UNL d   1      53.408  33.742  55.141  0.00  0.00     0.280 C 
ATOM     26  O   UNL d   1      52.817  33.950  55.657  0.00  0.00    -0.265 OA
BRANCH  25  27
ATOM     27  C   UNL d   1      54.188  33.982  55.286  0.00  0.00     0.058 A 
ATOM     28  C   UNL d   1      54.467  34.689  54.979  0.00  0.00     0.005 A 
ATOM     29  C   UNL d   1      55.255  34.935  55.124  0.00  0.00     0.000 A 
ATOM     30  C   UNL d   1      55.751  34.463  55.579  0.00  0.00     0.000 A 
ATOM     31  C   UNL d   1      55.461  33.753  55.885  0.00  0.00     0.000 A 
ATOM     32  C   UNL d   1      54.686  33.506  55.744  0.00  0.00     0.005 A 
ENDBRANCH  25  27
ENDBRANCH   2  24
TORSDOF 7
ENDMDL
