MODEL 1
REMARK VINA RESULT:      21.5      0.000      0.000
REMARK  7 active torsions:
REMARK  status: ('A' for Active; 'I' for Inactive)
REMARK    1  A    between atoms: S_2  and  C_1 
REMARK    2  A    between atoms: C_8  and  S_2 
REMARK    3  A    between atoms: N_16  and  C_6 
REMARK    4  A    between atoms: N_9  and  C_22 
REMARK    5  A    between atoms: C_24  and  N_16 
REMARK    6  A    between atoms: C_22  and  C_23 
REMARK    7  A    between atoms: C_23  and  C_24 
ROOT
ATOM      1  C   UNL d   1      45.842 -16.578  44.212  0.00  0.00     0.187 A 
ATOM      2  N   UNL d   1      46.371 -15.974  44.358  0.00  0.00    -0.208 NA
ATOM      3  C   UNL d   1      45.097 -16.343  44.473  0.00  0.00     0.118 A 
ATOM      4  S   UNL d   1      45.170 -15.593  44.781  0.00  0.00    -0.035 SA
ATOM      5  C   UNL d   1      45.961 -15.358  44.712  0.00  0.00     0.196 A 
ATOM      6 CL   UNL d   1      44.404 -16.781  44.433  0.00  0.00    -0.073 Cl
ENDROOT
BRANCH   1   7
ATOM      7  S   UNL d   1      46.023 -17.300  43.862  0.00  0.00     0.228 S 
ATOM      8  O   UNL d   1      46.459 -16.933  43.274  0.00  0.00    -0.216 OA
ATOM      9  O   UNL d   1      45.582 -17.671  44.455  0.00  0.00    -0.216 OA
BRANCH   7  10
ATOM     10  C   UNL d   1      46.179 -18.045  43.545  0.00  0.00     0.089 A 
ATOM     11  C   UNL d   1      46.318 -18.139  42.743  0.00  0.00     0.011 A 
ATOM     12  C   UNL d   1      46.474 -18.884  42.426  0.00  0.00     0.001 A 
ATOM     13  C   UNL d   1      46.490 -19.547  42.923  0.00  0.00     0.000 A 
ATOM     14  C   UNL d   1      46.351 -19.459  43.733  0.00  0.00     0.001 A 
ATOM     15  C   UNL d   1      46.646 -20.297  42.613  0.00  0.00     0.000 C 
ATOM     16  C   UNL d   1      46.195 -18.714  44.049  0.00  0.00     0.011 A 
ENDBRANCH   7  10
ENDBRANCH   1   7
BRANCH   5  17
ATOM     17  N   UNL d   1      46.282 -14.636  44.954  0.00  0.00    -0.220 NA
BRANCH  17  18
ATOM     18  C   UNL d   1      46.407 -14.039  44.398  0.00  0.00     0.103 C 
BRANCH  18  19
ATOM     19  C   UNL d   1      46.105 -13.283  44.537  0.00  0.00     0.040 C 
BRANCH  19  20
ATOM     20  C   UNL d   1      46.178 -12.701  43.956  0.00  0.00     0.083 C 
BRANCH  20  21
ATOM     21  N   UNL d   1      45.523 -12.496  43.505  0.00  0.00    -0.285 N 
ATOM     22  C   UNL d   1      45.463 -12.534  42.691  0.00  0.00     0.183 A 
ATOM     23  N   UNL d   1      44.713 -12.277  42.477  0.00  0.00    -0.222 NA
ATOM     24  C   UNL d   1      44.313 -12.081  43.161  0.00  0.00     0.120 A 
ATOM     25  C   UNL d   1      44.811 -12.215  43.802  0.00  0.00     0.102 A 
ENDBRANCH  20  21
ENDBRANCH  19  20
ENDBRANCH  18  19
ENDBRANCH  17  18
ENDBRANCH   5  17
TORSDOF 7
ENDMDL
