MODEL 1
REMARK VINA RESULT:     101.0      0.000      0.000
REMARK  4 active torsions:
REMARK  status: ('A' for Active; 'I' for Inactive)
REMARK    1  A    between atoms: N_10  and  C_3 
REMARK    2  A    between atoms: C_12  and  C_5 
REMARK    3  A    between atoms: C_11  and  C_8 
REMARK    4  A    between atoms: C_13  and  N_10 
ROOT
ATOM      1  C   UNL d   1      58.202  38.944  55.192  0.00  0.00     0.168 A 
ATOM      2  N   UNL d   1      57.945  38.148  55.144  0.00  0.00    -0.184 N 
ATOM      3  C   UNL d   1      57.231  37.995  54.801  0.00  0.00     0.217 A 
ATOM      4  N   UNL d   1      57.731  39.541  54.895  0.00  0.00    -0.231 NA
ATOM      5  C   UNL d   1      58.914  39.120  55.531  0.00  0.00     0.057 A 
ATOM      6  N   UNL d   1      59.125  37.741  55.776  0.00  0.00    -0.160 NA
ATOM      7  C   UNL d   1      56.750  38.587  54.501  0.00  0.00     0.067 A 
ATOM      8  C   UNL d   1      57.004  39.370  54.548  0.00  0.00     0.064 A 
ATOM      9  C   UNL d   1      59.378  38.525  55.824  0.00  0.00     0.124 A 
ENDROOT
BRANCH   5  10
ATOM     10  C   UNL d   1      59.168  39.904  55.579  0.00  0.00     0.004 A 
ATOM     11  C   UNL d   1      59.078  40.304  56.277  0.00  0.00     0.000 A 
ATOM     12  C   UNL d   1      59.332  41.088  56.325  0.00  0.00     0.000 A 
ATOM     13  C   UNL d   1      59.667  41.446  55.673  0.00  0.00     0.000 A 
ATOM     14  C   UNL d   1      59.751  41.034  54.982  0.00  0.00     0.000 A 
ATOM     15  C   UNL d   1      59.497  40.250  54.934  0.00  0.00     0.000 A 
ENDBRANCH   5  10
BRANCH   3  16
ATOM     16  N   UNL d   1      56.969  37.186  54.752  0.00  0.00    -0.383 NA
BRANCH  16  17
ATOM     17  C   UNL d   1      56.708  36.382  54.707  0.00  0.00     0.134 C 
ATOM     18  C   UNL d   1      57.095  35.845  54.178  0.00  0.00     0.035 C 
ATOM     19  C   UNL d   1      56.057  36.120  55.194  0.00  0.00     0.035 C 
ENDBRANCH  16  17
ENDBRANCH   3  16
BRANCH   8  20
ATOM     20  C   UNL d   1      56.515  39.998  54.240  0.00  0.00     0.036 C 
ATOM     21  C   UNL d   1      56.034  40.456  54.770  0.00  0.00     0.006 C 
ATOM     22  C   UNL d   1      56.512  40.162  53.400  0.00  0.00     0.006 C 
ATOM     23  C   UNL d   1      56.034  40.616  53.930  0.00  0.00     0.006 C 
ENDBRANCH   8  20
TORSDOF 4
ENDMDL
