MODEL 1
REMARK VINA RESULT:     -11.3      0.000      0.000
REMARK  2 active torsions:
REMARK  status: ('A' for Active; 'I' for Inactive)
REMARK    1  A    between atoms: C_10  and  N_3 
REMARK    2  A    between atoms: C_11  and  C_4 
ROOT
ATOM      1  C   UNL d   1      52.510  32.634  53.145  0.00  0.00     0.154 A 
ATOM      2  C   UNL d   1      53.195  32.600  53.592  0.00  0.00     0.094 A 
ATOM      3  N   UNL d   1      52.219  33.407  53.177  0.00  0.00    -0.290 N 
ATOM      4  C   UNL d   1      53.334  33.353  53.905  0.00  0.00     0.025 A 
ATOM      5  C   UNL d   1      52.733  33.846  53.648  0.00  0.00     0.082 A 
ATOM      6  N   UNL d   1      52.230  31.959  52.760  0.00  0.00    -0.206 NA
ATOM      7  C   UNL d   1      53.613  31.892  53.663  0.00  0.00     0.284 A 
ATOM      8  N   UNL d   1      53.333  31.217  53.279  0.00  0.00    -0.186 NA
ATOM      9  C   UNL d   1      52.648  31.250  52.831  0.00  0.00     0.203 A 
ATOM     10  O   UNL d   1      54.298  31.859  54.111  0.00  0.00    -0.265 OA
ENDROOT
BRANCH   3  11
ATOM     11  C   UNL d   1      51.555  33.720  52.825  0.00  0.00     0.065 A 
ATOM     12  C   UNL d   1      51.597  34.028  52.061  0.00  0.00     0.018 A 
ATOM     13  C   UNL d   1      50.924  34.345  51.704  0.00  0.00     0.002 A 
ATOM     14  C   UNL d   1      50.197  34.357  52.115  0.00  0.00     0.000 A 
ATOM     15  C   UNL d   1      50.164  34.047  52.880  0.00  0.00     0.002 A 
ATOM     16  C   UNL d   1      50.838  33.731  53.233  0.00  0.00     0.018 A 
ENDBRANCH   3  11
BRANCH   4  17
ATOM     17  C   UNL d   1      54.004  33.447  54.379  0.00  0.00     0.002 A 
ATOM     18  C   UNL d   1      54.726  33.662  54.040  0.00  0.00     0.000 A 
ATOM     19  C   UNL d   1      55.395  33.756  54.514  0.00  0.00     0.000 A 
ATOM     20  C   UNL d   1      55.341  33.635  55.326  0.00  0.00     0.000 A 
ATOM     21  C   UNL d   1      54.618  33.420  55.666  0.00  0.00     0.000 A 
ATOM     22  C   UNL d   1      53.953  33.327  55.195  0.00  0.00     0.000 A 
ENDBRANCH   4  17
TORSDOF 2
ENDMDL
MODEL 2
REMARK VINA RESULT:     -10.6      0.861      3.682
REMARK  2 active torsions:
REMARK  status: ('A' for Active; 'I' for Inactive)
REMARK    1  A    between atoms: C_10  and  N_3 
REMARK    2  A    between atoms: C_11  and  C_4 
ROOT
ATOM      1  C   UNL d   1      53.332  32.571  53.638  0.00  0.00     0.154 A 
ATOM      2  C   UNL d   1      52.639  32.698  53.221  0.00  0.00     0.094 A 
ATOM      3  N   UNL d   1      53.534  33.276  54.021  0.00  0.00    -0.290 N 
ATOM      4  C   UNL d   1      52.407  33.483  53.341  0.00  0.00     0.025 A 
ATOM      5  C   UNL d   1      52.959  33.834  53.833  0.00  0.00     0.082 A 
ATOM      6  N   UNL d   1      53.699  31.832  53.623  0.00  0.00    -0.206 NA
ATOM      7  C   UNL d   1      52.300  32.088  52.780  0.00  0.00     0.284 A 
ATOM      8  N   UNL d   1      52.667  31.348  52.765  0.00  0.00    -0.186 NA
ATOM      9  C   UNL d   1      53.359  31.221  53.183  0.00  0.00     0.203 A 
ATOM     10  O   UNL d   1      51.607  32.215  52.363  0.00  0.00    -0.265 OA
ENDROOT
BRANCH   3  11
ATOM     11  C   UNL d   1      54.173  33.434  54.502  0.00  0.00     0.065 A 
ATOM     12  C   UNL d   1      54.103  33.354  55.320  0.00  0.00     0.018 A 
ATOM     13  C   UNL d   1      54.749  33.514  55.809  0.00  0.00     0.002 A 
ATOM     14  C   UNL d   1      55.476  33.756  55.476  0.00  0.00     0.000 A 
ATOM     15  C   UNL d   1      55.536  33.833  54.656  0.00  0.00     0.002 A 
ATOM     16  C   UNL d   1      54.889  33.673  54.172  0.00  0.00     0.018 A 
ENDBRANCH   3  11
BRANCH   4  17
ATOM     17  C   UNL d   1      51.715  33.733  52.967  0.00  0.00     0.002 A 
ATOM     18  C   UNL d   1      50.984  33.645  53.344  0.00  0.00     0.000 A 
ATOM     19  C   UNL d   1      50.292  33.895  52.970  0.00  0.00     0.000 A 
ATOM     20  C   UNL d   1      50.331  34.233  52.221  0.00  0.00     0.000 A 
ATOM     21  C   UNL d   1      51.062  34.322  51.844  0.00  0.00     0.000 A 
ATOM     22  C   UNL d   1      51.750  34.073  52.216  0.00  0.00     0.000 A 
ENDBRANCH   4  17
TORSDOF 2
ENDMDL
MODEL 3
REMARK VINA RESULT:      -9.8      1.344      3.755
REMARK  2 active torsions:
REMARK  status: ('A' for Active; 'I' for Inactive)
REMARK    1  A    between atoms: C_10  and  N_3 
REMARK    2  A    between atoms: C_11  and  C_4 
ROOT
ATOM      1  C   UNL d   1      53.326  32.388  53.938  0.00  0.00     0.154 A 
ATOM      2  C   UNL d   1      52.884  33.044  53.726  0.00  0.00     0.094 A 
ATOM      3  N   UNL d   1      52.981  31.722  53.588  0.00  0.00    -0.290 N 
ATOM      4  C   UNL d   1      52.262  32.791  53.244  0.00  0.00     0.025 A 
ATOM      5  C   UNL d   1      52.325  31.978  53.161  0.00  0.00     0.082 A 
ATOM      6  N   UNL d   1      53.989  32.469  54.422  0.00  0.00    -0.206 NA
ATOM      7  C   UNL d   1      53.097  33.794  53.995  0.00  0.00     0.284 A 
ATOM      8  N   UNL d   1      53.761  33.877  54.480  0.00  0.00    -0.186 NA
ATOM      9  C   UNL d   1      54.202  33.220  54.692  0.00  0.00     0.203 A 
ATOM     10  O   UNL d   1      52.656  34.451  53.783  0.00  0.00    -0.265 OA
ENDROOT
BRANCH   3  11
ATOM     11  C   UNL d   1      53.212  30.942  53.631  0.00  0.00     0.065 A 
ATOM     12  C   UNL d   1      53.698  30.623  53.046  0.00  0.00     0.018 A 
ATOM     13  C   UNL d   1      53.933  29.832  53.089  0.00  0.00     0.002 A 
ATOM     14  C   UNL d   1      53.680  29.353  53.724  0.00  0.00     0.000 A 
ATOM     15  C   UNL d   1      53.193  29.682  54.305  0.00  0.00     0.002 A 
ATOM     16  C   UNL d   1      52.961  30.471  54.259  0.00  0.00     0.018 A 
ENDBRANCH   3  11
BRANCH   4  17
ATOM     17  C   UNL d   1      51.742  33.367  52.964  0.00  0.00     0.002 A 
ATOM     18  C   UNL d   1      51.046  33.534  53.377  0.00  0.00     0.000 A 
ATOM     19  C   UNL d   1      50.526  34.111  53.097  0.00  0.00     0.000 A 
ATOM     20  C   UNL d   1      50.702  34.520  52.405  0.00  0.00     0.000 A 
ATOM     21  C   UNL d   1      51.399  34.352  51.992  0.00  0.00     0.000 A 
ATOM     22  C   UNL d   1      51.916  33.779  52.270  0.00  0.00     0.000 A 
ENDBRANCH   4  17
TORSDOF 2
ENDMDL
MODEL 4
REMARK VINA RESULT:      -9.7      1.090      2.729
REMARK  2 active torsions:
REMARK  status: ('A' for Active; 'I' for Inactive)
REMARK    1  A    between atoms: C_10  and  N_3 
REMARK    2  A    between atoms: C_11  and  C_4 
ROOT
ATOM      1  C   UNL d   1      52.839  32.243  53.454  0.00  0.00     0.154 A 
ATOM      2  C   UNL d   1      53.262  32.854  53.798  0.00  0.00     0.094 A 
ATOM      3  N   UNL d   1      53.252  31.539  53.586  0.00  0.00    -0.290 N 
ATOM      4  C   UNL d   1      53.940  32.534  54.146  0.00  0.00     0.025 A 
ATOM      5  C   UNL d   1      53.930  31.725  54.014  0.00  0.00     0.082 A 
ATOM      6  N   UNL d   1      52.130  32.396  53.060  0.00  0.00    -0.206 NA
ATOM      7  C   UNL d   1      52.983  33.630  53.755  0.00  0.00     0.284 A 
ATOM      8  N   UNL d   1      52.273  33.783  53.362  0.00  0.00    -0.186 NA
ATOM      9  C   UNL d   1      51.850  33.172  53.018  0.00  0.00     0.203 A 
ATOM     10  O   UNL d   1      53.406  34.241  54.099  0.00  0.00    -0.265 OA
ENDROOT
BRANCH   3  11
ATOM     11  C   UNL d   1      53.061  30.781  53.355  0.00  0.00     0.065 A 
ATOM     12  C   UNL d   1      53.142  30.557  52.566  0.00  0.00     0.018 A 
ATOM     13  C   UNL d   1      52.949  29.789  52.331  0.00  0.00     0.002 A 
ATOM     14  C   UNL d   1      52.671  29.237  52.892  0.00  0.00     0.000 A 
ATOM     15  C   UNL d   1      52.593  29.470  53.681  0.00  0.00     0.002 A 
ATOM     16  C   UNL d   1      52.787  30.238  53.911  0.00  0.00     0.018 A 
ENDBRANCH   3  11
BRANCH   4  17
ATOM     17  C   UNL d   1      54.451  33.057  54.529  0.00  0.00     0.002 A 
ATOM     18  C   UNL d   1      55.067  33.415  54.110  0.00  0.00     0.000 A 
ATOM     19  C   UNL d   1      55.579  33.938  54.493  0.00  0.00     0.000 A 
ATOM     20  C   UNL d   1      55.474  34.102  55.292  0.00  0.00     0.000 A 
ATOM     21  C   UNL d   1      54.857  33.743  55.711  0.00  0.00     0.000 A 
ATOM     22  C   UNL d   1      54.349  33.223  55.331  0.00  0.00     0.000 A 
ENDBRANCH   4  17
TORSDOF 2
ENDMDL
MODEL 5
REMARK VINA RESULT:      -9.6      1.066      2.360
REMARK  2 active torsions:
REMARK  status: ('A' for Active; 'I' for Inactive)
REMARK    1  A    between atoms: C_10  and  N_3 
REMARK    2  A    between atoms: C_11  and  C_4 
ROOT
ATOM      1  C   UNL d   1      52.719  33.202  53.680  0.00  0.00     0.154 A 
ATOM      2  C   UNL d   1      53.133  32.508  53.813  0.00  0.00     0.094 A 
ATOM      3  N   UNL d   1      52.092  33.033  53.167  0.00  0.00    -0.290 N 
ATOM      4  C   UNL d   1      52.766  31.903  53.384  0.00  0.00     0.025 A 
ATOM      5  C   UNL d   1      52.127  32.230  52.989  0.00  0.00     0.082 A 
ATOM      6  N   UNL d   1      52.958  33.905  54.038  0.00  0.00    -0.206 NA
ATOM      7  C   UNL d   1      53.794  32.505  54.307  0.00  0.00     0.284 A 
ATOM      8  N   UNL d   1      54.033  33.209  54.666  0.00  0.00    -0.186 NA
ATOM      9  C   UNL d   1      53.619  33.903  54.533  0.00  0.00     0.203 A 
ATOM     10  O   UNL d   1      54.208  31.811  54.440  0.00  0.00    -0.265 OA
ENDROOT
BRANCH   3  11
ATOM     11  C   UNL d   1      51.523  33.534  52.870  0.00  0.00     0.065 A 
ATOM     12  C   UNL d   1      51.656  33.937  52.163  0.00  0.00     0.018 A 
ATOM     13  C   UNL d   1      51.080  34.446  51.860  0.00  0.00     0.002 A 
ATOM     14  C   UNL d   1      50.361  34.554  52.269  0.00  0.00     0.000 A 
ATOM     15  C   UNL d   1      50.236  34.147  52.977  0.00  0.00     0.002 A 
ATOM     16  C   UNL d   1      50.813  33.640  53.275  0.00  0.00     0.018 A 
ENDBRANCH   3  11
BRANCH   4  17
ATOM     17  C   UNL d   1      53.095  31.148  53.438  0.00  0.00     0.002 A 
ATOM     18  C   UNL d   1      52.826  30.619  54.012  0.00  0.00     0.000 A 
ATOM     19  C   UNL d   1      53.156  29.864  54.066  0.00  0.00     0.000 A 
ATOM     20  C   UNL d   1      53.753  29.639  53.546  0.00  0.00     0.000 A 
ATOM     21  C   UNL d   1      54.022  30.170  52.971  0.00  0.00     0.000 A 
ATOM     22  C   UNL d   1      53.694  30.920  52.917  0.00  0.00     0.000 A 
ENDBRANCH   4  17
TORSDOF 2
ENDMDL
MODEL 6
REMARK VINA RESULT:      -9.0      1.260      3.755
REMARK  2 active torsions:
REMARK  status: ('A' for Active; 'I' for Inactive)
REMARK    1  A    between atoms: C_10  and  N_3 
REMARK    2  A    between atoms: C_11  and  C_4 
ROOT
ATOM      1  C   UNL d   1      53.296  32.910  53.694  0.00  0.00     0.154 A 
ATOM      2  C   UNL d   1      52.955  32.233  53.384  0.00  0.00     0.094 A 
ATOM      3  N   UNL d   1      53.963  32.687  54.128  0.00  0.00    -0.290 N 
ATOM      4  C   UNL d   1      53.409  31.584  53.625  0.00  0.00     0.025 A 
ATOM      5  C   UNL d   1      54.027  31.868  54.082  0.00  0.00     0.082 A 
ATOM      6  N   UNL d   1      52.962  33.650  53.546  0.00  0.00    -0.206 NA
ATOM      7  C   UNL d   1      52.274  32.283  52.921  0.00  0.00     0.284 A 
ATOM      8  N   UNL d   1      51.939  33.023  52.772  0.00  0.00    -0.186 NA
ATOM      9  C   UNL d   1      52.280  33.700  53.082  0.00  0.00     0.203 A 
ATOM     10  O   UNL d   1      51.934  31.605  52.612  0.00  0.00    -0.265 OA
ENDROOT
BRANCH   3  11
ATOM     11  C   UNL d   1      54.487  33.155  54.541  0.00  0.00     0.065 A 
ATOM     12  C   UNL d   1      55.143  33.477  54.159  0.00  0.00     0.018 A 
ATOM     13  C   UNL d   1      55.675  33.951  54.576  0.00  0.00     0.002 A 
ATOM     14  C   UNL d   1      55.550  34.108  55.386  0.00  0.00     0.000 A 
ATOM     15  C   UNL d   1      54.890  33.782  55.761  0.00  0.00     0.002 A 
ATOM     16  C   UNL d   1      54.362  33.308  55.341  0.00  0.00     0.018 A 
ENDBRANCH   3  11
BRANCH   4  17
ATOM     17  C   UNL d   1      53.163  30.838  53.373  0.00  0.00     0.002 A 
ATOM     18  C   UNL d   1      52.703  30.363  53.869  0.00  0.00     0.000 A 
ATOM     19  C   UNL d   1      52.458  29.616  53.618  0.00  0.00     0.000 A 
ATOM     20  C   UNL d   1      52.672  29.345  52.871  0.00  0.00     0.000 A 
ATOM     21  C   UNL d   1      53.133  29.820  52.375  0.00  0.00     0.000 A 
ATOM     22  C   UNL d   1      53.377  30.562  52.625  0.00  0.00     0.000 A 
ENDBRANCH   4  17
TORSDOF 2
ENDMDL
