MODEL 1
REMARK VINA RESULT:       5.8      0.000      0.000
REMARK  5 active torsions:
REMARK  status: ('A' for Active; 'I' for Inactive)
REMARK    1  A    between atoms: C_7  and  N_2 
REMARK    2  A    between atoms: C_8  and  C_7 
REMARK    3  A    between atoms: C_13  and  C_8 
REMARK    4  A    between atoms: C_9  and  O_11 
REMARK    5  A    between atoms: O_11  and  C_13 
ROOT
ATOM      1  C   UNL d   1      46.463 -19.364  44.133  0.00  0.00     0.378 A 
ATOM      2  N   UNL d   1      46.540 -18.680  43.668  0.00  0.00    -0.251 N 
ATOM      3  O   UNL d   1      46.442 -20.014  43.630  0.00  0.00    -0.258 OA
ATOM      4  C   UNL d   1      46.566 -18.922  42.872  0.00  0.00     0.092 A 
ATOM      5  C   UNL d   1      46.505 -19.744  42.851  0.00  0.00     0.121 A 
ATOM      6  O   UNL d   1      46.418 -19.379  44.955  0.00  0.00    -0.237 OA
ATOM      7  C   UNL d   1      46.636 -18.488  42.175  0.00  0.00     0.020 A 
ATOM      8  C   UNL d   1      46.515 -20.142  42.120  0.00  0.00     0.026 A 
ATOM      9  C   UNL d   1      46.646 -18.886  41.447  0.00  0.00     0.002 A 
ATOM     10  C   UNL d   1      46.585 -19.712  41.420  0.00  0.00     0.002 A 
ENDROOT
BRANCH   2  11
ATOM     11  C   UNL d   1      46.583 -17.912  43.943  0.00  0.00     0.087 C 
BRANCH  11  12
ATOM     12  C   UNL d   1      45.902 -17.500  44.149  0.00  0.00     0.046 C 
BRANCH  12  13
ATOM     13  C   UNL d   1      45.950 -16.789  44.545  0.00  0.00     0.124 C 
BRANCH  13  14
ATOM     14  O   UNL d   1      45.297 -16.291  44.596  0.00  0.00    -0.305 OA
BRANCH  14  15
ATOM     15  C   UNL d   1      45.393 -15.477  44.709  0.00  0.00     0.100 A 
ATOM     16  C   UNL d   1      46.143 -15.155  44.748  0.00  0.00     0.025 A 
ATOM     17  C   UNL d   1      46.239 -14.340  44.861  0.00  0.00     0.002 A 
ATOM     18  C   UNL d   1      45.578 -13.860  44.933  0.00  0.00     0.000 A 
ATOM     19  C   UNL d   1      44.819 -14.187  44.893  0.00  0.00     0.002 A 
ATOM     20  C   UNL d   1      44.723 -15.001  44.780  0.00  0.00     0.025 A 
ENDBRANCH  14  15
ENDBRANCH  13  14
ENDBRANCH  12  13
ENDBRANCH  11  12
ENDBRANCH   2  11
TORSDOF 5
ENDMDL
