MODEL 1
REMARK VINA RESULT:      -6.3      0.000      0.000
REMARK  6 active torsions:
REMARK  status: ('A' for Active; 'I' for Inactive)
REMARK    1  A    between atoms: S_2  and  N_1 
REMARK    2  A    between atoms: C_11  and  S_2 
REMARK    3  A    between atoms: O_8  and  C_5 
REMARK    4  A    between atoms: C_7  and  O_8 
REMARK    5  A    between atoms: C_12  and  C_7 
REMARK    6  A    between atoms: O_20  and  C_17 
ROOT
ATOM      1  N   UNL d   1     -48.662  13.493  22.916  0.00  0.00    -0.130 N 
ATOM      2  N   UNL d   1     -47.933  13.588  22.544  0.00  0.00    -0.128 NA
ATOM      3  C   UNL d   1     -48.708  12.731  23.214  0.00  0.00     0.200 A 
ATOM      4  C   UNL d   1     -47.524  12.872  22.615  0.00  0.00     0.208 A 
ATOM      5  C   UNL d   1     -47.997  12.348  23.025  0.00  0.00     0.088 A 
ATOM      6  N   UNL d   1     -49.343  12.406  23.626  0.00  0.00    -0.126 N 
ENDROOT
BRANCH   4   7
ATOM      7  O   UNL d   1     -46.765  12.716  22.322  0.00  0.00    -0.253 OA
BRANCH   7   8
ATOM      8  C   UNL d   1     -46.108  12.791  22.816  0.00  0.00     0.301 C 
ATOM      9  O   UNL d   1     -46.207  12.971  23.612  0.00  0.00    -0.259 OA
BRANCH   8  10
ATOM     10  C   UNL d   1     -45.348  12.686  22.513  0.00  0.00     0.064 A 
ATOM     11  C   UNL d   1     -44.896  12.024  22.725  0.00  0.00     0.007 A 
ATOM     12  C   UNL d   1     -44.141  11.916  22.427  0.00  0.00     0.024 A 
ATOM     13  C   UNL d   1     -43.823  12.476  21.905  0.00  0.00     0.094 A 
ATOM     14  C   UNL d   1     -44.276  13.137  21.692  0.00  0.00     0.024 A 
ATOM     15  C   UNL d   1     -45.033  13.244  21.993  0.00  0.00     0.007 A 
BRANCH  13  16
ATOM     16  O   UNL d   1     -43.074  12.383  21.598  0.00  0.00    -0.328 OA
ATOM     17  C   UNL d   1     -42.773  12.890  21.024  0.00  0.00     0.181 C 
ENDBRANCH  13  16
ENDBRANCH   8  10
ENDBRANCH   7   8
ENDBRANCH   4   7
BRANCH   1  18
ATOM     18  S   UNL d   1     -49.249  14.071  22.976  0.00  0.00     0.287 S 
ATOM     19  O   UNL d   1     -48.928  14.350  23.698  0.00  0.00    -0.198 OA
ATOM     20  O   UNL d   1     -49.564  13.805  22.277  0.00  0.00    -0.198 OA
BRANCH  18  21
ATOM     21  C   UNL d   1     -49.841  14.642  23.023  0.00  0.00     0.105 A 
ATOM     22  C   UNL d   1     -49.803  15.233  23.600  0.00  0.00     0.013 A 
ATOM     23  C   UNL d   1     -50.398  15.803  23.643  0.00  0.00     0.001 A 
ATOM     24  C   UNL d   1     -51.028  15.785  23.114  0.00  0.00     0.000 A 
ATOM     25  C   UNL d   1     -51.064  15.195  22.540  0.00  0.00     0.001 A 
ATOM     26  C   UNL d   1     -50.474  14.620  22.488  0.00  0.00     0.013 A 
ENDBRANCH  18  21
ENDBRANCH   1  18
TORSDOF 6
ENDMDL
MODEL 2
REMARK VINA RESULT:      -6.3      0.619      1.052
REMARK  6 active torsions:
REMARK  status: ('A' for Active; 'I' for Inactive)
REMARK    1  A    between atoms: S_2  and  N_1 
REMARK    2  A    between atoms: C_11  and  S_2 
REMARK    3  A    between atoms: O_8  and  C_5 
REMARK    4  A    between atoms: C_7  and  O_8 
REMARK    5  A    between atoms: C_12  and  C_7 
REMARK    6  A    between atoms: O_20  and  C_17 
ROOT
ATOM      1  N   UNL d   1     -48.727  12.794  22.997  0.00  0.00    -0.130 N 
ATOM      2  N   UNL d   1     -47.929  12.841  22.796  0.00  0.00    -0.128 NA
ATOM      3  C   UNL d   1     -48.857  12.090  23.396  0.00  0.00     0.200 A 
ATOM      4  C   UNL d   1     -47.563  12.153  23.076  0.00  0.00     0.208 A 
ATOM      5  C   UNL d   1     -48.129  11.694  23.442  0.00  0.00     0.088 A 
ATOM      6  N   UNL d   1     -49.577  11.825  23.695  0.00  0.00    -0.126 N 
ENDROOT
BRANCH   4   7
ATOM      7  O   UNL d   1     -46.760  11.964  22.996  0.00  0.00    -0.253 OA
BRANCH   7   8
ATOM      8  C   UNL d   1     -46.185  12.540  23.139  0.00  0.00     0.301 C 
ATOM      9  O   UNL d   1     -46.325  13.138  23.686  0.00  0.00    -0.259 OA
BRANCH   8  10
ATOM     10  C   UNL d   1     -45.467  12.517  22.734  0.00  0.00     0.064 A 
ATOM     11  C   UNL d   1     -45.272  13.107  22.185  0.00  0.00     0.007 A 
ATOM     12  C   UNL d   1     -44.561  13.089  21.781  0.00  0.00     0.024 A 
ATOM     13  C   UNL d   1     -44.026  12.471  21.922  0.00  0.00     0.094 A 
ATOM     14  C   UNL d   1     -44.221  11.881  22.470  0.00  0.00     0.024 A 
ATOM     15  C   UNL d   1     -44.936  11.901  22.875  0.00  0.00     0.007 A 
BRANCH  13  16
ATOM     16  O   UNL d   1     -43.313  12.437  21.528  0.00  0.00    -0.328 OA
ATOM     17  C   UNL d   1     -43.045  13.059  21.060  0.00  0.00     0.181 C 
ENDBRANCH  13  16
ENDBRANCH   8  10
ENDBRANCH   7   8
ENDBRANCH   4   7
BRANCH   1  18
ATOM     18  S   UNL d   1     -49.299  13.363  22.825  0.00  0.00     0.287 S 
ATOM     19  O   UNL d   1     -49.429  13.509  23.639  0.00  0.00    -0.198 OA
ATOM     20  O   UNL d   1     -49.178  13.227  22.034  0.00  0.00    -0.198 OA
BRANCH  18  21
ATOM     21  C   UNL d   1     -49.868  13.929  22.637  0.00  0.00     0.105 A 
ATOM     22  C   UNL d   1     -50.492  13.737  22.129  0.00  0.00     0.013 A 
ATOM     23  C   UNL d   1     -51.060  14.306  21.943  0.00  0.00     0.001 A 
ATOM     24  C   UNL d   1     -51.007  15.062  22.260  0.00  0.00     0.000 A 
ATOM     25  C   UNL d   1     -50.385  15.252  22.766  0.00  0.00     0.001 A 
ATOM     26  C   UNL d   1     -49.811  14.691  22.959  0.00  0.00     0.013 A 
ENDBRANCH  18  21
ENDBRANCH   1  18
TORSDOF 6
ENDMDL
MODEL 3
REMARK VINA RESULT:      -6.0      8.268      9.929
REMARK  6 active torsions:
REMARK  status: ('A' for Active; 'I' for Inactive)
REMARK    1  A    between atoms: S_2  and  N_1 
REMARK    2  A    between atoms: C_11  and  S_2 
REMARK    3  A    between atoms: O_8  and  C_5 
REMARK    4  A    between atoms: C_7  and  O_8 
REMARK    5  A    between atoms: C_12  and  C_7 
REMARK    6  A    between atoms: O_20  and  C_17 
ROOT
ATOM      1  N   UNL d   1     -39.780  15.205  17.866  0.00  0.00    -0.130 N 
ATOM      2  N   UNL d   1     -39.569  15.270  18.659  0.00  0.00    -0.128 NA
ATOM      3  C   UNL d   1     -40.517  15.550  17.760  0.00  0.00     0.200 A 
ATOM      4  C   UNL d   1     -40.187  15.662  19.048  0.00  0.00     0.208 A 
ATOM      5  C   UNL d   1     -40.765  15.832  18.499  0.00  0.00     0.088 A 
ATOM      6  N   UNL d   1     -40.932  15.605  17.051  0.00  0.00    -0.126 N 
ENDROOT
BRANCH   4   7
ATOM      7  O   UNL d   1     -40.211  15.847  19.855  0.00  0.00    -0.253 OA
BRANCH   7   8
ATOM      8  C   UNL d   1     -40.399  15.263  20.407  0.00  0.00     0.301 C 
ATOM      9  O   UNL d   1     -40.990  14.714  20.244  0.00  0.00    -0.259 OA
BRANCH   8  10
ATOM     10  C   UNL d   1     -39.995  15.226  21.125  0.00  0.00     0.064 A 
ATOM     11  C   UNL d   1     -39.755  14.497  21.439  0.00  0.00     0.007 A 
ATOM     12  C   UNL d   1     -39.354  14.456  22.152  0.00  0.00     0.024 A 
ATOM     13  C   UNL d   1     -39.185  15.155  22.566  0.00  0.00     0.094 A 
ATOM     14  C   UNL d   1     -39.425  15.883  22.253  0.00  0.00     0.024 A 
ATOM     15  C   UNL d   1     -39.828  15.922  21.537  0.00  0.00     0.007 A 
BRANCH  13  16
ATOM     16  O   UNL d   1     -38.786  15.132  23.277  0.00  0.00    -0.328 OA
ATOM     17  C   UNL d   1     -38.015  15.409  23.352  0.00  0.00     0.181 C 
ENDBRANCH  13  16
ENDBRANCH   8  10
ENDBRANCH   7   8
ENDBRANCH   4   7
BRANCH   1  18
ATOM     18  S   UNL d   1     -39.324  14.851  17.276  0.00  0.00     0.287 S 
ATOM     19  O   UNL d   1     -39.626  14.094  17.467  0.00  0.00    -0.198 OA
ATOM     20  O   UNL d   1     -39.027  15.583  17.085  0.00  0.00    -0.198 OA
BRANCH  18  21
ATOM     21  C   UNL d   1     -38.863  14.513  16.682  0.00  0.00     0.105 A 
ATOM     22  C   UNL d   1     -38.455  14.996  16.149  0.00  0.00     0.013 A 
ATOM     23  C   UNL d   1     -37.994  14.653  15.556  0.00  0.00     0.001 A 
ATOM     24  C   UNL d   1     -37.940  13.835  15.494  0.00  0.00     0.000 A 
ATOM     25  C   UNL d   1     -38.347  13.356  16.027  0.00  0.00     0.001 A 
ATOM     26  C   UNL d   1     -38.811  13.688  16.624  0.00  0.00     0.013 A 
ENDBRANCH  18  21
ENDBRANCH   1  18
TORSDOF 6
ENDMDL
MODEL 4
REMARK VINA RESULT:      -5.7      1.420      2.128
REMARK  6 active torsions:
REMARK  status: ('A' for Active; 'I' for Inactive)
REMARK    1  A    between atoms: S_2  and  N_1 
REMARK    2  A    between atoms: C_11  and  S_2 
REMARK    3  A    between atoms: O_8  and  C_5 
REMARK    4  A    between atoms: C_7  and  O_8 
REMARK    5  A    between atoms: C_12  and  C_7 
REMARK    6  A    between atoms: O_20  and  C_17 
ROOT
ATOM      1  N   UNL d   1     -47.908  13.717  22.642  0.00  0.00    -0.130 N 
ATOM      2  N   UNL d   1     -47.442  13.073  22.857  0.00  0.00    -0.128 NA
ATOM      3  C   UNL d   1     -47.464  14.402  22.723  0.00  0.00     0.200 A 
ATOM      4  C   UNL d   1     -46.699  13.367  23.074  0.00  0.00     0.208 A 
ATOM      5  C   UNL d   1     -46.712  14.178  22.992  0.00  0.00     0.088 A 
ATOM      6  N   UNL d   1     -47.719  15.169  22.567  0.00  0.00    -0.126 N 
ENDROOT
BRANCH   4   7
ATOM      7  O   UNL d   1     -46.054  12.913  23.329  0.00  0.00    -0.253 OA
BRANCH   7   8
ATOM      8  C   UNL d   1     -45.530  12.594  22.777  0.00  0.00     0.301 C 
ATOM      9  O   UNL d   1     -45.472  12.920  22.024  0.00  0.00    -0.259 OA
BRANCH   8  10
ATOM     10  C   UNL d   1     -45.062  11.945  22.977  0.00  0.00     0.064 A 
ATOM     11  C   UNL d   1     -44.290  11.874  22.686  0.00  0.00     0.007 A 
ATOM     12  C   UNL d   1     -43.822  11.232  22.882  0.00  0.00     0.024 A 
ATOM     13  C   UNL d   1     -44.125  10.642  23.381  0.00  0.00     0.094 A 
ATOM     14  C   UNL d   1     -44.897  10.713  23.672  0.00  0.00     0.024 A 
ATOM     15  C   UNL d   1     -45.366  11.359  23.474  0.00  0.00     0.007 A 
BRANCH  13  16
ATOM     16  O   UNL d   1     -43.673   9.996  23.587  0.00  0.00    -0.328 OA
ATOM     17  C   UNL d   1     -44.004   9.251  23.697  0.00  0.00     0.181 C 
ENDBRANCH  13  16
ENDBRANCH   8  10
ENDBRANCH   7   8
ENDBRANCH   4   7
BRANCH   1  18
ATOM     18  S   UNL d   1     -48.692  13.679  22.388  0.00  0.00     0.287 S 
ATOM     19  O   UNL d   1     -48.466  13.839  21.598  0.00  0.00    -0.198 OA
ATOM     20  O   UNL d   1     -48.919  13.523  23.152  0.00  0.00    -0.198 OA
BRANCH  18  21
ATOM     21  C   UNL d   1     -49.480  13.637  22.149  0.00  0.00     0.105 A 
ATOM     22  C   UNL d   1     -50.024  14.202  22.413  0.00  0.00     0.013 A 
ATOM     23  C   UNL d   1     -50.812  14.156  22.173  0.00  0.00     0.001 A 
ATOM     24  C   UNL d   1     -51.058  13.552  21.672  0.00  0.00     0.000 A 
ATOM     25  C   UNL d   1     -50.515  12.991  21.410  0.00  0.00     0.001 A 
ATOM     26  C   UNL d   1     -49.724  13.026  21.644  0.00  0.00     0.013 A 
ENDBRANCH  18  21
ENDBRANCH   1  18
TORSDOF 6
ENDMDL
MODEL 5
REMARK VINA RESULT:      -5.7      1.938      5.709
REMARK  6 active torsions:
REMARK  status: ('A' for Active; 'I' for Inactive)
REMARK    1  A    between atoms: S_2  and  N_1 
REMARK    2  A    between atoms: C_11  and  S_2 
REMARK    3  A    between atoms: O_8  and  C_5 
REMARK    4  A    between atoms: C_7  and  O_8 
REMARK    5  A    between atoms: C_12  and  C_7 
REMARK    6  A    between atoms: O_20  and  C_17 
ROOT
ATOM      1  N   UNL d   1     -45.408  12.352  22.850  0.00  0.00    -0.130 N 
ATOM      2  N   UNL d   1     -46.076  12.647  23.231  0.00  0.00    -0.128 NA
ATOM      3  C   UNL d   1     -45.228  12.843  22.218  0.00  0.00     0.200 A 
ATOM      4  C   UNL d   1     -46.311  13.331  22.827  0.00  0.00     0.208 A 
ATOM      5  C   UNL d   1     -45.793  13.450  22.208  0.00  0.00     0.088 A 
ATOM      6  N   UNL d   1     -44.602  12.749  21.691  0.00  0.00    -0.126 N 
ENDROOT
BRANCH   4   7
ATOM      7  O   UNL d   1     -46.959  13.809  23.018  0.00  0.00    -0.253 OA
BRANCH   7   8
ATOM      8  C   UNL d   1     -47.645  13.777  22.559  0.00  0.00     0.301 C 
ATOM      9  O   UNL d   1     -47.705  13.239  21.941  0.00  0.00    -0.259 OA
BRANCH   8  10
ATOM     10  C   UNL d   1     -48.274  14.287  22.719  0.00  0.00     0.064 A 
ATOM     11  C   UNL d   1     -48.275  15.063  22.426  0.00  0.00     0.007 A 
ATOM     12  C   UNL d   1     -48.897  15.572  22.582  0.00  0.00     0.024 A 
ATOM     13  C   UNL d   1     -49.536  15.308  23.040  0.00  0.00     0.094 A 
ATOM     14  C   UNL d   1     -49.535  14.532  23.333  0.00  0.00     0.024 A 
ATOM     15  C   UNL d   1     -48.910  14.023  23.175  0.00  0.00     0.007 A 
BRANCH  13  16
ATOM     16  O   UNL d   1     -50.164  15.801  23.205  0.00  0.00    -0.328 OA
ATOM     17  C   UNL d   1     -50.929  15.515  23.299  0.00  0.00     0.181 C 
ENDBRANCH  13  16
ENDBRANCH   8  10
ENDBRANCH   7   8
ENDBRANCH   4   7
BRANCH   1  18
ATOM     18  S   UNL d   1     -44.991  11.675  23.069  0.00  0.00     0.287 S 
ATOM     19  O   UNL d   1     -45.569  11.478  23.641  0.00  0.00    -0.198 OA
ATOM     20  O   UNL d   1     -44.426  11.861  22.516  0.00  0.00    -0.198 OA
BRANCH  18  21
ATOM     21  C   UNL d   1     -44.562  11.003  23.276  0.00  0.00     0.105 A 
ATOM     22  C   UNL d   1     -44.957  10.308  23.490  0.00  0.00     0.013 A 
ATOM     23  C   UNL d   1     -44.524   9.637  23.697  0.00  0.00     0.001 A 
ATOM     24  C   UNL d   1     -43.701   9.657  23.691  0.00  0.00     0.000 A 
ATOM     25  C   UNL d   1     -43.310  10.349  23.478  0.00  0.00     0.001 A 
ATOM     26  C   UNL d   1     -43.733  11.027  23.269  0.00  0.00     0.013 A 
ENDBRANCH  18  21
ENDBRANCH   1  18
TORSDOF 6
ENDMDL
MODEL 6
REMARK VINA RESULT:      -4.6      1.836      2.348
REMARK  6 active torsions:
REMARK  status: ('A' for Active; 'I' for Inactive)
REMARK    1  A    between atoms: S_2  and  N_1 
REMARK    2  A    between atoms: C_11  and  S_2 
REMARK    3  A    between atoms: O_8  and  C_5 
REMARK    4  A    between atoms: C_7  and  O_8 
REMARK    5  A    between atoms: C_12  and  C_7 
REMARK    6  A    between atoms: O_20  and  C_17 
ROOT
ATOM      1  N   UNL d   1     -47.263  13.091  22.819  0.00  0.00    -0.130 N 
ATOM      2  N   UNL d   1     -46.597  12.626  22.684  0.00  0.00    -0.128 NA
ATOM      3  C   UNL d   1     -47.029  13.875  22.879  0.00  0.00     0.200 A 
ATOM      4  C   UNL d   1     -45.942  13.132  22.660  0.00  0.00     0.208 A 
ATOM      5  C   UNL d   1     -46.206  13.895  22.779  0.00  0.00     0.088 A 
ATOM      6  N   UNL d   1     -47.520  14.521  23.013  0.00  0.00    -0.126 N 
ENDROOT
BRANCH   4   7
ATOM      7  O   UNL d   1     -45.155  12.903  22.536  0.00  0.00    -0.253 OA
BRANCH   7   8
ATOM      8  C   UNL d   1     -44.848  12.879  21.770  0.00  0.00     0.301 C 
ATOM      9  O   UNL d   1     -45.347  12.754  21.128  0.00  0.00    -0.259 OA
BRANCH   8  10
ATOM     10  C   UNL d   1     -44.039  12.981  21.645  0.00  0.00     0.064 A 
ATOM     11  C   UNL d   1     -43.739  13.710  21.389  0.00  0.00     0.007 A 
ATOM     12  C   UNL d   1     -42.937  13.816  21.263  0.00  0.00     0.024 A 
ATOM     13  C   UNL d   1     -42.416  13.184  21.394  0.00  0.00     0.094 A 
ATOM     14  C   UNL d   1     -42.716  12.455  21.651  0.00  0.00     0.024 A 
ATOM     15  C   UNL d   1     -43.522  12.351  21.776  0.00  0.00     0.007 A 
BRANCH  13  16
ATOM     16  O   UNL d   1     -41.615  13.272  21.274  0.00  0.00    -0.328 OA
ATOM     17  C   UNL d   1     -41.311  13.572  20.571  0.00  0.00     0.181 C 
ENDBRANCH  13  16
ENDBRANCH   8  10
ENDBRANCH   7   8
ENDBRANCH   4   7
BRANCH   1  18
ATOM     18  S   UNL d   1     -48.037  12.813  22.884  0.00  0.00     0.287 S 
ATOM     19  O   UNL d   1     -47.912  12.587  23.681  0.00  0.00    -0.198 OA
ATOM     20  O   UNL d   1     -48.165  13.029  22.112  0.00  0.00    -0.198 OA
BRANCH  18  21
ATOM     21  C   UNL d   1     -48.813  12.540  22.933  0.00  0.00     0.105 A 
ATOM     22  C   UNL d   1     -49.187  12.232  22.262  0.00  0.00     0.013 A 
ATOM     23  C   UNL d   1     -49.964  11.959  22.315  0.00  0.00     0.001 A 
ATOM     24  C   UNL d   1     -50.367  11.993  23.031  0.00  0.00     0.000 A 
ATOM     25  C   UNL d   1     -49.993  12.299  23.697  0.00  0.00     0.001 A 
ATOM     26  C   UNL d   1     -49.216  12.575  23.657  0.00  0.00     0.013 A 
ENDBRANCH  18  21
ENDBRANCH   1  18
TORSDOF 6
ENDMDL
MODEL 7
REMARK VINA RESULT:      -3.8      4.267      7.785
REMARK  6 active torsions:
REMARK  status: ('A' for Active; 'I' for Inactive)
REMARK    1  A    between atoms: S_2  and  N_1 
REMARK    2  A    between atoms: C_11  and  S_2 
REMARK    3  A    between atoms: O_8  and  C_5 
REMARK    4  A    between atoms: C_7  and  O_8 
REMARK    5  A    between atoms: C_12  and  C_7 
REMARK    6  A    between atoms: O_20  and  C_17 
ROOT
ATOM      1  N   UNL d   1     -40.924  14.379  19.856  0.00  0.00    -0.130 N 
ATOM      2  N   UNL d   1     -41.700  14.206  20.072  0.00  0.00    -0.128 NA
ATOM      3  C   UNL d   1     -40.439  14.273  20.509  0.00  0.00     0.200 A 
ATOM      4  C   UNL d   1     -41.692  13.991  20.871  0.00  0.00     0.208 A 
ATOM      5  C   UNL d   1     -40.923  14.031  21.139  0.00  0.00     0.088 A 
ATOM      6  N   UNL d   1     -39.624  14.386  20.535  0.00  0.00    -0.126 N 
ENDROOT
BRANCH   4   7
ATOM      7  O   UNL d   1     -42.353  13.772  21.321  0.00  0.00    -0.253 OA
BRANCH   7   8
ATOM      8  C   UNL d   1     -42.741  13.060  21.164  0.00  0.00     0.301 C 
ATOM      9  O   UNL d   1     -42.440  12.539  20.603  0.00  0.00    -0.259 OA
BRANCH   8  10
ATOM     10  C   UNL d   1     -43.434  12.868  21.568  0.00  0.00     0.064 A 
ATOM     11  C   UNL d   1     -43.467  12.200  22.057  0.00  0.00     0.007 A 
ATOM     12  C   UNL d   1     -44.153  12.006  22.461  0.00  0.00     0.024 A 
ATOM     13  C   UNL d   1     -44.825  12.485  22.379  0.00  0.00     0.094 A 
ATOM     14  C   UNL d   1     -44.791  13.154  21.890  0.00  0.00     0.024 A 
ATOM     15  C   UNL d   1     -44.102  13.347  21.486  0.00  0.00     0.007 A 
BRANCH  13  16
ATOM     16  O   UNL d   1     -45.515  12.307  22.774  0.00  0.00    -0.328 OA
ATOM     17  C   UNL d   1     -46.036  12.892  23.025  0.00  0.00     0.181 C 
ENDBRANCH  13  16
ENDBRANCH   8  10
ENDBRANCH   7   8
ENDBRANCH   4   7
BRANCH   1  18
ATOM     18  S   UNL d   1     -40.677  14.619  19.106  0.00  0.00     0.287 S 
ATOM     19  O   UNL d   1     -40.494  13.830  18.891  0.00  0.00    -0.198 OA
ATOM     20  O   UNL d   1     -40.851  15.386  19.308  0.00  0.00    -0.198 OA
BRANCH  18  21
ATOM     21  C   UNL d   1     -40.433  14.874  18.361  0.00  0.00     0.105 A 
ATOM     22  C   UNL d   1     -40.109  14.336  17.824  0.00  0.00     0.013 A 
ATOM     23  C   UNL d   1     -39.866  14.595  17.079  0.00  0.00     0.001 A 
ATOM     24  C   UNL d   1     -39.946  15.387  16.870  0.00  0.00     0.000 A 
ATOM     25  C   UNL d   1     -40.269  15.921  17.407  0.00  0.00     0.001 A 
ATOM     26  C   UNL d   1     -40.515  15.673  18.155  0.00  0.00     0.013 A 
ENDBRANCH  18  21
ENDBRANCH   1  18
TORSDOF 6
ENDMDL
