MODEL 1
REMARK VINA RESULT:      -6.7      0.000      0.000
REMARK  3 active torsions:
REMARK  status: ('A' for Active; 'I' for Inactive)
REMARK    1  A    between atoms: C_8  and  C_1 
REMARK    2  A    between atoms: N_5  and  C_2 
REMARK       I    between atoms: C_7  and  N_5 
REMARK    3  A    between atoms: C_10  and  C_7 
ROOT
ATOM      1  C   UNL d   1     -41.554-122.220 -53.238  0.00  0.00     0.212 A 
ATOM      2  C   UNL d   1     -41.470-122.487 -51.932  0.00  0.00     0.297 A 
ATOM      3  O   UNL d   1     -41.739-122.779 -52.655  0.00  0.00    -0.253 OA
ATOM      4  N   UNL d   1     -41.174-121.593 -52.870  0.00  0.00    -0.119 NA
ATOM      5  N   UNL d   1     -41.123-121.758 -52.065  0.00  0.00    -0.101 NA
ENDROOT
BRANCH   2   6
ATOM      6  N   UNL d   1     -41.543-122.872 -51.206  0.00  0.00    -0.165 NA
ATOM      7  C   UNL d   1     -42.077-122.604 -50.650  0.00  0.00     0.282 C 
ATOM      8  O   UNL d   1     -42.550-121.944 -50.805  0.00  0.00    -0.265 OA
BRANCH   7   9
ATOM      9  C   UNL d   1     -42.149-122.991 -49.921  0.00  0.00     0.060 A 
ATOM     10  C   UNL d   1     -42.891-123.209 -49.632  0.00  0.00     0.034 A 
ATOM     11  C   UNL d   1     -42.957-123.593 -48.908  0.00  0.00     0.140 A 
ATOM     12  F   UNL d   1     -43.710-123.815 -48.613  0.00  0.00    -0.204 F 
ATOM     13  C   UNL d   1     -42.283-123.764 -48.465  0.00  0.00     0.030 A 
ATOM     14  C   UNL d   1     -41.544-123.548 -48.754  0.00  0.00     0.003 A 
ATOM     15  C   UNL d   1     -41.474-123.164 -49.475  0.00  0.00     0.005 A 
ENDBRANCH   7   9
ENDBRANCH   2   6
BRANCH   1  16
ATOM     16  C   UNL d   1     -41.726-122.291 -54.045  0.00  0.00     0.072 A 
ATOM     17  S   UNL d   1     -41.398-122.837 -54.563  0.00  0.00    -0.083 SA
ATOM     18  C   UNL d   1     -41.726-122.709 -55.308  0.00  0.00     0.035 A 
ATOM     19  C   UNL d   1     -42.261-122.079 -55.250  0.00  0.00     0.008 A 
ATOM     20  C   UNL d   1     -42.259-121.821 -54.464  0.00  0.00     0.011 A 
ENDBRANCH   1  16
TORSDOF 3
ENDMDL
MODEL 2
REMARK VINA RESULT:      -6.3      2.172      4.737
REMARK  3 active torsions:
REMARK  status: ('A' for Active; 'I' for Inactive)
REMARK    1  A    between atoms: C_8  and  C_1 
REMARK    2  A    between atoms: N_5  and  C_2 
REMARK       I    between atoms: C_7  and  N_5 
REMARK    3  A    between atoms: C_10  and  C_7 
ROOT
ATOM      1  C   UNL d   1     -41.829-122.641 -50.573  0.00  0.00     0.212 A 
ATOM      2  C   UNL d   1     -41.476-122.455 -51.848  0.00  0.00     0.297 A 
ATOM      3  O   UNL d   1     -41.884-122.958 -51.337  0.00  0.00    -0.253 OA
ATOM      4  N   UNL d   1     -41.391-121.950 -50.622  0.00  0.00    -0.119 NA
ATOM      5  N   UNL d   1     -41.174-121.835 -51.408  0.00  0.00    -0.101 NA
ENDROOT
BRANCH   2   6
ATOM      6  N   UNL d   1     -41.394-122.567 -52.661  0.00  0.00    -0.165 NA
ATOM      7  C   UNL d   1     -41.888-122.178 -53.182  0.00  0.00     0.282 C 
ATOM      8  O   UNL d   1     -42.475-121.668 -52.903  0.00  0.00    -0.265 OA
BRANCH   7   9
ATOM      9  C   UNL d   1     -41.804-122.291 -53.999  0.00  0.00     0.060 A 
ATOM     10  C   UNL d   1     -42.276-121.874 -54.532  0.00  0.00     0.034 A 
ATOM     11  C   UNL d   1     -42.189-121.990 -55.341  0.00  0.00     0.140 A 
ATOM     12  F   UNL d   1     -42.667-121.567 -55.884  0.00  0.00    -0.204 F 
ATOM     13  C   UNL d   1     -41.629-122.525 -55.627  0.00  0.00     0.030 A 
ATOM     14  C   UNL d   1     -41.160-122.941 -55.095  0.00  0.00     0.003 A 
ATOM     15  C   UNL d   1     -41.243-122.828 -54.287  0.00  0.00     0.005 A 
ENDBRANCH   7   9
ENDBRANCH   2   6
BRANCH   1  16
ATOM     16  C   UNL d   1     -42.161-122.971 -49.890  0.00  0.00     0.072 A 
ATOM     17  S   UNL d   1     -41.863-123.607 -49.466  0.00  0.00    -0.083 SA
ATOM     18  C   UNL d   1     -42.367-123.747 -48.829  0.00  0.00     0.035 A 
ATOM     19  C   UNL d   1     -42.983-123.193 -48.861  0.00  0.00     0.008 A 
ATOM     20  C   UNL d   1     -42.852-122.712 -49.521  0.00  0.00     0.011 A 
ENDBRANCH   1  16
TORSDOF 3
ENDMDL
MODEL 3
REMARK VINA RESULT:      -4.1      0.934      1.178
REMARK  3 active torsions:
REMARK  status: ('A' for Active; 'I' for Inactive)
REMARK    1  A    between atoms: C_8  and  C_1 
REMARK    2  A    between atoms: N_5  and  C_2 
REMARK       I    between atoms: C_7  and  N_5 
REMARK    3  A    between atoms: C_10  and  C_7 
ROOT
ATOM      1  C   UNL d   1     -41.888-122.207 -54.095  0.00  0.00     0.212 A 
ATOM      2  C   UNL d   1     -41.614-122.396 -52.801  0.00  0.00     0.297 A 
ATOM      3  O   UNL d   1     -42.089-122.652 -53.426  0.00  0.00    -0.253 OA
ATOM      4  N   UNL d   1     -41.295-121.685 -53.878  0.00  0.00    -0.119 NA
ATOM      5  N   UNL d   1     -41.126-121.801 -53.080  0.00  0.00    -0.101 NA
ENDROOT
BRANCH   2   6
ATOM      6  N   UNL d   1     -41.636-122.694 -52.033  0.00  0.00    -0.165 NA
ATOM      7  C   UNL d   1     -41.673-122.186 -51.395  0.00  0.00     0.282 C 
ATOM      8  O   UNL d   1     -41.690-121.367 -51.510  0.00  0.00    -0.265 OA
BRANCH   7   9
ATOM      9  C   UNL d   1     -41.694-122.487 -50.624  0.00  0.00     0.060 A 
ATOM     10  C   UNL d   1     -42.255-122.215 -50.081  0.00  0.00     0.034 A 
ATOM     11  C   UNL d   1     -42.271-122.518 -49.317  0.00  0.00     0.140 A 
ATOM     12  F   UNL d   1     -42.840-122.243 -48.765  0.00  0.00    -0.204 F 
ATOM     13  C   UNL d   1     -41.728-123.094 -49.085  0.00  0.00     0.030 A 
ATOM     14  C   UNL d   1     -41.171-123.364 -49.626  0.00  0.00     0.003 A 
ATOM     15  C   UNL d   1     -41.151-123.065 -50.389  0.00  0.00     0.005 A 
ENDBRANCH   7   9
ENDBRANCH   2   6
BRANCH   1  16
ATOM     16  C   UNL d   1     -42.231-122.285 -54.845  0.00  0.00     0.072 A 
ATOM     17  S   UNL d   1     -42.511-121.673 -55.315  0.00  0.00    -0.083 SA
ATOM     18  C   UNL d   1     -42.805-122.001 -56.011  0.00  0.00     0.035 A 
ATOM     19  C   UNL d   1     -42.705-122.822 -55.972  0.00  0.00     0.008 A 
ATOM     20  C   UNL d   1     -42.348-122.997 -55.246  0.00  0.00     0.011 A 
ENDBRANCH   1  16
TORSDOF 3
ENDMDL
