MODEL 1
REMARK VINA RESULT:     -10.6      0.000      0.000
REMARK  5 active torsions:
REMARK  status: ('A' for Active; 'I' for Inactive)
REMARK    1  A    between atoms: N_6  and  C_1 
REMARK    2  A    between atoms: C_10  and  C_2 
REMARK       I    between atoms: C_9  and  N_6 
REMARK    3  A    between atoms: C_14  and  C_9 
REMARK    4  A    between atoms: C_13  and  C_15 
REMARK    5  A    between atoms: C_19  and  C_13 
ROOT
ATOM      1  N   UNL d   1      49.789  34.424  52.600  0.00  0.00    -0.201 NA
ATOM      2  C   UNL d   1      50.389  34.626  53.129  0.00  0.00     0.280 C 
ATOM      3  O   UNL d   1      50.300  35.268  53.634  0.00  0.00    -0.265 OA
ENDROOT
BRANCH   1   4
ATOM      4  C   UNL d   1      49.092  34.869  52.575  0.00  0.00     0.118 A 
ATOM      5  C   UNL d   1      48.575  34.932  51.935  0.00  0.00     0.083 A 
ATOM      6  C   UNL d   1      47.961  35.429  52.158  0.00  0.00     0.008 A 
ATOM      7  C   UNL d   1      47.293  35.688  51.744  0.00  0.00    -0.004 A 
ATOM      8  C   UNL d   1      48.090  35.674  52.925  0.00  0.00     0.028 A 
ATOM      9  C   UNL d   1      46.757  36.197  52.115  0.00  0.00     0.099 A 
ATOM     10  C   UNL d   1      46.627  35.949  51.337  0.00  0.00     0.029 C 
ATOM     11  C   UNL d   1      46.220  36.705  52.479  0.00  0.00     0.029 C 
ATOM     12  N   UNL d   1      46.888  36.446  52.894  0.00  0.00    -0.294 NA
ATOM     13  C   UNL d   1      47.554  36.185  53.300  0.00  0.00     0.104 A 
ATOM     14  C   UNL d   1      47.150  36.677  53.829  0.00  0.00     0.029 C 
ATOM     15  C   UNL d   1      48.139  36.046  53.864  0.00  0.00     0.029 C 
ATOM     16  S   UNL d   1      48.793  35.329  53.193  0.00  0.00    -0.070 SA
BRANCH   5  17
ATOM     17  C   UNL d   1      48.670  34.559  51.212  0.00  0.00     0.299 C 
ATOM     18  O   UNL d   1      48.190  33.910  51.028  0.00  0.00    -0.264 OA
ATOM     19  N   UNL d   1      49.236  34.824  50.672  0.00  0.00    -0.102 N 
ENDBRANCH   5  17
ENDBRANCH   1   4
BRANCH   2  20
ATOM     20  C   UNL d   1      51.076  34.187  53.154  0.00  0.00     0.058 A 
ATOM     21  C   UNL d   1      51.788  34.519  52.902  0.00  0.00     0.005 A 
ATOM     22  C   UNL d   1      52.486  34.074  52.927  0.00  0.00     0.003 A 
ATOM     23  C   UNL d   1      52.470  33.297  53.205  0.00  0.00     0.039 A 
ATOM     24  C   UNL d   1      51.765  32.974  53.452  0.00  0.00     0.003 A 
ATOM     25  C   UNL d   1      51.067  33.419  53.427  0.00  0.00     0.005 A 
BRANCH  23  26
ATOM     26  C   UNL d   1      53.166  32.857  53.228  0.00  0.00     0.196 C 
ATOM     27  O   UNL d   1      53.338  32.330  52.627  0.00  0.00    -0.287 OA
BRANCH  26  28
ATOM     28  C   UNL d   1      53.687  32.950  53.857  0.00  0.00     0.039 A 
ATOM     29  C   UNL d   1      53.564  32.558  54.563  0.00  0.00     0.003 A 
ATOM     30  C   UNL d   1      54.085  32.651  55.192  0.00  0.00     0.000 A 
ATOM     31  C   UNL d   1      54.741  33.148  55.108  0.00  0.00     0.000 A 
ATOM     32  C   UNL d   1      54.870  33.546  54.396  0.00  0.00     0.000 A 
ATOM     33  C   UNL d   1      54.343  33.447  53.773  0.00  0.00     0.003 A 
ENDBRANCH  26  28
ENDBRANCH  23  26
ENDBRANCH   2  20
TORSDOF 5
ENDMDL
MODEL 2
REMARK VINA RESULT:     -10.4      1.649      6.232
REMARK  5 active torsions:
REMARK  status: ('A' for Active; 'I' for Inactive)
REMARK    1  A    between atoms: N_6  and  C_1 
REMARK    2  A    between atoms: C_10  and  C_2 
REMARK       I    between atoms: C_9  and  N_6 
REMARK    3  A    between atoms: C_14  and  C_9 
REMARK    4  A    between atoms: C_13  and  C_15 
REMARK    5  A    between atoms: C_19  and  C_13 
ROOT
ATOM      1  N   UNL d   1      51.155  34.339  52.858  0.00  0.00    -0.201 NA
ATOM      2  C   UNL d   1      50.377  34.081  52.952  0.00  0.00     0.280 C 
ATOM      3  O   UNL d   1      50.220  33.330  53.245  0.00  0.00    -0.265 OA
ENDROOT
BRANCH   1   4
ATOM      4  C   UNL d   1      51.784  33.840  53.060  0.00  0.00     0.118 A 
ATOM      5  C   UNL d   1      52.498  34.069  53.404  0.00  0.00     0.083 A 
ATOM      6  C   UNL d   1      52.953  33.394  53.504  0.00  0.00     0.008 A 
ATOM      7  C   UNL d   1      53.712  33.292  53.820  0.00  0.00    -0.004 A 
ATOM      8  C   UNL d   1      52.534  32.753  53.228  0.00  0.00     0.028 A 
ATOM      9  C   UNL d   1      54.040  32.533  53.852  0.00  0.00     0.099 A 
ATOM     10  C   UNL d   1      54.466  33.184  54.133  0.00  0.00     0.029 C 
ATOM     11  C   UNL d   1      54.372  31.780  53.887  0.00  0.00     0.029 C 
ATOM     12  N   UNL d   1      53.613  31.882  53.571  0.00  0.00    -0.294 NA
ATOM     13  C   UNL d   1      52.860  31.990  53.259  0.00  0.00     0.104 A 
ATOM     14  C   UNL d   1      53.008  31.178  53.205  0.00  0.00     0.029 C 
ATOM     15  C   UNL d   1      52.116  31.885  52.919  0.00  0.00     0.029 C 
ATOM     16  S   UNL d   1      51.803  33.022  52.948  0.00  0.00    -0.070 SA
BRANCH   5  17
ATOM     17  C   UNL d   1      52.702  34.837  53.605  0.00  0.00     0.299 C 
ATOM     18  O   UNL d   1      52.998  35.340  53.018  0.00  0.00    -0.264 OA
ATOM     19  N   UNL d   1      52.614  35.108  54.380  0.00  0.00    -0.102 N 
ENDBRANCH   5  17
ENDBRANCH   1   4
BRANCH   2  20
ATOM     20  C   UNL d   1      49.757  34.572  52.753  0.00  0.00     0.058 A 
ATOM     21  C   UNL d   1      49.426  34.537  51.998  0.00  0.00     0.005 A 
ATOM     22  C   UNL d   1      48.797  35.035  51.796  0.00  0.00     0.003 A 
ATOM     23  C   UNL d   1      48.499  35.569  52.350  0.00  0.00     0.039 A 
ATOM     24  C   UNL d   1      48.829  35.601  53.094  0.00  0.00     0.003 A 
ATOM     25  C   UNL d   1      49.459  35.102  53.296  0.00  0.00     0.005 A 
BRANCH  23  26
ATOM     26  C   UNL d   1      47.873  36.064  52.146  0.00  0.00     0.196 C 
ATOM     27  O   UNL d   1      48.002  36.709  51.660  0.00  0.00    -0.287 OA
BRANCH  26  28
ATOM     28  C   UNL d   1      47.119  35.907  52.432  0.00  0.00     0.039 A 
ATOM     29  C   UNL d   1      46.909  36.114  53.194  0.00  0.00     0.003 A 
ATOM     30  C   UNL d   1      46.155  35.957  53.480  0.00  0.00     0.000 A 
ATOM     31  C   UNL d   1      45.602  35.586  52.989  0.00  0.00     0.000 A 
ATOM     32  C   UNL d   1      45.809  35.375  52.218  0.00  0.00     0.000 A 
ATOM     33  C   UNL d   1      46.566  35.536  51.941  0.00  0.00     0.003 A 
ENDBRANCH  26  28
ENDBRANCH  23  26
ENDBRANCH   2  20
TORSDOF 5
ENDMDL
MODEL 3
REMARK VINA RESULT:      -9.9      1.002      1.860
REMARK  5 active torsions:
REMARK  status: ('A' for Active; 'I' for Inactive)
REMARK    1  A    between atoms: N_6  and  C_1 
REMARK    2  A    between atoms: C_10  and  C_2 
REMARK       I    between atoms: C_9  and  N_6 
REMARK    3  A    between atoms: C_14  and  C_9 
REMARK    4  A    between atoms: C_13  and  C_15 
REMARK    5  A    between atoms: C_19  and  C_13 
ROOT
ATOM      1  N   UNL d   1      49.330  35.092  52.776  0.00  0.00    -0.201 NA
ATOM      2  C   UNL d   1      49.647  34.443  52.376  0.00  0.00     0.280 C 
ATOM      3  O   UNL d   1      49.207  34.051  51.803  0.00  0.00    -0.265 OA
ENDROOT
BRANCH   1   4
ATOM      4  C   UNL d   1      48.564  35.352  52.600  0.00  0.00     0.118 A 
ATOM      5  C   UNL d   1      48.067  35.782  53.101  0.00  0.00     0.083 A 
ATOM      6  C   UNL d   1      47.366  35.917  52.698  0.00  0.00     0.008 A 
ATOM      7  C   UNL d   1      46.676  36.315  52.925  0.00  0.00    -0.004 A 
ATOM      8  C   UNL d   1      47.420  35.579  51.958  0.00  0.00     0.028 A 
ATOM      9  C   UNL d   1      46.043  36.367  52.395  0.00  0.00     0.099 A 
ATOM     10  C   UNL d   1      45.988  36.709  53.146  0.00  0.00     0.029 C 
ATOM     11  C   UNL d   1      45.409  36.422  51.872  0.00  0.00     0.029 C 
ATOM     12  N   UNL d   1      46.098  36.024  51.644  0.00  0.00    -0.294 NA
ATOM     13  C   UNL d   1      46.786  35.629  51.424  0.00  0.00     0.104 A 
ATOM     14  C   UNL d   1      46.280  35.574  50.772  0.00  0.00     0.029 C 
ATOM     15  C   UNL d   1      47.366  35.204  51.020  0.00  0.00     0.029 C 
ATOM     16  S   UNL d   1      48.164  35.225  51.889  0.00  0.00    -0.070 SA
BRANCH   5  17
ATOM     17  C   UNL d   1      48.255  36.022  53.861  0.00  0.00     0.299 C 
ATOM     18  O   UNL d   1      48.725  36.696  53.964  0.00  0.00    -0.264 OA
ATOM     19  N   UNL d   1      47.982  35.601  54.516  0.00  0.00    -0.102 N 
ENDBRANCH   5  17
ENDBRANCH   1   4
BRANCH   2  20
ATOM     20  C   UNL d   1      50.401  34.187  52.549  0.00  0.00     0.058 A 
ATOM     21  C   UNL d   1      51.047  34.490  52.134  0.00  0.00     0.005 A 
ATOM     22  C   UNL d   1      51.813  34.230  52.309  0.00  0.00     0.003 A 
ATOM     23  C   UNL d   1      51.933  33.666  52.899  0.00  0.00     0.039 A 
ATOM     24  C   UNL d   1      51.293  33.369  53.306  0.00  0.00     0.003 A 
ATOM     25  C   UNL d   1      50.526  33.630  53.131  0.00  0.00     0.005 A 
BRANCH  23  26
ATOM     26  C   UNL d   1      52.697  33.409  53.070  0.00  0.00     0.196 C 
ATOM     27  O   UNL d   1      53.079  32.894  52.563  0.00  0.00    -0.287 OA
BRANCH  26  28
ATOM     28  C   UNL d   1      53.073  33.672  53.752  0.00  0.00     0.039 A 
ATOM     29  C   UNL d   1      53.227  34.467  53.864  0.00  0.00     0.003 A 
ATOM     30  C   UNL d   1      53.603  34.730  54.545  0.00  0.00     0.000 A 
ATOM     31  C   UNL d   1      53.828  34.184  55.124  0.00  0.00     0.000 A 
ATOM     32  C   UNL d   1      53.674  33.379  55.016  0.00  0.00     0.000 A 
ATOM     33  C   UNL d   1      53.297  33.126  54.330  0.00  0.00     0.003 A 
ENDBRANCH  26  28
ENDBRANCH  23  26
ENDBRANCH   2  20
TORSDOF 5
ENDMDL
