MODEL 1
REMARK VINA RESULT:      10.1      0.000      0.000
REMARK  5 active torsions:
REMARK  status: ('A' for Active; 'I' for Inactive)
REMARK    1  A    between atoms: C_2  and  C_1 
REMARK    2  A    between atoms: C_3  and  C_1 
REMARK    3  A    between atoms: C_4  and  C_2 
REMARK    4  A    between atoms: C_6  and  C_3 
REMARK    5  A    between atoms: P_5  and  C_4 
ROOT
ATOM      1  C   UNL d   1      58.940  49.677  50.941  0.00  0.00     0.389 C 
ATOM      2  F   UNL d   1      58.848  49.684  51.756  0.00  0.00    -0.191 F 
ATOM      3  F   UNL d   1      59.030  49.671  50.105  0.00  0.00    -0.191 F 
ENDROOT
BRANCH   1   4
ATOM      4  C   UNL d   1      58.097  49.684  50.844  0.00  0.00     0.387 C 
ATOM      5  F   UNL d   1      58.200  49.661  50.025  0.00  0.00    -0.190 F 
ATOM      6  F   UNL d   1      58.000  49.708  51.683  0.00  0.00    -0.190 F 
BRANCH   4   7
ATOM      7  C   UNL d   1      57.281  49.691  50.741  0.00  0.00     0.329 C 
ATOM      8  O   UNL d   1      56.771  49.706  51.392  0.00  0.00    -0.275 OA
BRANCH   7   9
ATOM      9  P   UNL d   1      56.951  49.683  49.968  0.00  0.00     0.339 P 
ATOM     10  O   UNL d   1      56.194  49.662  50.283  0.00  0.00    -0.634 OA
ATOM     11  O   UNL d   1      57.716  49.704  49.645  0.00  0.00    -0.634 OA
ATOM     12  O   UNL d   1      56.647  49.675  49.211  0.00  0.00    -0.634 OA
ENDBRANCH   7   9
ENDBRANCH   4   7
ENDBRANCH   1   4
BRANCH   1  13
ATOM     13  C   UNL d   1      59.757  49.670  51.026  0.00  0.00     0.393 C 
ATOM     14  F   UNL d   1      59.841  49.667  50.204  0.00  0.00    -0.188 F 
ATOM     15  F   UNL d   1      59.679  49.673  51.863  0.00  0.00    -0.188 F 
BRANCH  13  16
ATOM     16  C   UNL d   1      60.578  49.663  51.105  0.00  0.00     0.322 C 
ATOM     17  F   UNL d   1      60.916  49.697  51.859  0.00  0.00    -0.171 F 
ATOM     18  F   UNL d   1      61.064  49.623  50.438  0.00  0.00    -0.171 F 
ENDBRANCH  13  16
ENDBRANCH   1  13
TORSDOF 5
ENDMDL
