MODEL 1
REMARK VINA RESULT:      15.7      0.000      0.000
REMARK  2 active torsions:
REMARK  status: ('A' for Active; 'I' for Inactive)
REMARK    1  A    between atoms: S_4  and  C_1 
REMARK    2  A    between atoms: C_9  and  S_4 
ROOT
ATOM      1  C   UNL d   1      45.203 -14.341  44.834  0.00  0.00     0.107 A 
ATOM      2  C   UNL d   1      44.518 -14.813  44.858  0.00  0.00     0.201 A 
ATOM      3  C   UNL d   1      45.940 -14.646  44.851  0.00  0.00     0.201 A 
ATOM      4  C   UNL d   1      45.391 -15.961  44.919  0.00  0.00     0.043 A 
ATOM      5  C   UNL d   1      44.614 -15.636  44.901  0.00  0.00     0.020 A 
ATOM      6  C   UNL d   1      46.048 -15.459  44.894  0.00  0.00     0.020 A 
ATOM      7  O   UNL d   1      46.571 -14.133  44.825  0.00  0.00    -0.286 OA
ATOM      8  O   UNL d   1      43.755 -14.511  44.841  0.00  0.00    -0.286 OA
ATOM      9  C   UNL d   1      45.981 -16.508  44.949  0.00  0.00     0.009 C 
ATOM     10  C   UNL d   1      44.946 -16.649  44.955  0.00  0.00     0.009 C 
ENDROOT
BRANCH   1  11
ATOM     11  S   UNL d   1      45.118 -13.493  44.790  0.00  0.00    -0.081 SA
BRANCH  11  12
ATOM     12  C   UNL d   1      45.113 -13.128  44.029  0.00  0.00     0.030 A 
ATOM     13  C   UNL d   1      45.762 -12.697  43.753  0.00  0.00     0.007 A 
ATOM     14  C   UNL d   1      45.726 -12.353  43.004  0.00  0.00     0.007 A 
ATOM     15  C   UNL d   1      45.057 -12.434  42.535  0.00  0.00     0.035 A 
ATOM     16  C   UNL d   1      44.416 -12.867  42.822  0.00  0.00     0.007 A 
ATOM     17 BR   UNL d   1      45.035 -12.080  41.780  0.00  0.00    -0.049 Br
ATOM     18  C   UNL d   1      44.435 -13.217  43.567  0.00  0.00     0.007 A 
ENDBRANCH  11  12
ENDBRANCH   1  11
TORSDOF 2
ENDMDL
