MODEL 1
REMARK VINA RESULT:     -11.0      0.000      0.000
REMARK  2 active torsions:
REMARK  status: ('A' for Active; 'I' for Inactive)
REMARK    1  A    between atoms: C_8  and  C_6 
REMARK    2  A    between atoms: C_9  and  C_8 
ROOT
ATOM      1  N   UNL d   1      52.539  32.562  52.837  0.00  0.00    -0.207 NA
ATOM      2  N   UNL d   1      53.583  31.912  53.970  0.00  0.00    -0.240 NA
ATOM      3  C   UNL d   1      52.798  31.794  52.978  0.00  0.00     0.297 A 
ATOM      4  C   UNL d   1      52.733  33.255  53.235  0.00  0.00     0.086 A 
ATOM      5  C   UNL d   1      53.627  32.698  54.206  0.00  0.00     0.083 A 
ATOM      6  C   UNL d   1      53.146  31.588  53.357  0.00  0.00     0.144 A 
ATOM      7  C   UNL d   1      53.241  33.354  53.883  0.00  0.00     0.035 A 
ATOM      8  O   UNL d   1      52.494  31.277  52.484  0.00  0.00    -0.264 OA
ATOM      9  C   UNL d   1      53.361  34.101  54.203  0.00  0.00     0.003 A 
ATOM     10  C   UNL d   1      54.131  32.792  54.847  0.00  0.00     0.019 A 
ATOM     11  C   UNL d   1      52.345  33.915  52.911  0.00  0.00     0.019 A 
ATOM     12  C   UNL d   1      52.468  34.667  53.236  0.00  0.00     0.002 A 
ATOM     13  C   UNL d   1      54.251  33.539  55.168  0.00  0.00     0.002 A 
ATOM     14  C   UNL d   1      53.865  34.195  54.844  0.00  0.00     0.000 A 
ATOM     15  C   UNL d   1      52.976  34.754  53.881  0.00  0.00     0.000 A 
ENDROOT
BRANCH   6  16
ATOM     16  C   UNL d   1      53.024  30.838  53.034  0.00  0.00     0.088 C 
BRANCH  16  17
ATOM     17  C   UNL d   1      53.364  30.161  53.385  0.00  0.00     0.299 C 
ATOM     18  O   UNL d   1      54.152  29.983  53.232  0.00  0.00    -0.264 OA
ATOM     19  N   UNL d   1      52.917  29.671  53.882  0.00  0.00    -0.102 N 
ENDBRANCH  16  17
ENDBRANCH   6  16
TORSDOF 2
ENDMDL
MODEL 2
REMARK VINA RESULT:     -10.4      1.855      3.146
REMARK  2 active torsions:
REMARK  status: ('A' for Active; 'I' for Inactive)
REMARK    1  A    between atoms: C_8  and  C_6 
REMARK    2  A    between atoms: C_9  and  C_8 
ROOT
ATOM      1  N   UNL d   1      52.898  34.448  54.078  0.00  0.00    -0.207 NA
ATOM      2  N   UNL d   1      52.286  33.252  53.082  0.00  0.00    -0.240 NA
ATOM      3  C   UNL d   1      52.281  34.439  53.534  0.00  0.00     0.297 A 
ATOM      4  C   UNL d   1      53.409  33.839  54.291  0.00  0.00     0.086 A 
ATOM      5  C   UNL d   1      52.885  32.815  53.438  0.00  0.00     0.083 A 
ATOM      6  C   UNL d   1      52.085  34.036  53.208  0.00  0.00     0.144 A 
ATOM      7  C   UNL d   1      53.430  33.060  54.010  0.00  0.00     0.035 A 
ATOM      8  O   UNL d   1      51.917  35.123  53.479  0.00  0.00    -0.264 OA
ATOM      9  C   UNL d   1      53.990  32.532  54.297  0.00  0.00     0.003 A 
ATOM     10  C   UNL d   1      52.903  32.043  53.157  0.00  0.00     0.019 A 
ATOM     11  C   UNL d   1      53.957  34.085  54.866  0.00  0.00     0.019 A 
ATOM     12  C   UNL d   1      54.521  33.551  55.153  0.00  0.00     0.002 A 
ATOM     13  C   UNL d   1      53.463  31.516  53.444  0.00  0.00     0.002 A 
ATOM     14  C   UNL d   1      54.008  31.761  54.016  0.00  0.00     0.000 A 
ATOM     15  C   UNL d   1      54.533  32.776  54.866  0.00  0.00     0.000 A 
ENDROOT
BRANCH   6  16
ATOM     16  C   UNL d   1      51.523  34.567  52.920  0.00  0.00     0.088 C 
BRANCH  16  17
ATOM     17  C   UNL d   1      50.938  34.320  52.379  0.00  0.00     0.299 C 
ATOM     18  O   UNL d   1      51.128  34.264  51.581  0.00  0.00    -0.264 OA
ATOM     19  N   UNL d   1      50.174  34.131  52.638  0.00  0.00    -0.102 N 
ENDBRANCH  16  17
ENDBRANCH   6  16
TORSDOF 2
ENDMDL
MODEL 3
REMARK VINA RESULT:      -8.9      1.528      2.821
REMARK  2 active torsions:
REMARK  status: ('A' for Active; 'I' for Inactive)
REMARK    1  A    between atoms: C_8  and  C_6 
REMARK    2  A    between atoms: C_9  and  C_8 
ROOT
ATOM      1  N   UNL d   1      52.801  32.743  53.409  0.00  0.00    -0.207 NA
ATOM      2  N   UNL d   1      52.228  34.314  53.421  0.00  0.00    -0.240 NA
ATOM      3  C   UNL d   1      52.201  33.119  52.990  0.00  0.00     0.297 A 
ATOM      4  C   UNL d   1      53.309  33.053  53.978  0.00  0.00     0.086 A 
ATOM      5  C   UNL d   1      52.818  34.399  53.987  0.00  0.00     0.083 A 
ATOM      6  C   UNL d   1      52.018  33.642  53.001  0.00  0.00     0.144 A 
ATOM      7  C   UNL d   1      53.343  33.827  54.272  0.00  0.00     0.035 A 
ATOM      8  O   UNL d   1      51.835  32.645  52.495  0.00  0.00    -0.264 OA
ATOM      9  C   UNL d   1      53.897  34.026  54.845  0.00  0.00     0.003 A 
ATOM     10  C   UNL d   1      52.849  35.167  54.277  0.00  0.00     0.019 A 
ATOM     11  C   UNL d   1      53.837  32.479  54.263  0.00  0.00     0.019 A 
ATOM     12  C   UNL d   1      54.394  32.683  54.841  0.00  0.00     0.002 A 
ATOM     13  C   UNL d   1      53.403  35.366  54.850  0.00  0.00     0.002 A 
ATOM     14  C   UNL d   1      53.928  34.794  55.135  0.00  0.00     0.000 A 
ATOM     15  C   UNL d   1      54.420  33.457  55.128  0.00  0.00     0.000 A 
ENDROOT
BRANCH   6  16
ATOM     16  C   UNL d   1      51.462  33.441  52.425  0.00  0.00     0.088 C 
BRANCH  16  17
ATOM     17  C   UNL d   1      50.953  34.018  52.101  0.00  0.00     0.299 C 
ATOM     18  O   UNL d   1      51.183  34.419  51.422  0.00  0.00    -0.264 OA
ATOM     19  N   UNL d   1      50.225  34.188  52.457  0.00  0.00    -0.102 N 
ENDBRANCH  16  17
ENDBRANCH   6  16
TORSDOF 2
ENDMDL
MODEL 4
REMARK VINA RESULT:      -8.9      1.871      2.992
REMARK  2 active torsions:
REMARK  status: ('A' for Active; 'I' for Inactive)
REMARK    1  A    between atoms: C_8  and  C_6 
REMARK    2  A    between atoms: C_9  and  C_8 
ROOT
ATOM      1  N   UNL d   1      52.788  34.543  54.114  0.00  0.00    -0.207 NA
ATOM      2  N   UNL d   1      53.656  33.115  54.164  0.00  0.00    -0.240 NA
ATOM      3  C   UNL d   1      53.478  34.325  54.505  0.00  0.00     0.297 A 
ATOM      4  C   UNL d   1      52.312  34.095  53.615  0.00  0.00     0.086 A 
ATOM      5  C   UNL d   1      53.056  32.871  53.658  0.00  0.00     0.083 A 
ATOM      6  C   UNL d   1      53.759  33.848  54.515  0.00  0.00     0.144 A 
ATOM      7  C   UNL d   1      52.409  33.306  53.380  0.00  0.00     0.035 A 
ATOM      8  O   UNL d   1      53.778  34.901  54.932  0.00  0.00    -0.264 OA
ATOM      9  C   UNL d   1      51.865  32.957  52.872  0.00  0.00     0.003 A 
ATOM     10  C   UNL d   1      53.155  32.089  53.426  0.00  0.00     0.019 A 
ATOM     11  C   UNL d   1      51.663  34.532  53.336  0.00  0.00     0.019 A 
ATOM     12  C   UNL d   1      51.116  34.176  52.824  0.00  0.00     0.002 A 
ATOM     13  C   UNL d   1      52.612  31.740  52.919  0.00  0.00     0.002 A 
ATOM     14  C   UNL d   1      51.965  32.175  52.642  0.00  0.00     0.000 A 
ATOM     15  C   UNL d   1      51.222  33.390  52.596  0.00  0.00     0.000 A 
ENDROOT
BRANCH   6  16
ATOM     16  C   UNL d   1      54.304  34.200  55.025  0.00  0.00     0.088 C 
BRANCH  16  17
ATOM     17  C   UNL d   1      54.972  33.778  55.295  0.00  0.00     0.299 C 
ATOM     18  O   UNL d   1      54.896  33.279  55.944  0.00  0.00    -0.264 OA
ATOM     19  N   UNL d   1      55.705  33.858  54.917  0.00  0.00    -0.102 N 
ENDBRANCH  16  17
ENDBRANCH   6  16
TORSDOF 2
ENDMDL
MODEL 5
REMARK VINA RESULT:      -8.5      1.878      3.283
REMARK  2 active torsions:
REMARK  status: ('A' for Active; 'I' for Inactive)
REMARK    1  A    between atoms: C_8  and  C_6 
REMARK    2  A    between atoms: C_9  and  C_8 
ROOT
ATOM      1  N   UNL d   1      52.462  33.509  53.017  0.00  0.00    -0.207 NA
ATOM      2  N   UNL d   1      53.364  33.887  54.374  0.00  0.00    -0.240 NA
ATOM      3  C   UNL d   1      52.609  34.218  53.407  0.00  0.00     0.297 A 
ATOM      4  C   UNL d   1      52.733  32.753  53.197  0.00  0.00     0.086 A 
ATOM      5  C   UNL d   1      53.506  33.077  54.359  0.00  0.00     0.083 A 
ATOM      6  C   UNL d   1      52.910  34.333  53.858  0.00  0.00     0.144 A 
ATOM      7  C   UNL d   1      53.225  32.516  53.820  0.00  0.00     0.035 A 
ATOM      8  O   UNL d   1      52.256  34.824  53.074  0.00  0.00    -0.264 OA
ATOM      9  C   UNL d   1      53.433  31.725  53.903  0.00  0.00     0.003 A 
ATOM     10  C   UNL d   1      53.993  32.845  54.978  0.00  0.00     0.019 A 
ATOM     11  C   UNL d   1      52.451  32.189  52.656  0.00  0.00     0.019 A 
ATOM     12  C   UNL d   1      52.663  31.392  52.743  0.00  0.00     0.002 A 
ATOM     13  C   UNL d   1      54.202  32.055  55.061  0.00  0.00     0.002 A 
ATOM     14  C   UNL d   1      53.921  31.494  54.523  0.00  0.00     0.000 A 
ATOM     15  C   UNL d   1      53.153  31.166  53.367  0.00  0.00     0.000 A 
ENDROOT
BRANCH   6  16
ATOM     16  C   UNL d   1      52.700  35.127  53.773  0.00  0.00     0.088 C 
BRANCH  16  17
ATOM     17  C   UNL d   1      52.957  35.699  54.324  0.00  0.00     0.299 C 
ATOM     18  O   UNL d   1      53.692  36.052  54.222  0.00  0.00    -0.264 OA
ATOM     19  N   UNL d   1      52.480  35.911  54.968  0.00  0.00    -0.102 N 
ENDBRANCH  16  17
ENDBRANCH   6  16
TORSDOF 2
ENDMDL
