MODEL 1
REMARK VINA RESULT:      18.0      0.000      0.000
REMARK  6 active torsions:
REMARK  status: ('A' for Active; 'I' for Inactive)
REMARK    1  A    between atoms: C_2  and  S_1 
REMARK    2  A    between atoms: C_13  and  S_1 
REMARK    3  A    between atoms: C_5  and  C_3 
REMARK    4  A    between atoms: C_16  and  C_5 
REMARK    5  A    between atoms: O_30  and  C_24 
REMARK    6  A    between atoms: C_33  and  O_30 
ROOT
ATOM      1  C   UNL d   1      56.646   0.040  33.916  0.00  0.00     0.094 A 
ATOM      2  C   UNL d   1      55.859   0.046  34.159  0.00  0.00     0.069 A 
ATOM      3  C   UNL d   1      57.244   0.200  34.457  0.00  0.00     0.031 A 
ATOM      4  C   UNL d   1      57.056   0.367  35.244  0.00  0.00     0.084 A 
ATOM      5  C   UNL d   1      58.031   0.195  34.214  0.00  0.00     0.029 A 
ATOM      6  N   UNL d   1      56.270   0.373  35.488  0.00  0.00    -0.244 NA
ATOM      7  C   UNL d   1      55.671   0.212  34.946  0.00  0.00     0.103 A 
ATOM      8  C   UNL d   1      57.655   0.527  35.786  0.00  0.00     0.046 A 
ATOM      9  C   UNL d   1      58.629   0.355  34.756  0.00  0.00     0.123 A 
ATOM     10  C   UNL d   1      58.441   0.522  35.543  0.00  0.00     0.124 A 
ATOM     11  O   UNL d   1      59.416   0.349  34.512  0.00  0.00    -0.301 OA
ATOM     12  O   UNL d   1      59.040   0.682  36.084  0.00  0.00    -0.301 OA
ATOM     13  C   UNL d   1      60.026   0.511  35.057  0.00  0.00     0.149 A 
ATOM     14  C   UNL d   1      59.838   0.678  35.844  0.00  0.00     0.149 A 
ENDROOT
BRANCH   1  15
ATOM     15  S   UNL d   1      56.838  -0.126  33.131  0.00  0.00     0.210 S 
ATOM     16  O   UNL d   1      56.868   0.682  32.964  0.00  0.00    -0.217 OA
ATOM     17  O   UNL d   1      56.807  -0.933  33.298  0.00  0.00    -0.217 OA
BRANCH  15  18
ATOM     18  C   UNL d   1      57.029  -0.299  32.347  0.00  0.00     0.088 A 
ATOM     19  C   UNL d   1      57.141  -1.079  32.114  0.00  0.00     0.013 A 
ATOM     20  C   UNL d   1      57.334  -1.250  31.325  0.00  0.00     0.025 A 
ATOM     21  C   UNL d   1      57.412  -0.639  30.779  0.00  0.00     0.100 A 
ATOM     22  C   UNL d   1      57.301   0.139  31.008  0.00  0.00     0.025 A 
ATOM     23  C   UNL d   1      57.107   0.311  31.801  0.00  0.00     0.013 A 
BRANCH  21  24
ATOM     24  O   UNL d   1      57.605  -0.810  29.987  0.00  0.00    -0.305 OA
BRANCH  24  25
ATOM     25  C   UNL d   1      58.237  -1.309  29.814  0.00  0.00     0.123 C 
ATOM     26  C   UNL d   1      58.104  -2.010  29.402  0.00  0.00     0.029 C 
ENDBRANCH  24  25
ENDBRANCH  21  24
ENDBRANCH  15  18
ENDBRANCH   1  15
BRANCH   2  27
ATOM     27  C   UNL d   1      55.248  -0.116  33.615  0.00  0.00     0.198 C 
ATOM     28  O   UNL d   1      55.435  -0.423  32.872  0.00  0.00    -0.286 OA
BRANCH  27  29
ATOM     29  C   UNL d   1      54.463   0.031  33.820  0.00  0.00     0.039 A 
ATOM     30  C   UNL d   1      53.843  -0.321  33.394  0.00  0.00     0.003 A 
ATOM     31  C   UNL d   1      53.057  -0.174  33.598  0.00  0.00     0.000 A 
ATOM     32  C   UNL d   1      52.877   0.326  34.230  0.00  0.00     0.000 A 
ATOM     33  C   UNL d   1      53.509   0.682  34.660  0.00  0.00     0.000 A 
ATOM     34  C   UNL d   1      52.095   0.476  34.439  0.00  0.00     0.000 C 
ATOM     35  C   UNL d   1      54.293   0.538  34.459  0.00  0.00     0.003 A 
ENDBRANCH  27  29
ENDBRANCH   2  27
TORSDOF 6
ENDMDL
