MODEL 1
REMARK VINA RESULT:      -5.5      0.000      0.000
REMARK  11 active torsions:
REMARK  status: ('A' for Active; 'I' for Inactive)
REMARK    1  A    between atoms: S_2  and  N_15 
REMARK    2  A    between atoms: C_10  and  S_2 
REMARK    3  A    between atoms: C_14  and  C_4 
REMARK    4  A    between atoms: N_16  and  C_8 
REMARK    5  A    between atoms: C_19  and  C_14 
REMARK    6  A    between atoms: N_15  and  C_19 
REMARK    7  A    between atoms: C_24  and  N_16 
REMARK    8  A    between atoms: N_20  and  C_25 
REMARK    9  A    between atoms: C_26  and  N_20 
REMARK   10  A    between atoms: C_27  and  N_20 
REMARK   11  A    between atoms: C_25  and  C_24 
ROOT
ATOM      1  N   UNL d   1     -44.748  12.678  22.305  0.00  0.00    -0.190 N 
ATOM      2  C   UNL d   1     -44.502  12.011  22.722  0.00  0.00     0.187 A 
ATOM      3  C   UNL d   1     -45.507  12.885  22.578  0.00  0.00     0.188 A 
ATOM      4  N   UNL d   1     -44.255  13.011  21.735  0.00  0.00    -0.143 NA
ATOM      5  N   UNL d   1     -45.114  11.807  23.253  0.00  0.00    -0.127 NA
ATOM      6  N   UNL d   1     -45.723  12.346  23.158  0.00  0.00    -0.127 NA
ATOM      7  C   UNL d   1     -43.516  12.676  21.582  0.00  0.00     0.182 A 
ATOM      8  C   UNL d   1     -43.763  11.677  22.568  0.00  0.00     0.044 A 
ATOM      9  C   UNL d   1     -43.270  12.009  21.999  0.00  0.00     0.044 A 
ENDROOT
BRANCH   3  10
ATOM     10  C   UNL d   1     -45.961  13.516  22.314  0.00  0.00     0.062 C 
BRANCH  10  11
ATOM     11  C   UNL d   1     -46.733  13.608  22.577  0.00  0.00     0.115 C 
BRANCH  11  12
ATOM     12  N   UNL d   1     -47.224  14.155  22.201  0.00  0.00    -0.157 NA
BRANCH  12  13
ATOM     13  S   UNL d   1     -47.970  14.316  22.502  0.00  0.00     0.285 S 
ATOM     14  O   UNL d   1     -48.309  13.803  21.948  0.00  0.00    -0.198 OA
ATOM     15  O   UNL d   1     -47.641  14.832  23.059  0.00  0.00    -0.198 OA
BRANCH  13  16
ATOM     16  C   UNL d   1     -48.721  14.474  22.799  0.00  0.00     0.105 A 
ATOM     17  C   UNL d   1     -49.179  13.861  23.124  0.00  0.00     0.013 A 
ATOM     18  C   UNL d   1     -49.922  14.020  23.418  0.00  0.00     0.001 A 
ATOM     19  C   UNL d   1     -50.223  14.790  23.392  0.00  0.00     0.000 A 
ATOM     20  C   UNL d   1     -49.783  15.396  23.076  0.00  0.00     0.001 A 
ATOM     21  C   UNL d   1     -50.986  14.943  23.695  0.00  0.00     0.000 C 
ATOM     22  C   UNL d   1     -49.031  15.251  22.776  0.00  0.00     0.013 A 
ENDBRANCH  13  16
ENDBRANCH  12  13
ENDBRANCH  11  12
ENDBRANCH  10  11
ENDBRANCH   3  10
BRANCH   7  23
ATOM     23  N   UNL d   1     -43.011  13.004  21.010  0.00  0.00    -0.222 NA
BRANCH  23  24
ATOM     24  C   UNL d   1     -42.347  13.452  21.263  0.00  0.00     0.120 C 
BRANCH  24  25
ATOM     25  C   UNL d   1     -41.915  13.881  20.713  0.00  0.00     0.101 C 
BRANCH  25  26
ATOM     26  N   UNL d   1     -41.235  14.288  20.948  0.00  0.00    -0.301 N 
BRANCH  26  27
ATOM     27  C   UNL d   1     -41.256  15.103  21.091  0.00  0.00     0.080 C 
ATOM     28  C   UNL d   1     -41.231  15.634  20.448  0.00  0.00     0.021 C 
ENDBRANCH  26  27
BRANCH  26  29
ATOM     29  C   UNL d   1     -40.516  13.877  21.044  0.00  0.00     0.080 C 
ATOM     30  C   UNL d   1     -39.888  14.246  21.444  0.00  0.00     0.021 C 
ENDBRANCH  26  29
ENDBRANCH  25  26
ENDBRANCH  24  25
ENDBRANCH  23  24
ENDBRANCH   7  23
TORSDOF 11
ENDMDL
MODEL 2
REMARK VINA RESULT:      -5.0      2.250      6.720
REMARK  11 active torsions:
REMARK  status: ('A' for Active; 'I' for Inactive)
REMARK    1  A    between atoms: S_2  and  N_15 
REMARK    2  A    between atoms: C_10  and  S_2 
REMARK    3  A    between atoms: C_14  and  C_4 
REMARK    4  A    between atoms: N_16  and  C_8 
REMARK    5  A    between atoms: C_19  and  C_14 
REMARK    6  A    between atoms: N_15  and  C_19 
REMARK    7  A    between atoms: C_24  and  N_16 
REMARK    8  A    between atoms: N_20  and  C_25 
REMARK    9  A    between atoms: C_26  and  N_20 
REMARK   10  A    between atoms: C_27  and  N_20 
REMARK   11  A    between atoms: C_25  and  C_24 
ROOT
ATOM      1  N   UNL d   1     -44.604  12.726  22.186  0.00  0.00    -0.190 N 
ATOM      2  C   UNL d   1     -44.723  12.059  22.654  0.00  0.00     0.187 A 
ATOM      3  C   UNL d   1     -43.859  12.655  21.823  0.00  0.00     0.188 A 
ATOM      4  N   UNL d   1     -45.184  13.310  22.148  0.00  0.00    -0.143 NA
ATOM      5  N   UNL d   1     -44.047  11.575  22.580  0.00  0.00    -0.127 NA
ATOM      6  N   UNL d   1     -43.524  11.946  22.070  0.00  0.00    -0.127 NA
ATOM      7  C   UNL d   1     -45.884  13.226  22.579  0.00  0.00     0.182 A 
ATOM      8  C   UNL d   1     -45.422  11.976  23.086  0.00  0.00     0.044 A 
ATOM      9  C   UNL d   1     -46.002  12.559  23.048  0.00  0.00     0.044 A 
ENDROOT
BRANCH   3  10
ATOM     10  C   UNL d   1     -43.516  13.195  21.309  0.00  0.00     0.062 C 
BRANCH  10  11
ATOM     11  C   UNL d   1     -42.707  13.334  21.334  0.00  0.00     0.115 C 
BRANCH  11  12
ATOM     12  N   UNL d   1     -42.353  13.761  20.723  0.00  0.00    -0.157 NA
BRANCH  12  13
ATOM     13  S   UNL d   1     -41.665  14.185  20.859  0.00  0.00     0.285 S 
ATOM     14  O   UNL d   1     -42.111  14.855  21.054  0.00  0.00    -0.198 OA
ATOM     15  O   UNL d   1     -41.210  13.522  20.666  0.00  0.00    -0.198 OA
BRANCH  13  16
ATOM     16  C   UNL d   1     -40.977  14.617  20.998  0.00  0.00     0.105 A 
ATOM     17  C   UNL d   1     -40.962  15.435  20.854  0.00  0.00     0.013 A 
ATOM     18  C   UNL d   1     -40.280  15.860  20.992  0.00  0.00     0.001 A 
ATOM     19  C   UNL d   1     -39.603  15.479  21.275  0.00  0.00     0.000 A 
ATOM     20  C   UNL d   1     -39.608  14.678  21.419  0.00  0.00     0.001 A 
ATOM     21  C   UNL d   1     -38.910  15.922  21.414  0.00  0.00     0.000 C 
ATOM     22  C   UNL d   1     -40.289  14.236  21.285  0.00  0.00     0.013 A 
ENDBRANCH  13  16
ENDBRANCH  12  13
ENDBRANCH  11  12
ENDBRANCH  10  11
ENDBRANCH   3  10
BRANCH   7  23
ATOM     23  N   UNL d   1     -46.474  13.809  22.548  0.00  0.00    -0.222 NA
BRANCH  23  24
ATOM     24  C   UNL d   1     -47.270  13.573  22.413  0.00  0.00     0.120 C 
BRANCH  24  25
ATOM     25  C   UNL d   1     -47.853  14.144  22.334  0.00  0.00     0.101 C 
BRANCH  25  26
ATOM     26  N   UNL d   1     -48.637  13.919  22.200  0.00  0.00    -0.301 N 
BRANCH  26  27
ATOM     27  C   UNL d   1     -48.848  13.496  21.521  0.00  0.00     0.080 C 
ATOM     28  C   UNL d   1     -49.536  13.026  21.527  0.00  0.00     0.021 C 
ENDBRANCH  26  27
BRANCH  26  29
ATOM     29  C   UNL d   1     -49.227  14.118  22.755  0.00  0.00     0.080 C 
ATOM     30  C   UNL d   1     -49.398  14.919  22.895  0.00  0.00     0.021 C 
ENDBRANCH  26  29
ENDBRANCH  25  26
ENDBRANCH  24  25
ENDBRANCH  23  24
ENDBRANCH   7  23
TORSDOF 11
ENDMDL
MODEL 3
REMARK VINA RESULT:      -3.9      2.695      4.611
REMARK  11 active torsions:
REMARK  status: ('A' for Active; 'I' for Inactive)
REMARK    1  A    between atoms: S_2  and  N_15 
REMARK    2  A    between atoms: C_10  and  S_2 
REMARK    3  A    between atoms: C_14  and  C_4 
REMARK    4  A    between atoms: N_16  and  C_8 
REMARK    5  A    between atoms: C_19  and  C_14 
REMARK    6  A    between atoms: N_15  and  C_19 
REMARK    7  A    between atoms: C_24  and  N_16 
REMARK    8  A    between atoms: N_20  and  C_25 
REMARK    9  A    between atoms: C_26  and  N_20 
REMARK   10  A    between atoms: C_27  and  N_20 
REMARK   11  A    between atoms: C_25  and  C_24 
ROOT
ATOM      1  N   UNL d   1     -41.003  14.097  20.560  0.00  0.00    -0.190 N 
ATOM      2  C   UNL d   1     -40.365  14.398  20.988  0.00  0.00     0.187 A 
ATOM      3  C   UNL d   1     -41.478  13.660  21.084  0.00  0.00     0.188 A 
ATOM      4  N   UNL d   1     -41.069  14.258  19.755  0.00  0.00    -0.143 NA
ATOM      5  N   UNL d   1     -40.450  14.143  21.779  0.00  0.00    -0.127 NA
ATOM      6  N   UNL d   1     -41.133  13.693  21.828  0.00  0.00    -0.127 NA
ATOM      7  C   UNL d   1     -40.498  14.719  19.377  0.00  0.00     0.182 A 
ATOM      8  C   UNL d   1     -39.794  14.859  20.609  0.00  0.00     0.044 A 
ATOM      9  C   UNL d   1     -39.861  15.019  19.804  0.00  0.00     0.044 A 
ENDROOT
BRANCH   3  10
ATOM     10  C   UNL d   1     -42.172  13.264  20.893  0.00  0.00     0.062 C 
BRANCH  10  11
ATOM     11  C   UNL d   1     -42.767  13.178  21.452  0.00  0.00     0.115 C 
BRANCH  11  12
ATOM     12  N   UNL d   1     -43.365  12.624  21.323  0.00  0.00    -0.157 NA
BRANCH  12  13
ATOM     13  S   UNL d   1     -44.070  12.672  21.737  0.00  0.00     0.285 S 
ATOM     14  O   UNL d   1     -43.837  12.037  22.215  0.00  0.00    -0.198 OA
ATOM     15  O   UNL d   1     -44.313  13.307  21.265  0.00  0.00    -0.198 OA
BRANCH  13  16
ATOM     16  C   UNL d   1     -44.777  12.715  22.158  0.00  0.00     0.105 A 
ATOM     17  C   UNL d   1     -45.224  13.416  22.154  0.00  0.00     0.013 A 
ATOM     18  C   UNL d   1     -45.923  13.455  22.571  0.00  0.00     0.001 A 
ATOM     19  C   UNL d   1     -46.189  12.800  22.999  0.00  0.00     0.000 A 
ATOM     20  C   UNL d   1     -45.758  12.110  23.010  0.00  0.00     0.001 A 
ATOM     21  C   UNL d   1     -46.905  12.850  23.423  0.00  0.00     0.000 C 
ATOM     22  C   UNL d   1     -45.051  12.054  22.593  0.00  0.00     0.013 A 
ENDBRANCH  13  16
ENDBRANCH  12  13
ENDBRANCH  11  12
ENDBRANCH  10  11
ENDBRANCH   3  10
BRANCH   7  23
ATOM     23  N   UNL d   1     -40.555  14.887  18.566  0.00  0.00    -0.222 NA
BRANCH  23  24
ATOM     24  C   UNL d   1     -39.931  14.647  18.056  0.00  0.00     0.120 C 
BRANCH  24  25
ATOM     25  C   UNL d   1     -39.913  14.920  17.283  0.00  0.00     0.101 C 
BRANCH  25  26
ATOM     26  N   UNL d   1     -39.262  14.754  16.801  0.00  0.00    -0.301 N 
BRANCH  26  27
ATOM     27  C   UNL d   1     -38.755  15.358  16.550  0.00  0.00     0.080 C 
ATOM     28  C   UNL d   1     -39.022  15.908  15.982  0.00  0.00     0.021 C 
ENDBRANCH  26  27
BRANCH  26  29
ATOM     29  C   UNL d   1     -39.109  13.970  16.564  0.00  0.00     0.080 C 
ATOM     30  C   UNL d   1     -38.329  13.742  16.394  0.00  0.00     0.021 C 
ENDBRANCH  26  29
ENDBRANCH  25  26
ENDBRANCH  24  25
ENDBRANCH  23  24
ENDBRANCH   7  23
TORSDOF 11
ENDMDL
