MODEL 1
REMARK VINA RESULT:      -4.8      0.000      0.000
REMARK  5 active torsions:
REMARK  status: ('A' for Active; 'I' for Inactive)
REMARK    1  A    between atoms: N_2  and  S_1 
REMARK    2  A    between atoms: C_6  and  S_1 
REMARK       I    between atoms: C_3  and  N_4 
REMARK    3  A    between atoms: C_5  and  C_3 
REMARK    4  A    between atoms: C_11  and  O_13 
REMARK    5  A    between atoms: O_13  and  C_23 
ROOT
ATOM      1  S   UNL d   1     -41.466-122.772 -51.653  0.00  0.00     0.271 S 
ATOM      2  O   UNL d   1     -41.271-123.381 -52.182  0.00  0.00    -0.200 OA
ATOM      3  O   UNL d   1     -41.726-122.044 -51.941  0.00  0.00    -0.200 OA
ENDROOT
BRANCH   1   4
ATOM      4  N   UNL d   1     -41.463-122.850 -52.480  0.00  0.00    -0.226 N 
ATOM      5  C   UNL d   1     -41.771-122.247 -52.953  0.00  0.00     0.111 A 
ATOM      6  C   UNL d   1     -41.765-122.330 -53.775  0.00  0.00     0.103 A 
ATOM      7  N   UNL d   1     -41.458-123.005 -54.118  0.00  0.00    -0.267 N 
ATOM      8  C   UNL d   1     -41.454-123.085 -54.941  0.00  0.00     0.288 C 
ATOM      9  C   UNL d   1     -41.148-123.613 -53.649  0.00  0.00     0.103 A 
ATOM     10  O   UNL d   1     -41.141-123.772 -55.294  0.00  0.00    -0.264 OA
ATOM     11  C   UNL d   1     -41.152-123.532 -52.825  0.00  0.00     0.111 A 
BRANCH   8  12
ATOM     12  C   UNL d   1     -41.762-122.482 -55.421  0.00  0.00     0.156 A 
ATOM     13  O   UNL d   1     -41.327-121.874 -55.785  0.00  0.00    -0.300 OA
ATOM     14  C   UNL d   1     -41.857-121.399 -56.209  0.00  0.00     0.123 A 
ATOM     15  C   UNL d   1     -42.624-121.711 -56.110  0.00  0.00     0.029 A 
ATOM     16  C   UNL d   1     -42.557-122.384 -55.619  0.00  0.00     0.032 A 
ENDBRANCH   8  12
ENDBRANCH   1   4
BRANCH   1  17
ATOM     17  C   UNL d   1     -41.398-122.898 -50.838  0.00  0.00     0.104 A 
ATOM     18  C   UNL d   1     -41.462-123.656 -50.532  0.00  0.00     0.015 A 
ATOM     19  C   UNL d   1     -41.394-123.780 -49.720  0.00  0.00     0.025 A 
ATOM     20  C   UNL d   1     -41.262-123.143 -49.218  0.00  0.00     0.100 A 
ATOM     21  C   UNL d   1     -41.198-122.381 -49.527  0.00  0.00     0.025 A 
ATOM     22  C   UNL d   1     -41.266-122.261 -50.336  0.00  0.00     0.015 A 
BRANCH  20  23
ATOM     23  O   UNL d   1     -41.192-123.259 -48.395  0.00  0.00    -0.307 OA
BRANCH  23  24
ATOM     24  C   UNL d   1     -41.869-123.397 -47.945  0.00  0.00     0.100 A 
ATOM     25  C   UNL d   1     -41.857-123.269 -47.135  0.00  0.00     0.023 A 
ATOM     26  C   UNL d   1     -41.168-123.003 -46.775  0.00  0.00     0.002 C 
ATOM     27  C   UNL d   1     -42.534-123.406 -46.677  0.00  0.00     0.002 A 
ATOM     28  C   UNL d   1     -43.228-123.674 -47.036  0.00  0.00     0.000 A 
ATOM     29  C   UNL d   1     -43.237-123.802 -47.853  0.00  0.00     0.002 A 
ATOM     30  C   UNL d   1     -42.560-123.664 -48.302  0.00  0.00     0.025 A 
ENDBRANCH  23  24
ENDBRANCH  20  23
ENDBRANCH   1  17
TORSDOF 5
ENDMDL
