MODEL 1
REMARK VINA RESULT:       8.2      0.000      0.000
REMARK  1 active torsions:
REMARK  status: ('A' for Active; 'I' for Inactive)
REMARK    1  A    between atoms: C_5  and  C_1 
ROOT
ATOM      1  C   UNL d   1      60.627  49.700  51.380  0.00  0.00     0.169 A 
ATOM      2  N   UNL d   1      60.777  49.695  50.575  0.00  0.00    -0.142 NA
ATOM      3  C   UNL d   1      59.814  49.705  51.484  0.00  0.00     0.048 A 
ATOM      4  N   UNL d   1      60.055  49.697  50.175  0.00  0.00    -0.148 NA
ATOM      5  C   UNL d   1      59.456  49.703  50.741  0.00  0.00     0.105 A 
ATOM      6  C   UNL d   1      58.644  49.707  50.591  0.00  0.00     0.023 C 
ENDROOT
BRANCH   1   7
ATOM      7  C   UNL d   1      61.196  49.700  51.983  0.00  0.00     0.231 C 
ATOM      8  O   UNL d   1      61.996  49.705  51.788  0.00  0.00    -0.643 OA
ATOM      9  O   UNL d   1      60.961  49.694  52.772  0.00  0.00    -0.643 OA
ENDBRANCH   1   7
TORSDOF 1
ENDMDL
MODEL 2
REMARK VINA RESULT:       8.3      2.331      2.936
REMARK  1 active torsions:
REMARK  status: ('A' for Active; 'I' for Inactive)
REMARK    1  A    between atoms: C_5  and  C_1 
ROOT
ATOM      1  C   UNL d   1      57.988  49.702  50.464  0.00  0.00     0.169 A 
ATOM      2  N   UNL d   1      57.380  49.706  51.013  0.00  0.00    -0.142 NA
ATOM      3  C   UNL d   1      57.652  49.699  49.717  0.00  0.00     0.048 A 
ATOM      4  N   UNL d   1      56.661  49.706  50.607  0.00  0.00    -0.148 NA
ATOM      5  C   UNL d   1      56.831  49.702  49.800  0.00  0.00     0.105 A 
ATOM      6  C   UNL d   1      56.279  49.700  49.187  0.00  0.00     0.023 C 
ENDROOT
BRANCH   1   7
ATOM      7  C   UNL d   1      58.799  49.701  50.635  0.00  0.00     0.231 C 
ATOM      8  O   UNL d   1      59.346  49.693  50.018  0.00  0.00    -0.643 OA
ATOM      9  O   UNL d   1      59.056  49.708  51.416  0.00  0.00    -0.643 OA
ENDBRANCH   1   7
TORSDOF 1
ENDMDL
MODEL 3
REMARK VINA RESULT:       8.8      1.669      2.273
REMARK  1 active torsions:
REMARK  status: ('A' for Active; 'I' for Inactive)
REMARK    1  A    between atoms: C_5  and  C_1 
ROOT
ATOM      1  C   UNL d   1      59.969  49.613  50.621  0.00  0.00     0.169 A 
ATOM      2  N   UNL d   1      60.688  49.467  50.257  0.00  0.00    -0.142 NA
ATOM      3  C   UNL d   1      60.104  49.692  51.424  0.00  0.00     0.048 A 
ATOM      4  N   UNL d   1      61.276  49.455  50.837  0.00  0.00    -0.148 NA
ATOM      5  C   UNL d   1      60.913  49.596  51.563  0.00  0.00     0.105 A 
ATOM      6  C   UNL d   1      61.289  49.633  52.297  0.00  0.00     0.023 C 
ENDROOT
BRANCH   1   7
ATOM      7  C   UNL d   1      59.234  49.670  50.242  0.00  0.00     0.231 C 
ATOM      8  O   UNL d   1      59.200  49.708  49.419  0.00  0.00    -0.643 OA
ATOM      9  O   UNL d   1      58.542  49.689  50.686  0.00  0.00    -0.643 OA
ENDBRANCH   1   7
TORSDOF 1
ENDMDL
