MODEL 1
REMARK VINA RESULT:       0.2      0.000      0.000
REMARK  4 active torsions:
REMARK  status: ('A' for Active; 'I' for Inactive)
REMARK    1  A    between atoms: S_11  and  C_2 
REMARK    2  A    between atoms: C_7  and  C_3 
REMARK    3  A    between atoms: C_17  and  S_11 
REMARK    4  A    between atoms: C_13  and  C_17 
ROOT
ATOM      1  C   UNL d   1     -41.567-122.200 -51.764  0.00  0.00     0.092 A 
ATOM      2  C   UNL d   1     -41.412-121.725 -52.404  0.00  0.00     0.124 A 
ATOM      3  C   UNL d   1     -41.575-121.871 -50.997  0.00  0.00     0.017 A 
ATOM      4  N   UNL d   1     -41.263-120.912 -52.291  0.00  0.00    -0.201 NA
ATOM      5  C   UNL d   1     -41.272-120.592 -51.530  0.00  0.00     0.280 A 
ATOM      6  C   UNL d   1     -41.716-123.008 -51.874  0.00  0.00     0.103 C 
ATOM      7  N   UNL d   1     -41.865-123.817 -51.993  0.00  0.00    -0.191 NA
ATOM      8  C   UNL d   1     -41.426-121.066 -50.890  0.00  0.00     0.063 A 
ATOM      9  O   UNL d   1     -41.122-119.783 -51.420  0.00  0.00    -0.265 OA
ENDROOT
BRANCH   2  10
ATOM     10  S   UNL d   1     -41.404-122.050 -53.168  0.00  0.00    -0.067 SA
BRANCH  10  11
ATOM     11  C   UNL d   1     -41.854-121.702 -53.778  0.00  0.00     0.037 C 
BRANCH  11  12
ATOM     12  C   UNL d   1     -41.771-121.916 -54.669  0.00  0.00     0.007 C 
ATOM     13  C   UNL d   1     -42.496-121.868 -55.368  0.00  0.00     0.001 C 
ENDBRANCH  11  12
ENDBRANCH  10  11
ENDBRANCH   2  10
BRANCH   3  14
ATOM     14  C   UNL d   1     -41.732-122.352 -50.349  0.00  0.00     0.011 A 
ATOM     15  C   UNL d   1     -42.482-122.382 -50.041  0.00  0.00     0.058 A 
ATOM     16 CL   UNL d   1     -43.316-121.907 -50.324  0.00  0.00    -0.082 Cl
ATOM     17  C   UNL d   1     -42.626-122.876 -49.380  0.00  0.00     0.011 A 
ATOM     18  C   UNL d   1     -42.016-123.322 -49.051  0.00  0.00     0.001 A 
ATOM     19  C   UNL d   1     -41.273-123.280 -49.372  0.00  0.00     0.000 A 
ATOM     20  C   UNL d   1     -41.125-122.790 -50.029  0.00  0.00     0.001 A 
ENDBRANCH   3  14
TORSDOF 4
ENDMDL
