MODEL 1
REMARK VINA RESULT:       1.5      0.000      0.000
REMARK  5 active torsions:
REMARK  status: ('A' for Active; 'I' for Inactive)
REMARK    1  A    between atoms: C_15  and  C_4 
REMARK    2  A    between atoms: S_10  and  C_5 
REMARK    3  A    between atoms: C_17  and  S_10 
REMARK    4  A    between atoms: C_11  and  C_14 
REMARK    5  A    between atoms: C_14  and  C_17 
ROOT
ATOM      1  N   UNL d   1      56.826  -1.097  31.726  0.00  0.00    -0.206 N 
ATOM      2  C   UNL d   1      56.659  -0.676  32.417  0.00  0.00     0.166 A 
ATOM      3  N   UNL d   1      55.643  -1.838  31.896  0.00  0.00    -0.163 NA
ATOM      4  C   UNL d   1      55.989  -0.835  32.844  0.00  0.00     0.055 A 
ATOM      5  C   UNL d   1      57.498  -0.924  31.316  0.00  0.00     0.116 A 
ATOM      6  C   UNL d   1      55.479  -1.424  32.576  0.00  0.00     0.104 A 
ATOM      7  N   UNL d   1      57.168  -0.094  32.678  0.00  0.00    -0.227 NA
ATOM      8  C   UNL d   1      58.017  -0.345  31.563  0.00  0.00     0.045 A 
ATOM      9  C   UNL d   1      57.851   0.073  32.249  0.00  0.00     0.085 A 
ATOM     10  C   UNL d   1      54.813  -1.579  33.003  0.00  0.00     0.023 C 
ATOM     11  C   UNL d   1      58.382   0.681  32.522  0.00  0.00     0.021 C 
ENDROOT
BRANCH   5  12
ATOM     12  S   UNL d   1      57.671  -1.357  30.604  0.00  0.00    -0.064 SA
BRANCH  12  13
ATOM     13  C   UNL d   1      57.977  -1.940  30.077  0.00  0.00     0.079 C 
BRANCH  13  14
ATOM     14  C   UNL d   1      58.522  -1.709  29.467  0.00  0.00     0.202 C 
ATOM     15  O   UNL d   1      58.453  -0.945  29.113  0.00  0.00    -0.286 OA
BRANCH  14  16
ATOM     16  C   UNL d   1      59.126  -2.237  29.219  0.00  0.00     0.043 A 
ATOM     17  C   UNL d   1      58.958  -3.060  29.112  0.00  0.00     0.049 A 
ATOM     18  C   UNL d   1      59.574  -3.591  28.861  0.00  0.00     0.234 A 
ATOM     19  O   UNL d   1      59.404  -4.420  28.753  0.00  0.00    -0.283 OA
ATOM     20  C   UNL d   1      60.352  -3.299  28.717  0.00  0.00     0.234 A 
ATOM     21  C   UNL d   1      60.527  -2.481  28.822  0.00  0.00     0.045 A 
ATOM     22  O   UNL d   1      60.966  -3.820  28.468  0.00  0.00    -0.283 OA
ATOM     23  C   UNL d   1      59.912  -1.949  29.073  0.00  0.00     0.007 A 
ENDBRANCH  14  16
ENDBRANCH  13  14
ENDBRANCH  12  13
ENDBRANCH   5  12
BRANCH   4  24
ATOM     24  C   UNL d   1      55.825  -0.421  33.524  0.00  0.00     0.004 A 
ATOM     25  C   UNL d   1      56.081  -0.694  34.236  0.00  0.00     0.000 A 
ATOM     26  C   UNL d   1      55.916  -0.280  34.916  0.00  0.00     0.000 A 
ATOM     27  C   UNL d   1      55.495   0.407  34.883  0.00  0.00     0.000 A 
ATOM     28  C   UNL d   1      55.235   0.682  34.149  0.00  0.00     0.000 A 
ATOM     29  C   UNL d   1      55.404   0.265  33.487  0.00  0.00     0.000 A 
ENDBRANCH   4  24
TORSDOF 5
ENDMDL
MODEL 2
REMARK VINA RESULT:       2.4      2.244      5.607
REMARK  5 active torsions:
REMARK  status: ('A' for Active; 'I' for Inactive)
REMARK    1  A    between atoms: C_15  and  C_4 
REMARK    2  A    between atoms: S_10  and  C_5 
REMARK    3  A    between atoms: C_17  and  S_10 
REMARK    4  A    between atoms: C_11  and  C_14 
REMARK    5  A    between atoms: C_14  and  C_17 
ROOT
ATOM      1  N   UNL d   1      58.583  -0.731  30.155  0.00  0.00    -0.206 N 
ATOM      2  C   UNL d   1      59.220  -1.097  29.777  0.00  0.00     0.166 A 
ATOM      3  N   UNL d   1      57.871  -1.942  30.117  0.00  0.00    -0.163 NA
ATOM      4  C   UNL d   1      59.183  -1.879  29.571  0.00  0.00     0.055 A 
ATOM      5  C   UNL d   1      58.641   0.049  30.352  0.00  0.00     0.116 A 
ATOM      6  C   UNL d   1      58.497  -2.302  29.746  0.00  0.00     0.104 A 
ATOM      7  N   UNL d   1      59.897  -0.673  29.607  0.00  0.00    -0.227 NA
ATOM      8  C   UNL d   1      59.310   0.487  30.189  0.00  0.00     0.045 A 
ATOM      9  C   UNL d   1      59.943   0.123  29.813  0.00  0.00     0.085 A 
ATOM     10  C   UNL d   1      58.463  -3.080  29.539  0.00  0.00     0.023 C 
ATOM     11  C   UNL d   1      60.649   0.566  29.635  0.00  0.00     0.021 C 
ENDROOT
BRANCH   5  12
ATOM     12  S   UNL d   1      57.985   0.426  30.741  0.00  0.00    -0.064 SA
BRANCH  12  13
ATOM     13  C   UNL d   1      57.284   0.543  31.196  0.00  0.00     0.079 C 
BRANCH  13  14
ATOM     14  C   UNL d   1      57.308   0.437  32.039  0.00  0.00     0.202 C 
ATOM     15  O   UNL d   1      57.992   0.682  32.470  0.00  0.00    -0.286 OA
BRANCH  14  16
ATOM     16  C   UNL d   1      56.656   0.091  32.439  0.00  0.00     0.043 A 
ATOM     17  C   UNL d   1      55.984   0.561  32.649  0.00  0.00     0.049 A 
ATOM     18  C   UNL d   1      55.325   0.206  33.055  0.00  0.00     0.234 A 
ATOM     19  O   UNL d   1      54.649   0.680  33.266  0.00  0.00    -0.283 OA
ATOM     20  C   UNL d   1      55.342  -0.614  33.249  0.00  0.00     0.234 A 
ATOM     21  C   UNL d   1      56.007  -1.089  33.043  0.00  0.00     0.045 A 
ATOM     22  O   UNL d   1      54.692  -0.973  33.651  0.00  0.00    -0.283 OA
ATOM     23  C   UNL d   1      56.666  -0.735  32.638  0.00  0.00     0.007 A 
ENDBRANCH  14  16
ENDBRANCH  13  14
ENDBRANCH  12  13
ENDBRANCH   5  12
BRANCH   4  24
ATOM     24  C   UNL d   1      59.810  -2.239  29.199  0.00  0.00     0.004 A 
ATOM     25  C   UNL d   1      60.420  -1.797  28.917  0.00  0.00     0.000 A 
ATOM     26  C   UNL d   1      61.047  -2.157  28.545  0.00  0.00     0.000 A 
ATOM     27  C   UNL d   1      61.063  -2.959  28.456  0.00  0.00     0.000 A 
ATOM     28  C   UNL d   1      60.433  -3.406  28.748  0.00  0.00     0.000 A 
ATOM     29  C   UNL d   1      59.822  -3.040  29.112  0.00  0.00     0.000 A 
ENDBRANCH   4  24
TORSDOF 5
ENDMDL
MODEL 3
REMARK VINA RESULT:       3.2      1.605      2.035
REMARK  5 active torsions:
REMARK  status: ('A' for Active; 'I' for Inactive)
REMARK    1  A    between atoms: C_15  and  C_4 
REMARK    2  A    between atoms: S_10  and  C_5 
REMARK    3  A    between atoms: C_17  and  S_10 
REMARK    4  A    between atoms: C_11  and  C_14 
REMARK    5  A    between atoms: C_14  and  C_17 
ROOT
ATOM      1  N   UNL d   1      56.852   0.679  32.584  0.00  0.00    -0.206 N 
ATOM      2  C   UNL d   1      56.814   0.679  33.409  0.00  0.00     0.166 A 
ATOM      3  N   UNL d   1      55.447   0.678  32.526  0.00  0.00    -0.163 NA
ATOM      4  C   UNL d   1      56.100   0.678  33.790  0.00  0.00     0.055 A 
ATOM      5  C   UNL d   1      57.573   0.680  32.225  0.00  0.00     0.116 A 
ATOM      6  C   UNL d   1      55.410   0.677  33.337  0.00  0.00     0.104 A 
ATOM      7  N   UNL d   1      57.500   0.680  33.852  0.00  0.00    -0.227 NA
ATOM      8  C   UNL d   1      58.268   0.681  32.653  0.00  0.00     0.045 A 
ATOM      9  C   UNL d   1      58.231   0.681  33.473  0.00  0.00     0.085 A 
ATOM     10  C   UNL d   1      54.701   0.677  33.719  0.00  0.00     0.023 C 
ATOM     11  C   UNL d   1      58.947   0.682  33.935  0.00  0.00     0.021 C 
ENDROOT
BRANCH   5  12
ATOM     12  S   UNL d   1      57.611   0.681  31.375  0.00  0.00    -0.064 SA
BRANCH  12  13
ATOM     13  C   UNL d   1      57.911   0.640  30.587  0.00  0.00     0.079 C 
BRANCH  13  14
ATOM     14  C   UNL d   1      57.977  -0.114  30.202  0.00  0.00     0.202 C 
ATOM     15  O   UNL d   1      57.340  -0.666  30.254  0.00  0.00    -0.286 OA
BRANCH  14  16
ATOM     16  C   UNL d   1      58.672  -0.309  29.773  0.00  0.00     0.043 A 
ATOM     17  C   UNL d   1      58.920  -1.115  29.701  0.00  0.00     0.049 A 
ATOM     18  C   UNL d   1      59.625  -1.307  29.264  0.00  0.00     0.234 A 
ATOM     19  O   UNL d   1      59.874  -2.120  29.193  0.00  0.00    -0.283 OA
ATOM     20  C   UNL d   1      60.078  -0.695  28.903  0.00  0.00     0.234 A 
ATOM     21  C   UNL d   1      59.838   0.110  28.970  0.00  0.00     0.045 A 
ATOM     22  O   UNL d   1      60.778  -0.879  28.469  0.00  0.00    -0.283 OA
ATOM     23  C   UNL d   1      59.133   0.303  29.406  0.00  0.00     0.007 A 
ENDBRANCH  14  16
ENDBRANCH  13  14
ENDBRANCH  12  13
ENDBRANCH   5  12
BRANCH   4  24
ATOM     24  C   UNL d   1      56.063   0.678  34.602  0.00  0.00     0.004 A 
ATOM     25  C   UNL d   1      56.740   0.682  35.036  0.00  0.00     0.000 A 
ATOM     26  C   UNL d   1      56.704   0.681  35.849  0.00  0.00     0.000 A 
ATOM     27  C   UNL d   1      55.990   0.677  36.225  0.00  0.00     0.000 A 
ATOM     28  C   UNL d   1      55.300   0.674  35.773  0.00  0.00     0.000 A 
ATOM     29  C   UNL d   1      55.349   0.674  34.974  0.00  0.00     0.000 A 
ENDBRANCH   4  24
TORSDOF 5
ENDMDL
