MODEL 1
REMARK VINA RESULT:      54.3      0.000      0.000
REMARK  4 active torsions:
REMARK  status: ('A' for Active; 'I' for Inactive)
REMARK    1  A    between atoms: C_8  and  C_1 
REMARK    2  A    between atoms: C_6  and  O_10 
REMARK       I    between atoms: N_13  and  C_6 
REMARK    3  A    between atoms: C_11  and  C_8 
REMARK    4  A    between atoms: O_10  and  C_9 
ROOT
ATOM      1  C   UNL d   1     -54.725-101.803 -41.332  0.00  0.00     0.141 A 
ATOM      2  C   UNL d   1     -54.735-100.742 -42.157  0.00  0.00     0.105 A 
ATOM      3  O   UNL d   1     -54.717-100.971 -41.361  0.00  0.00    -0.304 OA
ATOM      4  C   UNL d   1     -54.754-101.426 -42.627  0.00  0.00     0.064 A 
ATOM      5  C   UNL d   1     -54.748-102.083 -42.124  0.00  0.00     0.220 A 
ATOM      6  C   UNL d   1     -54.737 -99.998 -42.512  0.00  0.00     0.046 A 
ATOM      7  C   UNL d   1     -54.757 -99.934 -43.334  0.00  0.00     0.107 A 
ATOM      8  C   UNL d   1     -54.775-101.358 -43.445  0.00  0.00     0.007 A 
ATOM      9  O   UNL d   1     -54.762-102.879 -42.352  0.00  0.00    -0.284 OA
ATOM     10  C   UNL d   1     -54.776-100.619 -43.803  0.00  0.00     0.025 A 
ATOM     11  C   UNL d   1     -54.718 -99.315 -42.049  0.00  0.00     0.004 C 
ENDROOT
BRANCH   1  12
ATOM     12  C   UNL d   1     -54.712-102.270 -40.652  0.00  0.00     0.053 C 
BRANCH  12  13
ATOM     13  C   UNL d   1     -55.412-102.424 -40.243  0.00  0.00     0.102 A 
ATOM     14  O   UNL d   1     -56.079-102.809 -40.552  0.00  0.00    -0.305 OA
ATOM     15  C   UNL d   1     -56.649-102.845 -39.958  0.00  0.00     0.123 A 
ATOM     16  C   UNL d   1     -56.333-102.481 -39.281  0.00  0.00     0.029 A 
ATOM     17  C   UNL d   1     -55.571-102.224 -39.464  0.00  0.00     0.027 A 
ENDBRANCH  12  13
ENDBRANCH   1  12
BRANCH   7  18
ATOM     18  O   UNL d   1     -54.759 -99.195 -43.691  0.00  0.00    -0.259 OA
BRANCH  18  19
ATOM     19  C   UNL d   1     -55.134 -99.079 -44.418  0.00  0.00     0.378 C 
ATOM     20  N   UNL d   1     -55.936 -98.873 -44.439  0.00  0.00    -0.249 N 
ATOM     21  C   UNL d   1     -56.316 -98.756 -45.168  0.00  0.00     0.104 C 
ATOM     22  C   UNL d   1     -56.364 -98.784 -43.734  0.00  0.00     0.104 C 
ATOM     23  O   UNL d   1     -54.712 -99.166 -45.122  0.00  0.00    -0.237 OA
ENDBRANCH  18  19
ENDBRANCH   7  18
TORSDOF 4
ENDMDL
