MODEL 1
REMARK VINA RESULT:      -5.8      0.000      0.000
REMARK  4 active torsions:
REMARK  status: ('A' for Active; 'I' for Inactive)
REMARK    1  A    between atoms: N_8  and  C_2 
REMARK    2  A    between atoms: C_9  and  C_3 
REMARK       I    between atoms: C_6  and  N_7 
REMARK    3  A    between atoms: C_10  and  C_6 
REMARK    4  A    between atoms: N_7  and  N_8 
ROOT
ATOM      1  C   UNL d   1     -41.385-121.516 -51.362  0.00  0.00     0.297 C 
ATOM      2  N   UNL d   1     -41.262-121.696 -52.177  0.00  0.00    -0.104 NA
ATOM      3  O   UNL d   1     -41.201-120.775 -51.078  0.00  0.00    -0.264 OA
ENDROOT
BRANCH   2   4
ATOM      4  N   UNL d   1     -41.445-122.434 -52.455  0.00  0.00    -0.119 NA
BRANCH   4   5
ATOM      5  C   UNL d   1     -41.580-122.538 -53.234  0.00  0.00     0.214 A 
ATOM      6  N   UNL d   1     -41.823-122.010 -53.830  0.00  0.00    -0.224 NA
ATOM      7  C   UNL d   1     -41.869-122.454 -54.551  0.00  0.00     0.067 A 
ATOM      8  C   UNL d   1     -41.657-123.218 -54.370  0.00  0.00     0.053 A 
ATOM      9  S   UNL d   1     -41.483-123.273 -53.577  0.00  0.00    -0.045 SA
BRANCH   7  10
ATOM     10  C   UNL d   1     -42.088-122.172 -55.307  0.00  0.00     0.036 C 
ATOM     11  C   UNL d   1     -42.291-121.892 -56.063  0.00  0.00     0.006 C 
ATOM     12  C   UNL d   1     -41.287-122.154 -55.517  0.00  0.00     0.006 C 
ATOM     13  C   UNL d   1     -42.890-122.199 -55.075  0.00  0.00     0.006 C 
ENDBRANCH   7  10
ENDBRANCH   4   5
ENDBRANCH   2   4
BRANCH   1  14
ATOM     14  C   UNL d   1     -41.698-122.108 -50.842  0.00  0.00     0.059 A 
ATOM     15  C   UNL d   1     -42.515-122.121 -50.685  0.00  0.00     0.005 A 
ATOM     16  C   UNL d   1     -42.796-122.683 -50.194  0.00  0.00     0.007 A 
ATOM     17  C   UNL d   1     -42.309-123.247 -49.838  0.00  0.00     0.035 A 
ATOM     18  C   UNL d   1     -41.503-123.235 -49.992  0.00  0.00     0.007 A 
ATOM     19 BR   UNL d   1     -42.624-123.812 -49.339  0.00  0.00    -0.049 Br
ATOM     20  C   UNL d   1     -41.204-122.664 -50.494  0.00  0.00     0.005 A 
ENDBRANCH   1  14
TORSDOF 4
ENDMDL
MODEL 2
REMARK VINA RESULT:      -3.5      1.789      4.417
REMARK  4 active torsions:
REMARK  status: ('A' for Active; 'I' for Inactive)
REMARK    1  A    between atoms: N_8  and  C_2 
REMARK    2  A    between atoms: C_9  and  C_3 
REMARK       I    between atoms: C_6  and  N_7 
REMARK    3  A    between atoms: C_10  and  C_6 
REMARK    4  A    between atoms: N_7  and  N_8 
ROOT
ATOM      1  C   UNL d   1     -41.395-121.523 -52.462  0.00  0.00     0.297 C 
ATOM      2  N   UNL d   1     -41.485-121.868 -51.697  0.00  0.00    -0.104 NA
ATOM      3  O   UNL d   1     -41.126-120.756 -52.533  0.00  0.00    -0.264 OA
ENDROOT
BRANCH   2   4
ATOM      4  N   UNL d   1     -41.752-122.629 -51.632  0.00  0.00    -0.119 NA
BRANCH   4   5
ATOM      5  C   UNL d   1     -41.849-122.950 -50.909  0.00  0.00     0.214 A 
ATOM      6  N   UNL d   1     -42.344-122.744 -50.272  0.00  0.00    -0.224 NA
ATOM      7  C   UNL d   1     -42.195-123.300 -49.650  0.00  0.00     0.067 A 
ATOM      8  C   UNL d   1     -41.627-123.813 -49.926  0.00  0.00     0.053 A 
ATOM      9  S   UNL d   1     -41.416-123.606 -50.684  0.00  0.00    -0.045 SA
BRANCH   7  10
ATOM     10  C   UNL d   1     -42.554-123.327 -48.895  0.00  0.00     0.036 C 
ATOM     11  C   UNL d   1     -42.897-123.356 -48.139  0.00  0.00     0.006 C 
ATOM     12  C   UNL d   1     -41.805-123.437 -48.558  0.00  0.00     0.006 C 
ATOM     13  C   UNL d   1     -43.299-123.215 -49.257  0.00  0.00     0.006 C 
ENDBRANCH   7  10
ENDBRANCH   4   5
ENDBRANCH   2   4
BRANCH   1  14
ATOM     14  C   UNL d   1     -41.585-121.975 -53.154  0.00  0.00     0.059 A 
ATOM     15  C   UNL d   1     -41.125-122.642 -53.344  0.00  0.00     0.005 A 
ATOM     16  C   UNL d   1     -41.315-123.057 -53.998  0.00  0.00     0.007 A 
ATOM     17  C   UNL d   1     -41.946-122.851 -54.488  0.00  0.00     0.035 A 
ATOM     18  C   UNL d   1     -42.401-122.193 -54.302  0.00  0.00     0.007 A 
ATOM     19 BR   UNL d   1     -42.119-123.295 -55.152  0.00  0.00    -0.049 Br
ATOM     20  C   UNL d   1     -42.215-121.760 -53.634  0.00  0.00     0.005 A 
ENDBRANCH   1  14
TORSDOF 4
ENDMDL
