MODEL 1
REMARK VINA RESULT:      -7.5      0.000      0.000
REMARK  9 active torsions:
REMARK  status: ('A' for Active; 'I' for Inactive)
REMARK    1  A    between atoms: C_2  and  N_11 
REMARK    2  A    between atoms: S_3  and  N_22 
REMARK    3  A    between atoms: C_16  and  S_3 
REMARK    4  A    between atoms: C_21  and  C_5 
REMARK       I    between atoms: N_11  and  C_17 
REMARK    5  A    between atoms: S_23  and  C_12 
REMARK    6  A    between atoms: C_17  and  C_27 
REMARK    7  A    between atoms: C_28  and  C_21 
REMARK    8  A    between atoms: N_22  and  C_28 
REMARK    9  A    between atoms: C_27  and  S_23 
ROOT
ATOM      1  N   UNL d   1      48.491  35.101  51.632  0.00  0.00    -0.191 N 
ATOM      2  C   UNL d   1      48.267  34.603  51.009  0.00  0.00     0.187 A 
ATOM      3  C   UNL d   1      47.843  35.571  51.829  0.00  0.00     0.188 A 
ATOM      4  N   UNL d   1      49.258  35.054  51.932  0.00  0.00    -0.156 NA
ATOM      5  N   UNL d   1      47.478  34.775  50.829  0.00  0.00    -0.127 NA
ATOM      6  N   UNL d   1      47.221  35.363  51.328  0.00  0.00    -0.127 NA
ATOM      7  C   UNL d   1      49.791  34.520  51.615  0.00  0.00     0.131 A 
ATOM      8  C   UNL d   1      48.800  34.069  50.692  0.00  0.00     0.043 A 
ATOM      9  C   UNL d   1      49.567  34.026  50.996  0.00  0.00     0.031 A 
ENDROOT
BRANCH   7  10
ATOM     10  S   UNL d   1      50.556  34.481  51.923  0.00  0.00    -0.061 SA
BRANCH  10  11
ATOM     11  C   UNL d   1      50.687  34.154  52.672  0.00  0.00     0.099 C 
BRANCH  11  12
ATOM     12  C   UNL d   1      51.462  34.050  52.937  0.00  0.00     0.288 C 
ATOM     13  N   UNL d   1      51.596  33.767  53.688  0.00  0.00    -0.182 NA
ATOM     14  O   UNL d   1      52.097  34.231  52.449  0.00  0.00    -0.265 OA
BRANCH  13  15
ATOM     15  C   UNL d   1      52.359  33.659  53.965  0.00  0.00     0.197 A 
ATOM     16  N   UNL d   1      52.876  33.061  53.719  0.00  0.00    -0.221 NA
ATOM     17  C   UNL d   1      53.581  33.159  54.139  0.00  0.00     0.090 A 
ATOM     18  C   UNL d   1      54.280  32.736  54.124  0.00  0.00     0.020 A 
ATOM     19  C   UNL d   1      53.497  33.814  54.641  0.00  0.00     0.050 A 
ATOM     20  C   UNL d   1      54.912  32.956  54.611  0.00  0.00     0.002 A 
ATOM     21  C   UNL d   1      54.822  33.621  55.119  0.00  0.00     0.001 A 
ATOM     22  C   UNL d   1      54.121  34.038  55.127  0.00  0.00     0.008 A 
ATOM     23  S   UNL d   1      52.756  34.121  54.539  0.00  0.00    -0.047 SA
ENDBRANCH  13  15
ENDBRANCH  11  12
ENDBRANCH  10  11
ENDBRANCH   7  10
BRANCH   3  24
ATOM     24  C   UNL d   1      47.830  36.143  52.422  0.00  0.00     0.062 C 
BRANCH  24  25
ATOM     25  C   UNL d   1      47.265  36.107  53.024  0.00  0.00     0.115 C 
BRANCH  25  26
ATOM     26  N   UNL d   1      47.240  36.699  53.602  0.00  0.00    -0.157 NA
BRANCH  26  27
ATOM     27  S   UNL d   1      46.653  36.681  54.187  0.00  0.00     0.285 S 
ATOM     28  O   UNL d   1      46.068  36.657  53.598  0.00  0.00    -0.198 OA
ATOM     29  O   UNL d   1      47.236  36.706  54.775  0.00  0.00    -0.198 OA
BRANCH  27  30
ATOM     30  C   UNL d   1      46.079  36.664  54.769  0.00  0.00     0.105 A 
ATOM     31  C   UNL d   1      46.291  36.674  55.565  0.00  0.00     0.013 A 
ATOM     32  C   UNL d   1      45.708  36.657  56.156  0.00  0.00     0.001 A 
ATOM     33  C   UNL d   1      44.911  36.629  55.947  0.00  0.00     0.000 A 
ATOM     34  C   UNL d   1      44.697  36.619  55.142  0.00  0.00     0.001 A 
ATOM     35  C   UNL d   1      44.332  36.612  56.523  0.00  0.00     0.000 C 
ATOM     36  C   UNL d   1      45.285  36.637  54.557  0.00  0.00     0.013 A 
ENDBRANCH  27  30
ENDBRANCH  26  27
ENDBRANCH  25  26
ENDBRANCH  24  25
ENDBRANCH   3  24
TORSDOF 9
ENDMDL
MODEL 2
REMARK VINA RESULT:      -6.3      2.505      7.705
REMARK  9 active torsions:
REMARK  status: ('A' for Active; 'I' for Inactive)
REMARK    1  A    between atoms: C_2  and  N_11 
REMARK    2  A    between atoms: S_3  and  N_22 
REMARK    3  A    between atoms: C_16  and  S_3 
REMARK    4  A    between atoms: C_21  and  C_5 
REMARK       I    between atoms: N_11  and  C_17 
REMARK    5  A    between atoms: S_23  and  C_12 
REMARK    6  A    between atoms: C_17  and  C_27 
REMARK    7  A    between atoms: C_28  and  C_21 
REMARK    8  A    between atoms: N_22  and  C_28 
REMARK    9  A    between atoms: C_27  and  S_23 
ROOT
ATOM      1  N   UNL d   1      51.973  33.873  53.104  0.00  0.00    -0.191 N 
ATOM      2  C   UNL d   1      52.241  34.545  53.507  0.00  0.00     0.187 A 
ATOM      3  C   UNL d   1      52.596  33.334  53.061  0.00  0.00     0.188 A 
ATOM      4  N   UNL d   1      51.195  33.848  52.832  0.00  0.00    -0.156 NA
ATOM      5  N   UNL d   1      53.032  34.410  53.709  0.00  0.00    -0.127 NA
ATOM      6  N   UNL d   1      53.247  33.674  53.438  0.00  0.00    -0.127 NA
ATOM      7  C   UNL d   1      50.694  34.482  52.960  0.00  0.00     0.131 A 
ATOM      8  C   UNL d   1      51.740  35.179  53.636  0.00  0.00     0.043 A 
ATOM      9  C   UNL d   1      50.962  35.149  53.361  0.00  0.00     0.031 A 
ENDROOT
BRANCH   7  10
ATOM     10  S   UNL d   1      49.917  34.448  52.683  0.00  0.00    -0.061 SA
BRANCH  10  11
ATOM     11  C   UNL d   1      49.490  35.145  52.554  0.00  0.00     0.099 C 
BRANCH  11  12
ATOM     12  C   UNL d   1      48.710  35.098  52.288  0.00  0.00     0.288 C 
ATOM     13  N   UNL d   1      48.195  35.709  52.437  0.00  0.00    -0.182 NA
ATOM     14  O   UNL d   1      48.451  34.438  51.873  0.00  0.00    -0.265 OA
BRANCH  13  15
ATOM     15  C   UNL d   1      47.419  35.677  52.180  0.00  0.00     0.197 A 
ATOM     16  N   UNL d   1      47.178  35.689  51.388  0.00  0.00    -0.221 NA
ATOM     17  C   UNL d   1      46.352  35.646  51.383  0.00  0.00     0.090 A 
ATOM     18  C   UNL d   1      45.818  35.638  50.765  0.00  0.00     0.020 A 
ATOM     19  C   UNL d   1      46.088  35.607  52.168  0.00  0.00     0.050 A 
ATOM     20  C   UNL d   1      45.005  35.590  50.916  0.00  0.00     0.002 A 
ATOM     21  C   UNL d   1      44.742  35.551  51.714  0.00  0.00     0.001 A 
ATOM     22  C   UNL d   1      45.282  35.560  52.325  0.00  0.00     0.008 A 
ATOM     23  S   UNL d   1      46.732  35.626  52.656  0.00  0.00    -0.047 SA
ENDBRANCH  13  15
ENDBRANCH  11  12
ENDBRANCH  10  11
ENDBRANCH   7  10
BRANCH   3  24
ATOM     24  C   UNL d   1      52.564  32.593  52.704  0.00  0.00     0.062 C 
BRANCH  24  25
ATOM     25  C   UNL d   1      52.992  31.960  53.017  0.00  0.00     0.115 C 
BRANCH  25  26
ATOM     26  N   UNL d   1      52.835  31.188  52.761  0.00  0.00    -0.157 NA
BRANCH  26  27
ATOM     27  S   UNL d   1      52.975  30.548  53.268  0.00  0.00     0.285 S 
ATOM     28  O   UNL d   1      52.165  30.370  53.267  0.00  0.00    -0.198 OA
ATOM     29  O   UNL d   1      53.784  30.725  53.271  0.00  0.00    -0.198 OA
BRANCH  27  30
ATOM     30  C   UNL d   1      53.121  29.918  53.769  0.00  0.00     0.105 A 
ATOM     31  C   UNL d   1      53.184  30.037  54.582  0.00  0.00     0.013 A 
ATOM     32  C   UNL d   1      53.332  29.397  55.091  0.00  0.00     0.001 A 
ATOM     33  C   UNL d   1      53.416  28.637  54.782  0.00  0.00     0.000 A 
ATOM     34  C   UNL d   1      53.352  28.518  53.960  0.00  0.00     0.001 A 
ATOM     35  C   UNL d   1      53.562  28.003  55.276  0.00  0.00     0.000 C 
ATOM     36  C   UNL d   1      53.204  29.162  53.458  0.00  0.00     0.013 A 
ENDBRANCH  27  30
ENDBRANCH  26  27
ENDBRANCH  25  26
ENDBRANCH  24  25
ENDBRANCH   3  24
TORSDOF 9
ENDMDL
