MODEL 1
REMARK VINA RESULT:      17.7      0.000      0.000
REMARK  4 active torsions:
REMARK  status: ('A' for Active; 'I' for Inactive)
REMARK    1  A    between atoms: C_4  and  N_1 
REMARK    2  A    between atoms: C_8  and  C_2 
REMARK    3  A    between atoms: C_13  and  C_6 
REMARK    4  A    between atoms: C_7  and  C_8 
ROOT
ATOM      1  N   UNL d   1     -41.668-122.402 -53.207  0.00  0.00    -0.255 N 
ATOM      2  C   UNL d   1     -41.569-122.290 -51.884  0.00  0.00     0.101 A 
ATOM      3  C   UNL d   1     -41.416-123.137 -52.907  0.00  0.00     0.305 A 
ATOM      4  C   UNL d   1     -41.354-123.067 -52.083  0.00  0.00     0.256 A 
ATOM      5  C   UNL d   1     -41.758-121.891 -52.572  0.00  0.00     0.075 A 
ATOM      6  O   UNL d   1     -41.256-123.815 -53.349  0.00  0.00    -0.263 OA
ATOM      7  O   UNL d   1     -41.123-123.665 -51.571  0.00  0.00    -0.281 OA
ENDROOT
BRANCH   2   8
ATOM      8  C   UNL d   1     -41.582-121.988 -51.114  0.00  0.00     0.223 C 
ATOM      9  O   UNL d   1     -41.242-121.252 -50.959  0.00  0.00    -0.284 OA
BRANCH   8  10
ATOM     10  C   UNL d   1     -41.928-122.408 -50.505  0.00  0.00     0.139 A 
ATOM     11  O   UNL d   1     -42.723-122.621 -50.451  0.00  0.00    -0.304 OA
ATOM     12  C   UNL d   1     -42.830-123.038 -49.747  0.00  0.00     0.100 A 
ATOM     13  C   UNL d   1     -43.490-123.382 -49.403  0.00  0.00     0.025 A 
ATOM     14  C   UNL d   1     -42.098-123.082 -49.367  0.00  0.00     0.025 A 
ATOM     15  C   UNL d   1     -43.429-123.766 -48.689  0.00  0.00     0.002 A 
ATOM     16  C   UNL d   1     -42.699-123.813 -48.305  0.00  0.00     0.000 A 
ATOM     17  C   UNL d   1     -42.033-123.470 -48.646  0.00  0.00     0.002 A 
ATOM     18  C   UNL d   1     -41.543-122.694 -49.834  0.00  0.00     0.030 A 
ENDBRANCH   8  10
ENDBRANCH   2   8
BRANCH   5  19
ATOM     19  C   UNL d   1     -42.001-121.100 -52.615  0.00  0.00     0.017 A 
ATOM     20  C   UNL d   1     -41.446-120.505 -52.586  0.00  0.00     0.013 A 
ATOM     21  C   UNL d   1     -41.684-119.712 -52.629  0.00  0.00     0.058 A 
ATOM     22 CL   UNL d   1     -41.123-119.106 -52.600  0.00  0.00    -0.082 Cl
ATOM     23  C   UNL d   1     -42.485-119.530 -52.702  0.00  0.00     0.011 A 
ATOM     24  C   UNL d   1     -43.046-120.135 -52.731  0.00  0.00     0.001 A 
ATOM     25  C   UNL d   1     -42.797-120.921 -52.687  0.00  0.00     0.002 A 
ENDBRANCH   5  19
BRANCH   1  26
ATOM     26  C   UNL d   1     -41.799-122.231 -53.997  0.00  0.00     0.179 A 
ATOM     27  N   UNL d   1     -41.317-121.752 -54.472  0.00  0.00    -0.108 NA
ATOM     28  O   UNL d   1     -41.647-121.728 -55.224  0.00  0.00    -0.210 OA
ATOM     29  C   UNL d   1     -42.334-122.192 -55.215  0.00  0.00     0.128 A 
ATOM     30  C   UNL d   1     -42.424-122.501 -54.455  0.00  0.00     0.067 A 
ATOM     31  C   UNL d   1     -42.839-122.322 -55.855  0.00  0.00     0.029 C 
ENDBRANCH   1  26
TORSDOF 4
ENDMDL
