MODEL 1
REMARK VINA RESULT:      -6.4      0.000      0.000
REMARK  3 active torsions:
REMARK  status: ('A' for Active; 'I' for Inactive)
REMARK    1  A    between atoms: N_4  and  C_2 
REMARK    2  A    between atoms: C_10  and  C_3 
REMARK       I    between atoms: C_7  and  N_4 
REMARK    3  A    between atoms: C_8  and  C_7 
ROOT
ATOM      1  N   UNL d   1     -42.108-122.556 -51.493  0.00  0.00    -0.051 NA
ATOM      2  C   UNL d   1     -41.716-122.059 -52.016  0.00  0.00     0.760 A 
ATOM      3  C   UNL d   1     -41.759-122.454 -50.746  0.00  0.00     0.147 A 
ATOM      4  N   UNL d   1     -41.123-121.646 -51.600  0.00  0.00    -0.019 NA
ATOM      5  S   UNL d   1     -41.158-121.897 -50.821  0.00  0.00     0.052 SA
ENDROOT
BRANCH   2   6
ATOM      6  N   UNL d   1     -41.817-121.920 -52.831  0.00  0.00    -0.018 NA
ATOM      7  C   UNL d   1     -41.706-122.528 -53.377  0.00  0.00     0.301 C 
ATOM      8  O   UNL d   1     -41.491-123.286 -53.112  0.00  0.00    -0.264 OA
BRANCH   7   9
ATOM      9  C   UNL d   1     -41.807-122.386 -54.182  0.00  0.00     0.088 A 
ATOM     10  S   UNL d   1     -41.381-122.752 -54.798  0.00  0.00    -0.082 SA
ATOM     11  C   UNL d   1     -41.662-122.446 -55.520  0.00  0.00     0.036 A 
ATOM     12  C   UNL d   1     -42.254-121.899 -55.349  0.00  0.00     0.008 A 
ATOM     13  C   UNL d   1     -42.342-121.863 -54.527  0.00  0.00     0.012 A 
ENDBRANCH   7   9
ENDBRANCH   2   6
BRANCH   3  14
ATOM     14  C   UNL d   1     -41.986-122.849 -50.060  0.00  0.00     0.026 A 
ATOM     15  C   UNL d   1     -42.739-122.702 -49.734  0.00  0.00     0.002 A 
ATOM     16  C   UNL d   1     -42.971-123.099 -49.042  0.00  0.00     0.000 A 
ATOM     17  C   UNL d   1     -42.458-123.633 -48.683  0.00  0.00     0.000 A 
ATOM     18  C   UNL d   1     -41.712-123.783 -49.000  0.00  0.00     0.000 A 
ATOM     19  C   UNL d   1     -41.475-123.392 -49.687  0.00  0.00     0.002 A 
ENDBRANCH   3  14
TORSDOF 3
ENDMDL
