MODEL 1
REMARK VINA RESULT:      -7.0      0.000      0.000
REMARK  8 active torsions:
REMARK  status: ('A' for Active; 'I' for Inactive)
REMARK    1  A    between atoms: C_2  and  C_8 
REMARK    2  A    between atoms: O_17  and  C_2 
REMARK    3  A    between atoms: C_15  and  C_3 
REMARK    4  A    between atoms: C_20  and  C_4 
REMARK    5  A    between atoms: C_5  and  C_16 
REMARK       I    between atoms: N_9  and  C_5 
REMARK    6  A    between atoms: C_14  and  N_9 
REMARK    7  A    between atoms: C_16  and  C_15 
REMARK    8  A    between atoms: C_21  and  O_17 
ROOT
ATOM      1  C   UNL d   1     -49.336  11.567  23.443  0.00  0.00     0.279 C 
ATOM      2  N   UNL d   1     -48.598  11.243  23.312  0.00  0.00    -0.208 NA
ATOM      3  O   UNL d   1     -49.979  11.077  23.635  0.00  0.00    -0.265 OA
ENDROOT
BRANCH   2   4
ATOM      4  C   UNL d   1     -47.959  11.732  23.121  0.00  0.00     0.085 A 
ATOM      5  C   UNL d   1     -47.879  12.019  22.354  0.00  0.00     0.019 A 
ATOM      6  C   UNL d   1     -47.243  12.504  22.165  0.00  0.00     0.007 A 
ATOM      7  C   UNL d   1     -46.690  12.702  22.746  0.00  0.00     0.064 A 
ATOM      8  C   UNL d   1     -46.769  12.416  23.512  0.00  0.00     0.007 A 
ATOM      9  C   UNL d   1     -47.415  11.924  23.698  0.00  0.00     0.019 A 
BRANCH   7  10
ATOM     10  C   UNL d   1     -46.048  13.193  22.553  0.00  0.00     0.300 C 
ATOM     11  O   UNL d   1     -46.084  13.998  22.722  0.00  0.00    -0.259 OA
BRANCH  10  12
ATOM     12  O   UNL d   1     -45.383  12.876  22.197  0.00  0.00    -0.271 OA
BRANCH  12  13
ATOM     13  C   UNL d   1     -44.817  13.374  21.861  0.00  0.00     0.126 C 
ATOM     14  C   UNL d   1     -44.134  13.053  21.523  0.00  0.00     0.029 C 
ENDBRANCH  12  13
ENDBRANCH  10  12
ENDBRANCH   7  10
ENDBRANCH   2   4
BRANCH   1  15
ATOM     15  C   UNL d   1     -49.446  12.384  23.386  0.00  0.00     0.065 C 
BRANCH  15  16
ATOM     16  C   UNL d   1     -50.153  12.727  23.640  0.00  0.00     0.030 C 
BRANCH  16  17
ATOM     17  C   UNL d   1     -50.373  13.469  23.365  0.00  0.00     0.100 A 
ATOM     18  O   UNL d   1     -49.951  14.180  23.467  0.00  0.00    -0.307 OA
ATOM     19  C   UNL d   1     -50.370  14.781  23.106  0.00  0.00     0.100 A 
ATOM     20  C   UNL d   1     -51.055  14.458  22.777  0.00  0.00     0.027 A 
ATOM     21  C   UNL d   1     -51.052  13.649  22.939  0.00  0.00     0.027 A 
BRANCH  19  22
ATOM     22  C   UNL d   1     -50.144  15.571  23.079  0.00  0.00     0.025 C 
ATOM     23  C   UNL d   1     -49.671  15.886  23.681  0.00  0.00     0.002 C 
ENDBRANCH  19  22
ENDBRANCH  16  17
ENDBRANCH  15  16
ENDBRANCH   1  15
TORSDOF 8
ENDMDL
MODEL 2
REMARK VINA RESULT:      -7.0      1.812      2.647
REMARK  8 active torsions:
REMARK  status: ('A' for Active; 'I' for Inactive)
REMARK    1  A    between atoms: C_2  and  C_8 
REMARK    2  A    between atoms: O_17  and  C_2 
REMARK    3  A    between atoms: C_15  and  C_3 
REMARK    4  A    between atoms: C_20  and  C_4 
REMARK    5  A    between atoms: C_5  and  C_16 
REMARK       I    between atoms: N_9  and  C_5 
REMARK    6  A    between atoms: C_14  and  N_9 
REMARK    7  A    between atoms: C_16  and  C_15 
REMARK    8  A    between atoms: C_21  and  O_17 
ROOT
ATOM      1  C   UNL d   1     -47.773  14.840  22.418  0.00  0.00     0.279 C 
ATOM      2  N   UNL d   1     -46.981  14.688  22.546  0.00  0.00    -0.208 NA
ATOM      3  O   UNL d   1     -48.025  15.607  22.220  0.00  0.00    -0.265 OA
ENDROOT
BRANCH   2   4
ATOM      4  C   UNL d   1     -46.732  13.924  22.743  0.00  0.00     0.085 A 
ATOM      5  C   UNL d   1     -46.319  13.475  22.191  0.00  0.00     0.019 A 
ATOM      6  C   UNL d   1     -46.072  12.716  22.387  0.00  0.00     0.007 A 
ATOM      7  C   UNL d   1     -46.239  12.409  23.135  0.00  0.00     0.064 A 
ATOM      8  C   UNL d   1     -46.651  12.858  23.687  0.00  0.00     0.007 A 
ATOM      9  C   UNL d   1     -46.900  13.627  23.483  0.00  0.00     0.019 A 
BRANCH   7  10
ATOM     10  C   UNL d   1     -45.988  11.642  23.332  0.00  0.00     0.300 C 
ATOM     11  O   UNL d   1     -46.546  11.058  23.489  0.00  0.00    -0.259 OA
BRANCH  10  12
ATOM     12  O   UNL d   1     -45.189  11.470  23.368  0.00  0.00    -0.271 OA
BRANCH  12  13
ATOM     13  C   UNL d   1     -44.936  10.685  23.403  0.00  0.00     0.126 C 
ATOM     14  C   UNL d   1     -44.128  10.512  23.409  0.00  0.00     0.029 C 
ENDBRANCH  12  13
ENDBRANCH  10  12
ENDBRANCH   7  10
ENDBRANCH   2   4
BRANCH   1  15
ATOM     15  C   UNL d   1     -48.327  14.231  22.484  0.00  0.00     0.065 C 
BRANCH  15  16
ATOM     16  C   UNL d   1     -49.054  14.287  22.097  0.00  0.00     0.030 C 
BRANCH  16  17
ATOM     17  C   UNL d   1     -49.631  13.714  22.218  0.00  0.00     0.100 A 
ATOM     18  O   UNL d   1     -49.841  13.369  22.946  0.00  0.00    -0.307 OA
ATOM     19  C   UNL d   1     -50.439  12.828  22.810  0.00  0.00     0.100 A 
ATOM     20  C   UNL d   1     -50.610  12.828  22.003  0.00  0.00     0.027 A 
ATOM     21  C   UNL d   1     -50.109  13.376  21.641  0.00  0.00     0.027 A 
BRANCH  19  22
ATOM     22  C   UNL d   1     -50.804  12.367  23.384  0.00  0.00     0.025 C 
ATOM     23  C   UNL d   1     -50.450  11.660  23.631  0.00  0.00     0.002 C 
ENDBRANCH  19  22
ENDBRANCH  16  17
ENDBRANCH  15  16
ENDBRANCH   1  15
TORSDOF 8
ENDMDL
MODEL 3
REMARK VINA RESULT:      -6.4      0.983      4.358
REMARK  8 active torsions:
REMARK  status: ('A' for Active; 'I' for Inactive)
REMARK    1  A    between atoms: C_2  and  C_8 
REMARK    2  A    between atoms: O_17  and  C_2 
REMARK    3  A    between atoms: C_15  and  C_3 
REMARK    4  A    between atoms: C_20  and  C_4 
REMARK    5  A    between atoms: C_5  and  C_16 
REMARK       I    between atoms: N_9  and  C_5 
REMARK    6  A    between atoms: C_14  and  N_9 
REMARK    7  A    between atoms: C_16  and  C_15 
REMARK    8  A    between atoms: C_21  and  O_17 
ROOT
ATOM      1  C   UNL d   1     -47.660  11.303  23.451  0.00  0.00     0.279 C 
ATOM      2  N   UNL d   1     -48.462  11.180  23.350  0.00  0.00    -0.208 NA
ATOM      3  O   UNL d   1     -47.171  10.679  23.698  0.00  0.00    -0.265 OA
ENDROOT
BRANCH   2   4
ATOM      4  C   UNL d   1     -48.948  11.802  23.105  0.00  0.00     0.085 A 
ATOM      5  C   UNL d   1     -49.361  12.243  23.664  0.00  0.00     0.019 A 
ATOM      6  C   UNL d   1     -49.845  12.860  23.419  0.00  0.00     0.007 A 
ATOM      7  C   UNL d   1     -49.914  13.035  22.615  0.00  0.00     0.064 A 
ATOM      8  C   UNL d   1     -49.502  12.595  22.056  0.00  0.00     0.007 A 
ATOM      9  C   UNL d   1     -49.013  11.970  22.309  0.00  0.00     0.019 A 
BRANCH   7  10
ATOM     10  C   UNL d   1     -50.403  13.659  22.369  0.00  0.00     0.300 C 
ATOM     11  O   UNL d   1     -51.064  13.502  21.905  0.00  0.00    -0.259 OA
BRANCH  10  12
ATOM     12  O   UNL d   1     -50.227  14.427  22.589  0.00  0.00    -0.271 OA
BRANCH  12  13
ATOM     13  C   UNL d   1     -50.813  15.008  22.568  0.00  0.00     0.126 C 
ATOM     14  C   UNL d   1     -50.694  15.730  22.955  0.00  0.00     0.029 C 
ENDBRANCH  12  13
ENDBRANCH  10  12
ENDBRANCH   7  10
ENDBRANCH   2   4
BRANCH   1  15
ATOM     15  C   UNL d   1     -47.335  12.048  23.308  0.00  0.00     0.065 C 
BRANCH  15  16
ATOM     16  C   UNL d   1     -46.552  12.207  23.517  0.00  0.00     0.030 C 
BRANCH  16  17
ATOM     17  C   UNL d   1     -46.112  12.752  23.086  0.00  0.00     0.100 A 
ATOM     18  O   UNL d   1     -45.505  12.580  22.544  0.00  0.00    -0.307 OA
ATOM     19  C   UNL d   1     -45.220  13.285  22.245  0.00  0.00     0.100 A 
ATOM     20  C   UNL d   1     -45.643  13.903  22.594  0.00  0.00     0.027 A 
ATOM     21  C   UNL d   1     -46.191  13.569  23.112  0.00  0.00     0.027 A 
BRANCH  19  22
ATOM     22  C   UNL d   1     -44.617  13.361  21.692  0.00  0.00     0.025 C 
ATOM     23  C   UNL d   1     -43.958  12.861  21.730  0.00  0.00     0.002 C 
ENDBRANCH  19  22
ENDBRANCH  16  17
ENDBRANCH  15  16
ENDBRANCH   1  15
TORSDOF 8
ENDMDL
MODEL 4
REMARK VINA RESULT:      -5.5      8.482     10.094
REMARK  8 active torsions:
REMARK  status: ('A' for Active; 'I' for Inactive)
REMARK    1  A    between atoms: C_2  and  C_8 
REMARK    2  A    between atoms: O_17  and  C_2 
REMARK    3  A    between atoms: C_15  and  C_3 
REMARK    4  A    between atoms: C_20  and  C_4 
REMARK    5  A    between atoms: C_5  and  C_16 
REMARK       I    between atoms: N_9  and  C_5 
REMARK    6  A    between atoms: C_14  and  N_9 
REMARK    7  A    between atoms: C_16  and  C_15 
REMARK    8  A    between atoms: C_21  and  O_17 
ROOT
ATOM      1  C   UNL d   1     -40.972  15.551  20.241  0.00  0.00     0.279 C 
ATOM      2  N   UNL d   1     -41.054  15.526  19.428  0.00  0.00    -0.208 NA
ATOM      3  O   UNL d   1     -41.553  15.918  20.708  0.00  0.00    -0.265 OA
ENDROOT
BRANCH   2   4
ATOM      4  C   UNL d   1     -40.476  15.161  18.964  0.00  0.00     0.085 A 
ATOM      5  C   UNL d   1     -40.547  14.363  18.777  0.00  0.00     0.019 A 
ATOM      6  C   UNL d   1     -39.971  14.000  18.316  0.00  0.00     0.007 A 
ATOM      7  C   UNL d   1     -39.326  14.438  18.043  0.00  0.00     0.064 A 
ATOM      8  C   UNL d   1     -39.254  15.235  18.230  0.00  0.00     0.007 A 
ATOM      9  C   UNL d   1     -39.841  15.598  18.698  0.00  0.00     0.019 A 
BRANCH   7  10
ATOM     10  C   UNL d   1     -38.745  14.070  17.577  0.00  0.00     0.300 C 
ATOM     11  O   UNL d   1     -38.158  13.619  17.936  0.00  0.00    -0.259 OA
BRANCH  10  12
ATOM     12  O   UNL d   1     -38.759  14.157  16.764  0.00  0.00    -0.271 OA
BRANCH  12  13
ATOM     13  C   UNL d   1     -38.155  13.833  16.303  0.00  0.00     0.126 C 
ATOM     14  C   UNL d   1     -38.199  13.871  15.478  0.00  0.00     0.029 C 
ENDBRANCH  12  13
ENDBRANCH  10  12
ENDBRANCH   7  10
ENDBRANCH   2   4
BRANCH   1  15
ATOM     15  C   UNL d   1     -40.311  15.211  20.601  0.00  0.00     0.065 C 
BRANCH  15  16
ATOM     16  C   UNL d   1     -40.231  15.226  21.422  0.00  0.00     0.030 C 
BRANCH  16  17
ATOM     17  C   UNL d   1     -39.584  14.869  21.780  0.00  0.00     0.100 A 
ATOM     18  O   UNL d   1     -39.464  14.051  21.883  0.00  0.00    -0.307 OA
ATOM     19  C   UNL d   1     -38.749  13.943  22.265  0.00  0.00     0.100 A 
ATOM     20  C   UNL d   1     -38.415  14.685  22.404  0.00  0.00     0.027 A 
ATOM     21  C   UNL d   1     -38.933  15.253  22.104  0.00  0.00     0.027 A 
BRANCH  19  22
ATOM     22  C   UNL d   1     -38.424  13.217  22.471  0.00  0.00     0.025 C 
ATOM     23  C   UNL d   1     -38.188  13.078  23.253  0.00  0.00     0.002 C 
ENDBRANCH  19  22
ENDBRANCH  16  17
ENDBRANCH  15  16
ENDBRANCH   1  15
TORSDOF 8
ENDMDL
MODEL 5
REMARK VINA RESULT:      -5.1      1.616      2.935
REMARK  8 active torsions:
REMARK  status: ('A' for Active; 'I' for Inactive)
REMARK    1  A    between atoms: C_2  and  C_8 
REMARK    2  A    between atoms: O_17  and  C_2 
REMARK    3  A    between atoms: C_15  and  C_3 
REMARK    4  A    between atoms: C_20  and  C_4 
REMARK    5  A    between atoms: C_5  and  C_16 
REMARK       I    between atoms: N_9  and  C_5 
REMARK    6  A    between atoms: C_14  and  N_9 
REMARK    7  A    between atoms: C_16  and  C_15 
REMARK    8  A    between atoms: C_21  and  O_17 
ROOT
ATOM      1  C   UNL d   1     -50.283  14.966  22.275  0.00  0.00     0.279 C 
ATOM      2  N   UNL d   1     -49.665  15.500  22.270  0.00  0.00    -0.208 NA
ATOM      3  O   UNL d   1     -51.064  15.232  22.180  0.00  0.00    -0.265 OA
ENDROOT
BRANCH   2   4
ATOM      4  C   UNL d   1     -48.887  15.234  22.363  0.00  0.00     0.085 A 
ATOM      5  C   UNL d   1     -48.554  15.206  23.115  0.00  0.00     0.019 A 
ATOM      6  C   UNL d   1     -47.781  14.942  23.207  0.00  0.00     0.007 A 
ATOM      7  C   UNL d   1     -47.344  14.707  22.547  0.00  0.00     0.064 A 
ATOM      8  C   UNL d   1     -47.677  14.734  21.795  0.00  0.00     0.007 A 
ATOM      9  C   UNL d   1     -48.461  15.003  21.708  0.00  0.00     0.019 A 
BRANCH   7  10
ATOM     10  C   UNL d   1     -46.564  14.440  22.642  0.00  0.00     0.300 C 
ATOM     11  O   UNL d   1     -45.943  14.980  22.625  0.00  0.00    -0.259 OA
BRANCH  10  12
ATOM     12  O   UNL d   1     -46.414  13.643  22.751  0.00  0.00    -0.271 OA
BRANCH  12  13
ATOM     13  C   UNL d   1     -45.655  13.344  22.626  0.00  0.00     0.126 C 
ATOM     14  C   UNL d   1     -45.518  12.530  22.681  0.00  0.00     0.029 C 
ENDBRANCH  12  13
ENDBRANCH  10  12
ENDBRANCH   7  10
ENDBRANCH   2   4
BRANCH   1  15
ATOM     15  C   UNL d   1     -50.133  14.160  22.373  0.00  0.00     0.065 C 
BRANCH  15  16
ATOM     16  C   UNL d   1     -50.755  13.636  22.516  0.00  0.00     0.030 C 
BRANCH  16  17
ATOM     17  C   UNL d   1     -50.611  12.916  22.885  0.00  0.00     0.100 A 
ATOM     18  O   UNL d   1     -49.982  12.396  22.727  0.00  0.00    -0.307 OA
ATOM     19  C   UNL d   1     -50.053  11.749  23.220  0.00  0.00     0.100 A 
ATOM     20  C   UNL d   1     -50.723  11.855  23.691  0.00  0.00     0.027 A 
ATOM     21  C   UNL d   1     -51.064  12.576  23.481  0.00  0.00     0.027 A 
BRANCH  19  22
ATOM     22  C   UNL d   1     -49.542  11.105  23.241  0.00  0.00     0.025 C 
ATOM     23  C   UNL d   1     -48.852  11.140  23.697  0.00  0.00     0.002 C 
ENDBRANCH  19  22
ENDBRANCH  16  17
ENDBRANCH  15  16
ENDBRANCH   1  15
TORSDOF 8
ENDMDL
MODEL 6
REMARK VINA RESULT:      -4.7      1.561      3.266
REMARK  8 active torsions:
REMARK  status: ('A' for Active; 'I' for Inactive)
REMARK    1  A    between atoms: C_2  and  C_8 
REMARK    2  A    between atoms: O_17  and  C_2 
REMARK    3  A    between atoms: C_15  and  C_3 
REMARK    4  A    between atoms: C_20  and  C_4 
REMARK    5  A    between atoms: C_5  and  C_16 
REMARK       I    between atoms: N_9  and  C_5 
REMARK    6  A    between atoms: C_14  and  N_9 
REMARK    7  A    between atoms: C_16  and  C_15 
REMARK    8  A    between atoms: C_21  and  O_17 
ROOT
ATOM      1  C   UNL d   1     -47.028  14.750  22.630  0.00  0.00     0.279 C 
ATOM      2  N   UNL d   1     -46.623  14.040  22.649  0.00  0.00    -0.208 NA
ATOM      3  O   UNL d   1     -46.618  15.460  22.497  0.00  0.00    -0.265 OA
ENDROOT
BRANCH   2   4
ATOM      4  C   UNL d   1     -47.031  13.334  22.782  0.00  0.00     0.085 A 
ATOM      5  C   UNL d   1     -47.100  13.040  23.547  0.00  0.00     0.019 A 
ATOM      6  C   UNL d   1     -47.506  12.337  23.678  0.00  0.00     0.007 A 
ATOM      7  C   UNL d   1     -47.841  11.931  23.042  0.00  0.00     0.064 A 
ATOM      8  C   UNL d   1     -47.773  12.224  22.277  0.00  0.00     0.007 A 
ATOM      9  C   UNL d   1     -47.360  12.937  22.150  0.00  0.00     0.019 A 
BRANCH   7  10
ATOM     10  C   UNL d   1     -48.251  11.221  23.176  0.00  0.00     0.300 C 
ATOM     11  O   UNL d   1     -47.971  10.520  22.849  0.00  0.00    -0.259 OA
BRANCH  10  12
ATOM     12  O   UNL d   1     -48.930  11.221  23.632  0.00  0.00    -0.271 OA
BRANCH  12  13
ATOM     13  C   UNL d   1     -49.670  11.294  23.273  0.00  0.00     0.126 C 
ATOM     14  C   UNL d   1     -50.355  11.111  23.698  0.00  0.00     0.029 C 
ENDBRANCH  12  13
ENDBRANCH  10  12
ENDBRANCH   7  10
ENDBRANCH   2   4
BRANCH   1  15
ATOM     15  C   UNL d   1     -47.845  14.763  22.744  0.00  0.00     0.065 C 
BRANCH  15  16
ATOM     16  C   UNL d   1     -48.243  15.482  22.822  0.00  0.00     0.030 C 
BRANCH  16  17
ATOM     17  C   UNL d   1     -49.061  15.495  22.896  0.00  0.00     0.100 A 
ATOM     18  O   UNL d   1     -49.612  15.156  22.372  0.00  0.00    -0.307 OA
ATOM     19  C   UNL d   1     -50.363  15.301  22.660  0.00  0.00     0.100 A 
ATOM     20  C   UNL d   1     -50.293  15.729  23.362  0.00  0.00     0.027 A 
ATOM     21  C   UNL d   1     -49.489  15.846  23.504  0.00  0.00     0.027 A 
BRANCH  19  22
ATOM     22  C   UNL d   1     -51.064  15.059  22.306  0.00  0.00     0.025 C 
ATOM     23  C   UNL d   1     -51.044  14.544  21.658  0.00  0.00     0.002 C 
ENDBRANCH  19  22
ENDBRANCH  16  17
ENDBRANCH  15  16
ENDBRANCH   1  15
TORSDOF 8
ENDMDL
MODEL 7
REMARK VINA RESULT:      -4.2      8.961     10.604
REMARK  8 active torsions:
REMARK  status: ('A' for Active; 'I' for Inactive)
REMARK    1  A    between atoms: C_2  and  C_8 
REMARK    2  A    between atoms: O_17  and  C_2 
REMARK    3  A    between atoms: C_15  and  C_3 
REMARK    4  A    between atoms: C_20  and  C_4 
REMARK    5  A    between atoms: C_5  and  C_16 
REMARK       I    between atoms: N_9  and  C_5 
REMARK    6  A    between atoms: C_14  and  N_9 
REMARK    7  A    between atoms: C_16  and  C_15 
REMARK    8  A    between atoms: C_21  and  O_17 
ROOT
ATOM      1  C   UNL d   1     -40.753  14.372  18.518  0.00  0.00     0.279 C 
ATOM      2  N   UNL d   1     -40.796  14.191  19.313  0.00  0.00    -0.208 NA
ATOM      3  O   UNL d   1     -41.267  14.005  17.978  0.00  0.00    -0.265 OA
ENDROOT
BRANCH   2   4
ATOM      4  C   UNL d   1     -40.284  14.557  19.850  0.00  0.00     0.085 A 
ATOM      5  C   UNL d   1     -39.605  14.164  20.099  0.00  0.00     0.019 A 
ATOM      6  C   UNL d   1     -39.097  14.528  20.632  0.00  0.00     0.007 A 
ATOM      7  C   UNL d   1     -39.269  15.285  20.914  0.00  0.00     0.064 A 
ATOM      8  C   UNL d   1     -39.947  15.678  20.665  0.00  0.00     0.007 A 
ATOM      9  C   UNL d   1     -40.459  15.304  20.124  0.00  0.00     0.019 A 
BRANCH   7  10
ATOM     10  C   UNL d   1     -38.754  15.651  21.453  0.00  0.00     0.300 C 
ATOM     11  O   UNL d   1     -38.018  15.918  21.198  0.00  0.00    -0.259 OA
BRANCH  10  12
ATOM     12  O   UNL d   1     -38.980  15.746  22.234  0.00  0.00    -0.271 OA
BRANCH  12  13
ATOM     13  C   UNL d   1     -38.426  15.652  22.838  0.00  0.00     0.126 C 
ATOM     14  C   UNL d   1     -38.618  15.869  23.613  0.00  0.00     0.029 C 
ENDBRANCH  12  13
ENDBRANCH  10  12
ENDBRANCH   7  10
ENDBRANCH   2   4
BRANCH   1  15
ATOM     15  C   UNL d   1     -40.197  14.920  18.247  0.00  0.00     0.065 C 
BRANCH  15  16
ATOM     16  C   UNL d   1     -40.178  15.133  17.450  0.00  0.00     0.030 C 
BRANCH  16  17
ATOM     17  C   UNL d   1     -39.464  15.144  17.043  0.00  0.00     0.100 A 
ATOM     18  O   UNL d   1     -39.149  14.529  16.579  0.00  0.00    -0.307 OA
ATOM     19  C   UNL d   1     -38.431  14.776  16.278  0.00  0.00     0.100 A 
ATOM     20  C   UNL d   1     -38.288  15.544  16.546  0.00  0.00     0.027 A 
ATOM     21  C   UNL d   1     -38.928  15.766  17.018  0.00  0.00     0.027 A 
BRANCH  19  22
ATOM     22  C   UNL d   1     -37.940  14.333  15.791  0.00  0.00     0.025 C 
ATOM     23  C   UNL d   1     -38.266  13.861  15.193  0.00  0.00     0.002 C 
ENDBRANCH  19  22
ENDBRANCH  16  17
ENDBRANCH  15  16
ENDBRANCH   1  15
TORSDOF 8
ENDMDL
