MODEL 1
REMARK VINA RESULT:      -4.3      0.000      0.000
REMARK  6 active torsions:
REMARK  status: ('A' for Active; 'I' for Inactive)
REMARK    1  A    between atoms: C_5  and  C_4 
REMARK    2  A    between atoms: C_6  and  C_5 
REMARK       I    between atoms: N_9  and  C_6 
REMARK    3  A    between atoms: C_10  and  N_9 
REMARK    4  A    between atoms: O_14  and  C_13 
REMARK    5  A    between atoms: C_19  and  O_14 
REMARK    6  A    between atoms: C_20  and  C_19 
ROOT
ATOM      1  C   UNL d   1     -41.719-122.406 -51.710  0.00  0.00     0.281 C 
ATOM      2  N   UNL d   1     -41.864-122.143 -52.460  0.00  0.00    -0.206 NA
ATOM      3  O   UNL d   1     -41.350-123.125 -51.599  0.00  0.00    -0.265 OA
ENDROOT
BRANCH   1   4
ATOM      4  C   UNL d   1     -41.945-121.949 -51.077  0.00  0.00     0.086 C 
BRANCH   4   5
ATOM      5  C   UNL d   1     -42.197-122.300 -50.372  0.00  0.00     0.144 A 
ATOM      6  C   UNL d   1     -42.992-122.265 -50.151  0.00  0.00     0.297 A 
ATOM      7  N   UNL d   1     -43.250-122.614 -49.447  0.00  0.00    -0.205 NA
ATOM      8  O   UNL d   1     -43.548-121.878 -50.630  0.00  0.00    -0.264 OA
ATOM      9  C   UNL d   1     -42.692-123.004 -48.962  0.00  0.00     0.102 A 
ATOM     10  C   UNL d   1     -41.898-123.039 -49.184  0.00  0.00     0.099 A 
ATOM     11  C   UNL d   1     -42.951-123.352 -48.260  0.00  0.00     0.021 A 
ATOM     12  N   UNL d   1     -41.647-122.684 -49.895  0.00  0.00    -0.239 NA
ATOM     13  C   UNL d   1     -41.348-123.422 -48.707  0.00  0.00     0.021 A 
ATOM     14  C   UNL d   1     -41.601-123.771 -48.006  0.00  0.00     0.002 A 
ATOM     15  C   UNL d   1     -42.396-123.736 -47.785  0.00  0.00     0.002 A 
ENDBRANCH   4   5
ENDBRANCH   1   4
BRANCH   2  16
ATOM     16  C   UNL d   1     -41.649-122.584 -53.262  0.00  0.00     0.107 A 
ATOM     17  C   UNL d   1     -41.738-122.286 -54.034  0.00  0.00     0.118 A 
ATOM     18  C   UNL d   1     -41.509-122.783 -54.649  0.00  0.00     0.026 A 
ATOM     19  C   UNL d   1     -41.193-123.566 -54.504  0.00  0.00     0.002 A 
ATOM     20  C   UNL d   1     -41.123-123.815 -53.752  0.00  0.00     0.002 A 
ATOM     21  C   UNL d   1     -41.346-123.337 -53.123  0.00  0.00     0.021 A 
BRANCH  17  22
ATOM     22  O   UNL d   1     -42.044-121.525 -54.197  0.00  0.00    -0.304 OA
BRANCH  22  23
ATOM     23  C   UNL d   1     -42.649-121.434 -54.761  0.00  0.00     0.123 C 
BRANCH  23  24
ATOM     24  C   UNL d   1     -42.508-121.568 -55.591  0.00  0.00     0.027 C 
ATOM     25  C   UNL d   1     -43.128-121.570 -56.159  0.00  0.00     0.002 C 
ENDBRANCH  23  24
ENDBRANCH  22  23
ENDBRANCH  17  22
ENDBRANCH   2  16
TORSDOF 6
ENDMDL
MODEL 2
REMARK VINA RESULT:      -2.9      1.004      4.734
REMARK  6 active torsions:
REMARK  status: ('A' for Active; 'I' for Inactive)
REMARK    1  A    between atoms: C_5  and  C_4 
REMARK    2  A    between atoms: C_6  and  C_5 
REMARK       I    between atoms: N_9  and  C_6 
REMARK    3  A    between atoms: C_10  and  N_9 
REMARK    4  A    between atoms: O_14  and  C_13 
REMARK    5  A    between atoms: C_19  and  O_14 
REMARK    6  A    between atoms: C_20  and  C_19 
ROOT
ATOM      1  C   UNL d   1     -41.326-122.587 -51.374  0.00  0.00     0.281 C 
ATOM      2  N   UNL d   1     -41.544-122.295 -50.653  0.00  0.00    -0.206 NA
ATOM      3  O   UNL d   1     -41.315-123.394 -51.495  0.00  0.00    -0.265 OA
ENDROOT
BRANCH   1   4
ATOM      4  C   UNL d   1     -41.123-122.071 -51.968  0.00  0.00     0.086 C 
BRANCH   4   5
ATOM      5  C   UNL d   1     -41.428-122.165 -52.730  0.00  0.00     0.144 A 
ATOM      6  C   UNL d   1     -41.865-121.558 -53.081  0.00  0.00     0.297 A 
ATOM      7  N   UNL d   1     -42.173-121.645 -53.843  0.00  0.00    -0.205 NA
ATOM      8  O   UNL d   1     -42.004-120.848 -52.675  0.00  0.00    -0.264 OA
ATOM      9  C   UNL d   1     -42.035-122.359 -54.255  0.00  0.00     0.102 A 
ATOM     10  C   UNL d   1     -41.598-122.966 -53.904  0.00  0.00     0.099 A 
ATOM     11  C   UNL d   1     -42.343-122.445 -55.016  0.00  0.00     0.021 A 
ATOM     12  N   UNL d   1     -41.291-122.868 -53.135  0.00  0.00    -0.239 NA
ATOM     13  C   UNL d   1     -41.461-123.669 -54.308  0.00  0.00     0.021 A 
ATOM     14  C   UNL d   1     -41.766-123.759 -55.067  0.00  0.00     0.002 A 
ATOM     15  C   UNL d   1     -42.203-123.153 -55.418  0.00  0.00     0.002 A 
ENDBRANCH   4   5
ENDBRANCH   1   4
BRANCH   2  16
ATOM     16  C   UNL d   1     -41.798-122.793 -49.897  0.00  0.00     0.107 A 
ATOM     17  C   UNL d   1     -42.536-122.773 -49.512  0.00  0.00     0.118 A 
ATOM     18  C   UNL d   1     -42.622-123.265 -48.858  0.00  0.00     0.026 A 
ATOM     19  C   UNL d   1     -41.988-123.772 -48.585  0.00  0.00     0.002 A 
ATOM     20  C   UNL d   1     -41.297-123.763 -48.980  0.00  0.00     0.002 A 
ATOM     21  C   UNL d   1     -41.188-123.281 -49.635  0.00  0.00     0.021 A 
BRANCH  17  22
ATOM     22  O   UNL d   1     -43.168-122.286 -49.761  0.00  0.00    -0.304 OA
BRANCH  22  23
ATOM     23  C   UNL d   1     -43.952-122.554 -49.684  0.00  0.00     0.123 C 
BRANCH  23  24
ATOM     24  C   UNL d   1     -44.530-122.421 -50.297  0.00  0.00     0.027 C 
ATOM     25  C   UNL d   1     -45.128-121.833 -50.233  0.00  0.00     0.002 C 
ENDBRANCH  23  24
ENDBRANCH  22  23
ENDBRANCH  17  22
ENDBRANCH   2  16
TORSDOF 6
ENDMDL
