MODEL 1
REMARK VINA RESULT:      -7.6      0.000      0.000
REMARK  4 active torsions:
REMARK  status: ('A' for Active; 'I' for Inactive)
REMARK    1  A    between atoms: N_3  and  S_1 
REMARK    2  A    between atoms: C_6  and  S_1 
REMARK       I    between atoms: C_2  and  N_4 
REMARK       I    between atoms: N_5  and  C_2 
REMARK    3  A    between atoms: C_14  and  N_5 
REMARK    4  A    between atoms: C_15  and  N_5 
ROOT
ATOM      1  C   UNL d   1      47.544  35.150  51.564  0.00  0.00     0.339 C 
ATOM      2  N   UNL d   1      49.810  34.532  52.345  0.00  0.00    -0.226 N 
ATOM      3  N   UNL d   1      48.311  34.940  51.829  0.00  0.00    -0.254 N 
ATOM      4  N   UNL d   1      47.031  35.575  52.041  0.00  0.00    -0.260 N 
ATOM      5  C   UNL d   1      49.560  34.304  51.583  0.00  0.00     0.111 A 
ATOM      6  C   UNL d   1      49.307  34.960  52.836  0.00  0.00     0.111 A 
ATOM      7  O   UNL d   1      47.305  34.919  50.806  0.00  0.00    -0.245 OA
ATOM      8  C   UNL d   1      48.559  35.164  52.578  0.00  0.00     0.104 A 
ATOM      9  C   UNL d   1      48.812  34.508  51.325  0.00  0.00     0.104 A 
ENDROOT
BRANCH   4  10
ATOM     10  C   UNL d   1      47.280  35.807  52.810  0.00  0.00     0.068 A 
ATOM     11  C   UNL d   1      47.050  35.344  53.467  0.00  0.00     0.018 A 
ATOM     12  C   UNL d   1      47.292  35.565  54.232  0.00  0.00     0.002 A 
ATOM     13  C   UNL d   1      47.764  36.250  54.335  0.00  0.00     0.000 A 
ATOM     14  C   UNL d   1      47.991  36.709  53.673  0.00  0.00     0.002 A 
ATOM     15  C   UNL d   1      47.745  36.482  52.903  0.00  0.00     0.018 A 
ENDBRANCH   4  10
BRANCH   4  16
ATOM     16  C   UNL d   1      46.290  35.772  51.773  0.00  0.00     0.068 A 
ATOM     17  C   UNL d   1      45.662  35.242  51.874  0.00  0.00     0.018 A 
ATOM     18  C   UNL d   1      44.915  35.437  51.606  0.00  0.00     0.002 A 
ATOM     19  C   UNL d   1      44.788  36.160  51.236  0.00  0.00     0.000 A 
ATOM     20  C   UNL d   1      45.414  36.686  51.136  0.00  0.00     0.002 A 
ATOM     21  C   UNL d   1      46.160  36.488  51.405  0.00  0.00     0.018 A 
ENDBRANCH   4  16
BRANCH   2  22
ATOM     22  S   UNL d   1      50.565  34.326  52.605  0.00  0.00     0.271 S 
ATOM     23  O   UNL d   1      50.700  34.178  53.404  0.00  0.00    -0.200 OA
ATOM     24  O   UNL d   1      51.186  34.268  52.068  0.00  0.00    -0.200 OA
BRANCH  22  25
ATOM     25  C   UNL d   1      51.320  34.120  52.865  0.00  0.00     0.104 A 
ATOM     26  C   UNL d   1      51.511  33.321  52.990  0.00  0.00     0.013 A 
ATOM     27  C   UNL d   1      52.266  33.115  53.250  0.00  0.00     0.001 A 
ATOM     28  C   UNL d   1      52.831  33.708  53.386  0.00  0.00     0.000 A 
ATOM     29  C   UNL d   1      52.635  34.501  53.260  0.00  0.00     0.001 A 
ATOM     30  C   UNL d   1      53.586  33.502  53.646  0.00  0.00     0.000 C 
ATOM     31  C   UNL d   1      51.884  34.705  53.002  0.00  0.00     0.013 A 
ENDBRANCH  22  25
ENDBRANCH   2  22
TORSDOF 4
ENDMDL
MODEL 2
REMARK VINA RESULT:      -6.3      1.906      6.366
REMARK  4 active torsions:
REMARK  status: ('A' for Active; 'I' for Inactive)
REMARK    1  A    between atoms: N_3  and  S_1 
REMARK    2  A    between atoms: C_6  and  S_1 
REMARK       I    between atoms: C_2  and  N_4 
REMARK       I    between atoms: N_5  and  C_2 
REMARK    3  A    between atoms: C_14  and  N_5 
REMARK    4  A    between atoms: C_15  and  N_5 
ROOT
ATOM      1  C   UNL d   1      53.011  34.324  54.167  0.00  0.00     0.339 C 
ATOM      2  N   UNL d   1      50.916  34.489  52.859  0.00  0.00    -0.226 N 
ATOM      3  N   UNL d   1      52.302  34.380  53.724  0.00  0.00    -0.254 N 
ATOM      4  N   UNL d   1      53.448  33.632  54.184  0.00  0.00    -0.260 N 
ATOM      5  C   UNL d   1      51.185  35.150  53.291  0.00  0.00     0.111 A 
ATOM      6  C   UNL d   1      51.343  33.786  52.866  0.00  0.00     0.111 A 
ATOM      7  O   UNL d   1      53.270  34.986  54.592  0.00  0.00    -0.245 OA
ATOM      8  C   UNL d   1      52.035  33.732  53.298  0.00  0.00     0.104 A 
ATOM      9  C   UNL d   1      51.877  35.095  53.723  0.00  0.00     0.104 A 
ENDROOT
BRANCH   4  10
ATOM     10  C   UNL d   1      53.179  32.964  53.749  0.00  0.00     0.068 A 
ATOM     11  C   UNL d   1      52.678  32.410  54.125  0.00  0.00     0.018 A 
ATOM     12  C   UNL d   1      52.407  31.746  53.703  0.00  0.00     0.002 A 
ATOM     13  C   UNL d   1      52.640  31.641  52.905  0.00  0.00     0.000 A 
ATOM     14  C   UNL d   1      53.141  32.198  52.534  0.00  0.00     0.002 A 
ATOM     15  C   UNL d   1      53.412  32.866  52.964  0.00  0.00     0.018 A 
ENDBRANCH   4  10
BRANCH   4  16
ATOM     16  C   UNL d   1      54.134  33.590  54.617  0.00  0.00     0.068 A 
ATOM     17  C   UNL d   1      54.860  33.754  54.254  0.00  0.00     0.018 A 
ATOM     18  C   UNL d   1      55.552  33.713  54.686  0.00  0.00     0.002 A 
ATOM     19  C   UNL d   1      55.527  33.508  55.483  0.00  0.00     0.000 A 
ATOM     20  C   UNL d   1      54.803  33.346  55.842  0.00  0.00     0.002 A 
ATOM     21  C   UNL d   1      54.113  33.388  55.407  0.00  0.00     0.018 A 
ENDBRANCH   4  16
BRANCH   2  22
ATOM     22  S   UNL d   1      50.218  34.544  52.423  0.00  0.00     0.271 S 
ATOM     23  O   UNL d   1      49.918  35.283  52.216  0.00  0.00    -0.200 OA
ATOM     24  O   UNL d   1      49.819  33.862  52.194  0.00  0.00    -0.200 OA
BRANCH  22  25
ATOM     25  C   UNL d   1      49.520  34.599  51.988  0.00  0.00     0.104 A 
ATOM     26  C   UNL d   1      49.524  34.421  51.176  0.00  0.00     0.013 A 
ATOM     27  C   UNL d   1      48.826  34.476  50.740  0.00  0.00     0.001 A 
ATOM     28  C   UNL d   1      48.123  34.709  51.116  0.00  0.00     0.000 A 
ATOM     29  C   UNL d   1      48.126  34.885  51.923  0.00  0.00     0.001 A 
ATOM     30  C   UNL d   1      47.425  34.764  50.680  0.00  0.00     0.000 C 
ATOM     31  C   UNL d   1      48.820  34.830  52.356  0.00  0.00     0.013 A 
ENDBRANCH  22  25
ENDBRANCH   2  22
TORSDOF 4
ENDMDL
