MODEL 1
REMARK VINA RESULT:      43.5      0.000      0.000
REMARK  4 active torsions:
REMARK  status: ('A' for Active; 'I' for Inactive)
REMARK    1  A    between atoms: C_4  and  S_1 
REMARK    2  A    between atoms: N_8  and  S_1 
REMARK    3  A    between atoms: C_5  and  C_11 
REMARK    4  A    between atoms: C_16  and  N_8 
ROOT
ATOM      1  C   UNL d   1      13.521  12.377  -3.132  0.00  0.00     0.021 A 
ATOM      2  C   UNL d   1      13.353  13.263  -4.252  0.00  0.00     0.094 A 
ATOM      3  C   UNL d   1      13.630  13.126  -3.489  0.00  0.00     0.021 A 
ATOM      4  C   UNL d   1      13.138  11.780  -3.545  0.00  0.00     0.002 A 
ATOM      5  C   UNL d   1      12.854  11.909  -4.316  0.00  0.00     0.002 A 
ATOM      6  C   UNL d   1      12.963  12.658  -4.673  0.00  0.00     0.020 A 
ENDROOT
BRANCH   2   7
ATOM      7  N   UNL d   1      13.459  13.994  -4.601  0.00  0.00    -0.158 NA
BRANCH   7   8
ATOM      8  S   UNL d   1      13.214  14.676  -4.211  0.00  0.00     0.287 S 
ATOM      9  O   UNL d   1      12.769  14.226  -3.696  0.00  0.00    -0.198 OA
ATOM     10  O   UNL d   1      12.960  15.355  -3.810  0.00  0.00    -0.198 OA
BRANCH   8  11
ATOM     11  C   UNL d   1      13.662  15.137  -4.726  0.00  0.00     0.133 A 
ATOM     12  C   UNL d   1      14.232  15.649  -4.424  0.00  0.00     0.155 A 
ATOM     13  C   UNL d   1      14.682  16.112  -4.931  0.00  0.00     0.060 A 
ATOM     14  F   UNL d   1      14.354  15.698  -3.610  0.00  0.00    -0.203 F 
ATOM     15  C   UNL d   1      14.561  16.065  -5.754  0.00  0.00     0.142 A 
ATOM     16  C   UNL d   1      13.988  15.551  -6.052  0.00  0.00     0.030 A 
ATOM     17  F   UNL d   1      15.012  16.530  -6.266  0.00  0.00    -0.204 F 
ATOM     18  C   UNL d   1      13.542  15.092  -5.546  0.00  0.00     0.018 A 
ENDBRANCH   8  11
ENDBRANCH   7   8
ENDBRANCH   2   7
BRANCH   1  19
ATOM     19  C   UNL d   1      13.798  12.240  -2.370  0.00  0.00     0.101 A 
ATOM     20  N   UNL d   1      13.334  12.052  -1.717  0.00  0.00    -0.221 NA
ATOM     21  C   UNL d   1      13.834  11.960  -1.059  0.00  0.00     0.179 A 
ATOM     22  S   UNL d   1      13.864  11.791  -0.263  0.00  0.00    -0.048 SA
ATOM     23  N   UNL d   1      14.615  12.096  -1.326  0.00  0.00    -0.282 N 
ATOM     24  C   UNL d   1      14.652  11.818  -0.019  0.00  0.00     0.057 A 
ATOM     25  C   UNL d   1      15.120  12.006  -0.675  0.00  0.00     0.089 A 
ATOM     26  C   UNL d   1      14.579  12.268  -2.136  0.00  0.00     0.101 A 
ENDBRANCH   1  19
TORSDOF 4
ENDMDL
MODEL 2
REMARK VINA RESULT:      45.4      2.222      4.518
REMARK  4 active torsions:
REMARK  status: ('A' for Active; 'I' for Inactive)
REMARK    1  A    between atoms: C_4  and  S_1 
REMARK    2  A    between atoms: N_8  and  S_1 
REMARK    3  A    between atoms: C_5  and  C_11 
REMARK    4  A    between atoms: C_16  and  N_8 
ROOT
ATOM      1  C   UNL d   1      13.485  13.426  -4.050  0.00  0.00     0.021 A 
ATOM      2  C   UNL d   1      13.655  12.220  -3.286  0.00  0.00     0.094 A 
ATOM      3  C   UNL d   1      13.747  13.034  -3.358  0.00  0.00     0.021 A 
ATOM      4  C   UNL d   1      13.137  12.995  -4.656  0.00  0.00     0.002 A 
ATOM      5  C   UNL d   1      13.040  12.171  -4.592  0.00  0.00     0.002 A 
ATOM      6  C   UNL d   1      13.301  11.780  -3.900  0.00  0.00     0.020 A 
ENDROOT
BRANCH   2   7
ATOM      7  N   UNL d   1      13.910  11.837  -2.611  0.00  0.00    -0.158 NA
BRANCH   7   8
ATOM      8  S   UNL d   1      13.452  11.858  -1.927  0.00  0.00     0.287 S 
ATOM      9  O   UNL d   1      12.773  11.816  -2.376  0.00  0.00    -0.198 OA
ATOM     10  O   UNL d   1      12.981  11.878  -1.246  0.00  0.00    -0.198 OA
BRANCH   8  11
ATOM     11  C   UNL d   1      14.134  11.901  -1.466  0.00  0.00     0.133 A 
ATOM     12  C   UNL d   1      14.069  12.028  -0.655  0.00  0.00     0.155 A 
ATOM     13  C   UNL d   1      14.743  12.072  -0.189  0.00  0.00     0.060 A 
ATOM     14  F   UNL d   1      13.326  12.111  -0.307  0.00  0.00    -0.203 F 
ATOM     15  C   UNL d   1      15.495  11.989  -0.536  0.00  0.00     0.142 A 
ATOM     16  C   UNL d   1      15.555  11.862  -1.350  0.00  0.00     0.030 A 
ATOM     17  F   UNL d   1      16.175  12.033  -0.069  0.00  0.00    -0.204 F 
ATOM     18  C   UNL d   1      14.883  11.818  -1.811  0.00  0.00     0.018 A 
ENDBRANCH   8  11
ENDBRANCH   7   8
ENDBRANCH   2   7
BRANCH   1  19
ATOM     19  C   UNL d   1      13.577  14.240  -4.122  0.00  0.00     0.101 A 
ATOM     20  N   UNL d   1      14.161  14.691  -3.761  0.00  0.00    -0.221 NA
ATOM     21  C   UNL d   1      14.052  15.485  -3.980  0.00  0.00     0.179 A 
ATOM     22  S   UNL d   1      14.335  16.244  -3.899  0.00  0.00    -0.048 SA
ATOM     23  N   UNL d   1      13.386  15.509  -4.485  0.00  0.00    -0.282 N 
ATOM     24  C   UNL d   1      13.859  16.751  -4.345  0.00  0.00     0.057 A 
ATOM     25  C   UNL d   1      13.270  16.298  -4.709  0.00  0.00     0.089 A 
ATOM     26  C   UNL d   1      13.102  14.734  -4.565  0.00  0.00     0.101 A 
ENDBRANCH   1  19
TORSDOF 4
ENDMDL
