MODEL 1
REMARK VINA RESULT:       1.1      0.000      0.000
REMARK  4 active torsions:
REMARK  status: ('A' for Active; 'I' for Inactive)
REMARK    1  A    between atoms: C_8  and  S_1 
REMARK    2  A    between atoms: C_2  and  C_10 
REMARK    3  A    between atoms: C_6  and  C_14 
REMARK       I    between atoms: N_9  and  C_6 
REMARK    4  A    between atoms: C_23  and  N_9 
ROOT
ATOM      1  C   UNL d   1     -41.760-122.423 -53.577  0.00  0.00     0.024 A 
ATOM      2  C   UNL d   1     -41.891-121.855 -53.005  0.00  0.00     0.004 A 
ATOM      3  C   UNL d   1     -41.568-123.193 -53.364  0.00  0.00     0.004 A 
ATOM      4  C   UNL d   1     -41.635-122.827 -51.987  0.00  0.00     0.085 A 
ATOM      5  C   UNL d   1     -41.504-123.401 -52.569  0.00  0.00     0.019 A 
ATOM      6  C   UNL d   1     -41.829-122.054 -52.207  0.00  0.00     0.019 A 
ENDROOT
BRANCH   4   7
ATOM      7  N   UNL d   1     -41.573-123.028 -51.185  0.00  0.00    -0.208 NA
ATOM      8  C   UNL d   1     -42.178-122.819 -50.667  0.00  0.00     0.279 C 
ATOM      9  O   UNL d   1     -42.842-122.415 -50.934  0.00  0.00    -0.265 OA
BRANCH   8  10
ATOM     10  C   UNL d   1     -42.116-123.018 -49.873  0.00  0.00     0.058 A 
ATOM     11  C   UNL d   1     -41.374-123.148 -49.535  0.00  0.00     0.005 A 
ATOM     12  C   UNL d   1     -41.312-123.345 -48.744  0.00  0.00     0.013 A 
ATOM     13  C   UNL d   1     -42.001-123.417 -48.272  0.00  0.00     0.107 A 
ATOM     14  C   UNL d   1     -42.744-123.288 -48.607  0.00  0.00     0.013 A 
ATOM     15  C   UNL d   1     -42.806-123.087 -49.409  0.00  0.00     0.005 A 
BRANCH  13  16
ATOM     16  S   UNL d   1     -41.939-123.617 -47.470  0.00  0.00     0.302 S 
ATOM     17  O   UNL d   1     -41.126-123.522 -47.510  0.00  0.00    -0.197 OA
ATOM     18  O   UNL d   1     -42.759-123.709 -47.442  0.00  0.00    -0.197 OA
ATOM     19  N   UNL d   1     -41.887-123.816 -46.676  0.00  0.00    -0.043 N 
ENDBRANCH  13  16
ENDBRANCH   8  10
ENDBRANCH   4   7
BRANCH   1  20
ATOM     20  C   UNL d   1     -41.823-122.218 -54.377  0.00  0.00     0.112 A 
ATOM     21  S   UNL d   1     -42.516-122.283 -54.842  0.00  0.00    -0.047 SA
ATOM     22  C   UNL d   1     -42.332-122.018 -55.609  0.00  0.00     0.130 A 
ATOM     23  N   UNL d   1     -42.785-121.954 -56.295  0.00  0.00    -0.236 NA
ATOM     24  C   UNL d   1     -41.530-121.790 -55.619  0.00  0.00     0.106 A 
ATOM     25  C   UNL d   1     -42.445-121.665 -56.992  0.00  0.00     0.100 A 
ATOM     26  C   UNL d   1     -41.640-121.437 -56.998  0.00  0.00     0.022 A 
ATOM     27  C   UNL d   1     -41.191-121.502 -56.312  0.00  0.00     0.023 A 
ATOM     28  N   UNL d   1     -41.223-121.919 -54.846  0.00  0.00    -0.237 NA
ENDBRANCH   1  20
TORSDOF 4
ENDMDL
