MODEL 1
REMARK VINA RESULT:      -3.0      0.000      0.000
REMARK  4 active torsions:
REMARK  status: ('A' for Active; 'I' for Inactive)
REMARK    1  A    between atoms: S_2  and  C_1 
REMARK    2  A    between atoms: C_10  and  S_2 
REMARK    3  A    between atoms: N_7  and  C_4 
REMARK    4  A    between atoms: C_8  and  N_7 
ROOT
ATOM      1  C   UNL d   1      32.728  18.850 -22.949  0.00  0.00     0.187 A 
ATOM      2  N   UNL d   1      32.781  19.048 -22.148  0.00  0.00    -0.208 NA
ATOM      3  C   UNL d   1      33.096  19.800 -22.094  0.00  0.00     0.198 A 
ATOM      4  C   UNL d   1      33.014  19.487 -23.385  0.00  0.00     0.118 A 
ATOM      5  S   UNL d   1      33.241  20.073 -22.854  0.00  0.00    -0.035 SA
ATOM      6 CL   UNL d   1      33.066  19.533 -24.223  0.00  0.00    -0.073 Cl
ENDROOT
BRANCH   1   7
ATOM      7  S   UNL d   1      32.457  18.174 -23.335  0.00  0.00     0.228 S 
ATOM      8  O   UNL d   1      33.022  17.721 -22.939  0.00  0.00    -0.216 OA
ATOM      9  O   UNL d   1      31.892  18.626 -23.731  0.00  0.00    -0.216 OA
BRANCH   7  10
ATOM     10  C   UNL d   1      32.185  17.497 -23.721  0.00  0.00     0.089 A 
ATOM     11  C   UNL d   1      32.728  16.926 -23.984  0.00  0.00     0.011 A 
ATOM     12  C   UNL d   1      32.454  16.243 -24.373  0.00  0.00     0.001 A 
ATOM     13  C   UNL d   1      31.640  16.136 -24.497  0.00  0.00     0.000 A 
ATOM     14  C   UNL d   1      31.104  16.704 -24.235  0.00  0.00     0.001 A 
ATOM     15  C   UNL d   1      31.369  15.460 -24.883  0.00  0.00     0.000 C 
ATOM     16  C   UNL d   1      31.378  17.388 -23.845  0.00  0.00     0.011 A 
ENDBRANCH   7  10
ENDBRANCH   1   7
BRANCH   3  17
ATOM     17  N   UNL d   1      33.241  20.206 -21.385  0.00  0.00    -0.196 NA
BRANCH  17  18
ATOM     18  C   UNL d   1      32.767  20.846 -21.177  0.00  0.00     0.196 A 
ATOM     19  N   UNL d   1      31.947  20.934 -21.129  0.00  0.00    -0.219 NA
ATOM     20  C   UNL d   1      31.791  21.705 -20.889  0.00  0.00     0.108 A 
ATOM     21  C   UNL d   1      32.507  22.094 -20.788  0.00  0.00     0.059 A 
ATOM     22  S   UNL d   1      33.109  21.566 -20.965  0.00  0.00    -0.046 SA
ENDBRANCH  17  18
ENDBRANCH   3  17
TORSDOF 4
ENDMDL
MODEL 2
REMARK VINA RESULT:      -2.9      2.434      3.408
REMARK  4 active torsions:
REMARK  status: ('A' for Active; 'I' for Inactive)
REMARK    1  A    between atoms: S_2  and  C_1 
REMARK    2  A    between atoms: C_10  and  S_2 
REMARK    3  A    between atoms: N_7  and  C_4 
REMARK    4  A    between atoms: C_8  and  N_7 
ROOT
ATOM      1  C   UNL d   1      31.460  16.731 -24.047  0.00  0.00     0.187 A 
ATOM      2  N   UNL d   1      31.876  17.373 -23.736  0.00  0.00    -0.208 NA
ATOM      3  C   UNL d   1      32.638  17.346 -24.030  0.00  0.00     0.198 A 
ATOM      4  C   UNL d   1      31.973  16.310 -24.533  0.00  0.00     0.118 A 
ATOM      5  S   UNL d   1      32.701  16.693 -24.521  0.00  0.00    -0.035 SA
ATOM      6 CL   UNL d   1      31.789  15.613 -24.967  0.00  0.00    -0.073 Cl
ENDROOT
BRANCH   1   7
ATOM      7  S   UNL d   1      30.681  16.477 -23.948  0.00  0.00     0.228 S 
ATOM      8  O   UNL d   1      30.928  15.947 -23.366  0.00  0.00    -0.216 OA
ATOM      9  O   UNL d   1      30.435  17.006 -24.531  0.00  0.00    -0.216 OA
BRANCH   7  10
ATOM     10  C   UNL d   1      29.903  16.222 -23.850  0.00  0.00     0.089 A 
ATOM     11  C   UNL d   1      29.688  15.805 -23.165  0.00  0.00     0.011 A 
ATOM     12  C   UNL d   1      28.901  15.549 -23.066  0.00  0.00     0.001 A 
ATOM     13  C   UNL d   1      28.337  15.711 -23.653  0.00  0.00     0.000 A 
ATOM     14  C   UNL d   1      28.554  16.124 -24.332  0.00  0.00     0.001 A 
ATOM     15  C   UNL d   1      27.559  15.456 -23.555  0.00  0.00     0.000 C 
ATOM     16  C   UNL d   1      29.340  16.381 -24.431  0.00  0.00     0.011 A 
ENDBRANCH   7  10
ENDBRANCH   1   7
BRANCH   3  17
ATOM     17  N   UNL d   1      33.237  17.893 -23.853  0.00  0.00    -0.196 NA
BRANCH  17  18
ATOM     18  C   UNL d   1      33.194  18.657 -24.156  0.00  0.00     0.196 A 
ATOM     19  N   UNL d   1      33.107  18.943 -24.926  0.00  0.00    -0.219 NA
ATOM     20  C   UNL d   1      33.100  19.765 -24.890  0.00  0.00     0.108 A 
ATOM     21  C   UNL d   1      33.183  19.990 -24.104  0.00  0.00     0.059 A 
ATOM     22  S   UNL d   1      33.241  19.308 -23.651  0.00  0.00    -0.046 SA
ENDBRANCH  17  18
ENDBRANCH   3  17
TORSDOF 4
ENDMDL
MODEL 3
REMARK VINA RESULT:      -2.0      1.575      4.880
REMARK  4 active torsions:
REMARK  status: ('A' for Active; 'I' for Inactive)
REMARK    1  A    between atoms: S_2  and  C_1 
REMARK    2  A    between atoms: C_10  and  S_2 
REMARK    3  A    between atoms: N_7  and  C_4 
REMARK    4  A    between atoms: C_8  and  N_7 
ROOT
ATOM      1  C   UNL d   1      32.927  20.099 -22.292  0.00  0.00     0.187 A 
ATOM      2  N   UNL d   1      32.896  19.883 -23.089  0.00  0.00    -0.208 NA
ATOM      3  C   UNL d   1      33.089  19.090 -23.144  0.00  0.00     0.198 A 
ATOM      4  C   UNL d   1      33.141  19.433 -21.859  0.00  0.00     0.118 A 
ATOM      5  S   UNL d   1      33.241  18.810 -22.388  0.00  0.00    -0.035 SA
ATOM      6 CL   UNL d   1      33.241  19.392 -21.025  0.00  0.00    -0.073 Cl
ENDROOT
BRANCH   1   7
ATOM      7  S   UNL d   1      32.789  20.815 -21.908  0.00  0.00     0.228 S 
ATOM      8  O   UNL d   1      33.131  21.221 -22.539  0.00  0.00    -0.216 OA
ATOM      9  O   UNL d   1      32.446  20.410 -21.276  0.00  0.00    -0.216 OA
BRANCH   7  10
ATOM     10  C   UNL d   1      32.650  21.532 -21.523  0.00  0.00     0.089 A 
ATOM     11  C   UNL d   1      31.920  21.667 -21.152  0.00  0.00     0.011 A 
ATOM     12  C   UNL d   1      31.780  22.390 -20.764  0.00  0.00     0.001 A 
ATOM     13  C   UNL d   1      32.371  22.973 -20.749  0.00  0.00     0.000 A 
ATOM     14  C   UNL d   1      33.095  22.835 -21.119  0.00  0.00     0.001 A 
ATOM     15  C   UNL d   1      32.233  23.688 -20.365  0.00  0.00     0.000 C 
ATOM     16  C   UNL d   1      33.235  22.112 -21.507  0.00  0.00     0.011 A 
ENDBRANCH   7  10
ENDBRANCH   1   7
BRANCH   3  17
ATOM     17  N   UNL d   1      33.122  18.656 -23.849  0.00  0.00    -0.196 NA
BRANCH  17  18
ATOM     18  C   UNL d   1      32.493  18.169 -24.059  0.00  0.00     0.196 A 
ATOM     19  N   UNL d   1      31.693  18.325 -24.193  0.00  0.00    -0.219 NA
ATOM     20  C   UNL d   1      31.327  17.614 -24.388  0.00  0.00     0.108 A 
ATOM     21  C   UNL d   1      31.894  17.020 -24.376  0.00  0.00     0.059 A 
ATOM     22  S   UNL d   1      32.612  17.360 -24.174  0.00  0.00    -0.046 SA
ENDBRANCH  17  18
ENDBRANCH   3  17
TORSDOF 4
ENDMDL
MODEL 4
REMARK VINA RESULT:      -2.0      1.518      4.507
REMARK  4 active torsions:
REMARK  status: ('A' for Active; 'I' for Inactive)
REMARK    1  A    between atoms: S_2  and  C_1 
REMARK    2  A    between atoms: C_10  and  S_2 
REMARK    3  A    between atoms: N_7  and  C_4 
REMARK    4  A    between atoms: C_8  and  N_7 
ROOT
ATOM      1  C   UNL d   1      32.688  18.557 -23.330  0.00  0.00     0.187 A 
ATOM      2  N   UNL d   1      32.382  17.799 -23.210  0.00  0.00    -0.208 NA
ATOM      3  C   UNL d   1      32.410  17.400 -23.922  0.00  0.00     0.198 A 
ATOM      4  C   UNL d   1      32.903  18.620 -24.121  0.00  0.00     0.118 A 
ATOM      5  S   UNL d   1      32.731  17.902 -24.486  0.00  0.00    -0.035 SA
ATOM      6 CL   UNL d   1      33.240  19.294 -24.494  0.00  0.00    -0.073 Cl
ENDROOT
BRANCH   1   7
ATOM      7  S   UNL d   1      32.796  19.197 -22.820  0.00  0.00     0.228 S 
ATOM      8  O   UNL d   1      32.434  19.695 -23.368  0.00  0.00    -0.216 OA
ATOM      9  O   UNL d   1      33.159  18.698 -22.272  0.00  0.00    -0.216 OA
BRANCH   7  10
ATOM     10  C   UNL d   1      32.905  19.836 -22.310  0.00  0.00     0.089 A 
ATOM     11  C   UNL d   1      33.098  19.702 -21.514  0.00  0.00     0.011 A 
ATOM     12  C   UNL d   1      33.208  20.348 -21.000  0.00  0.00     0.001 A 
ATOM     13  C   UNL d   1      33.124  21.123 -21.286  0.00  0.00     0.000 A 
ATOM     14  C   UNL d   1      32.933  21.253 -22.076  0.00  0.00     0.001 A 
ATOM     15  C   UNL d   1      33.233  21.761 -20.777  0.00  0.00     0.000 C 
ATOM     16  C   UNL d   1      32.823  20.607 -22.591  0.00  0.00     0.011 A 
ENDBRANCH   7  10
ENDBRANCH   1   7
BRANCH   3  17
ATOM     17  N   UNL d   1      32.155  16.620 -24.042  0.00  0.00    -0.196 NA
BRANCH  17  18
ATOM     18  C   UNL d   1      31.353  16.463 -24.138  0.00  0.00     0.196 A 
ATOM     19  N   UNL d   1      30.764  16.842 -24.575  0.00  0.00    -0.219 NA
ATOM     20  C   UNL d   1      30.060  16.431 -24.457  0.00  0.00     0.108 A 
ATOM     21  C   UNL d   1      30.210  15.802 -23.951  0.00  0.00     0.059 A 
ATOM     22  S   UNL d   1      31.006  15.820 -23.753  0.00  0.00    -0.046 SA
ENDBRANCH  17  18
ENDBRANCH   3  17
TORSDOF 4
ENDMDL
MODEL 5
REMARK VINA RESULT:      -1.2      1.452      2.024
REMARK  4 active torsions:
REMARK  status: ('A' for Active; 'I' for Inactive)
REMARK    1  A    between atoms: S_2  and  C_1 
REMARK    2  A    between atoms: C_10  and  S_2 
REMARK    3  A    between atoms: N_7  and  C_4 
REMARK    4  A    between atoms: C_8  and  N_7 
ROOT
ATOM      1  C   UNL d   1      32.987  20.430 -22.390  0.00  0.00     0.187 A 
ATOM      2  N   UNL d   1      32.978  21.224 -22.619  0.00  0.00    -0.208 NA
ATOM      3  C   UNL d   1      33.134  21.679 -21.958  0.00  0.00     0.198 A 
ATOM      4  C   UNL d   1      33.150  20.402 -21.585  0.00  0.00     0.118 A 
ATOM      5  S   UNL d   1      33.241  21.175 -21.319  0.00  0.00    -0.035 SA
ATOM      6 CL   UNL d   1      33.213  19.708 -21.113  0.00  0.00    -0.073 Cl
ENDROOT
BRANCH   1   7
ATOM      7  S   UNL d   1      32.867  19.732 -22.813  0.00  0.00     0.228 S 
ATOM      8  O   UNL d   1      33.238  20.065 -23.470  0.00  0.00    -0.216 OA
ATOM      9  O   UNL d   1      32.496  19.398 -22.155  0.00  0.00    -0.216 OA
BRANCH   7  10
ATOM     10  C   UNL d   1      32.748  19.033 -23.235  0.00  0.00     0.089 A 
ATOM     11  C   UNL d   1      32.793  18.302 -22.845  0.00  0.00     0.011 A 
ATOM     12  C   UNL d   1      32.673  17.596 -23.271  0.00  0.00     0.001 A 
ATOM     13  C   UNL d   1      32.507  17.628 -24.084  0.00  0.00     0.000 A 
ATOM     14  C   UNL d   1      32.463  18.356 -24.468  0.00  0.00     0.001 A 
ATOM     15  C   UNL d   1      32.388  16.930 -24.506  0.00  0.00     0.000 C 
ATOM     16  C   UNL d   1      32.583  19.061 -24.042  0.00  0.00     0.011 A 
ENDBRANCH   7  10
ENDBRANCH   1   7
BRANCH   3  17
ATOM     17  N   UNL d   1      33.176  22.507 -21.949  0.00  0.00    -0.196 NA
BRANCH  17  18
ATOM     18  C   UNL d   1      32.618  22.939 -21.525  0.00  0.00     0.196 A 
ATOM     19  N   UNL d   1      31.818  23.093 -21.660  0.00  0.00    -0.219 NA
ATOM     20  C   UNL d   1      31.544  23.563 -21.042  0.00  0.00     0.108 A 
ATOM     21  C   UNL d   1      32.168  23.700 -20.526  0.00  0.00     0.059 A 
ATOM     22  S   UNL d   1      32.830  23.317 -20.822  0.00  0.00    -0.046 SA
ENDBRANCH  17  18
ENDBRANCH   3  17
TORSDOF 4
ENDMDL
