MODEL 1
REMARK VINA RESULT:      19.7      0.000      0.000
REMARK  5 active torsions:
REMARK  status: ('A' for Active; 'I' for Inactive)
REMARK    1  A    between atoms: C_14  and  N_4 
REMARK    2  A    between atoms: C_15  and  C_9 
REMARK    3  A    between atoms: O_20  and  C_12 
REMARK    4  A    between atoms: O_21  and  C_13 
REMARK    5  A    between atoms: C_18  and  C_14 
ROOT
ATOM      1  C   UNL d   1     -42.254-122.633 -51.961  0.00  0.00     0.056 A 
ATOM      2  C   UNL d   1     -42.625-122.985 -52.616  0.00  0.00     0.107 A 
ATOM      3  C   UNL d   1     -42.494-122.691 -53.373  0.00  0.00     0.038 A 
ATOM      4  N   UNL d   1     -41.629-121.699 -52.838  0.00  0.00    -0.304 N 
ATOM      5  N   UNL d   1     -43.086-123.611 -52.334  0.00  0.00    -0.148 NA
ATOM      6  C   UNL d   1     -41.753-121.986 -52.073  0.00  0.00     0.083 A 
ATOM      7  N   UNL d   1     -43.002-123.647 -51.514  0.00  0.00    -0.148 NA
ATOM      8  C   UNL d   1     -41.993-122.044 -53.485  0.00  0.00     0.068 A 
ATOM      9  C   UNL d   1     -42.490-123.046 -51.278  0.00  0.00     0.106 A 
ATOM     10  C   UNL d   1     -41.867-121.756 -54.242  0.00  0.00     0.044 A 
ATOM     11  C   UNL d   1     -42.864-123.043 -54.020  0.00  0.00     0.029 A 
ATOM     12  C   UNL d   1     -42.232-122.102 -54.888  0.00  0.00     0.118 A 
ATOM     13  C   UNL d   1     -42.733-122.749 -54.777  0.00  0.00     0.116 A 
ENDROOT
BRANCH   4  14
ATOM     14  C   UNL d   1     -41.123-121.047 -52.951  0.00  0.00     0.080 C 
BRANCH  14  15
ATOM     15  C   UNL d   1     -41.123-120.427 -52.408  0.00  0.00     0.018 A 
ATOM     16  C   UNL d   1     -41.123-120.588 -51.601  0.00  0.00     0.002 A 
ATOM     17  C   UNL d   1     -41.123-119.966 -51.051  0.00  0.00     0.000 A 
ATOM     18  C   UNL d   1     -41.123-119.180 -51.318  0.00  0.00     0.000 A 
ATOM     19  C   UNL d   1     -41.123-119.022 -52.134  0.00  0.00     0.000 A 
ATOM     20  C   UNL d   1     -41.123-118.552 -50.775  0.00  0.00     0.000 C 
ATOM     21  C   UNL d   1     -41.123-119.641 -52.675  0.00  0.00     0.002 A 
ENDBRANCH  14  15
ENDBRANCH   4  14
BRANCH   9  22
ATOM     22  C   UNL d   1     -42.307-122.954 -50.480  0.00  0.00     0.020 A 
ATOM     23  C   UNL d   1     -42.903-122.763 -49.944  0.00  0.00     0.004 A 
ATOM     24  C   UNL d   1     -42.727-122.669 -49.139  0.00  0.00     0.030 A 
ATOM     25  C   UNL d   1     -41.939-122.769 -48.876  0.00  0.00     0.140 A 
ATOM     26  C   UNL d   1     -41.345-122.961 -49.420  0.00  0.00     0.030 A 
ATOM     27  F   UNL d   1     -41.743-122.680 -48.076  0.00  0.00    -0.204 F 
ATOM     28  C   UNL d   1     -41.528-123.053 -50.218  0.00  0.00     0.004 A 
ENDBRANCH   9  22
BRANCH  12  29
ATOM     29  O   UNL d   1     -42.101-121.805 -55.659  0.00  0.00    -0.326 OA
ATOM     30  C   UNL d   1     -41.383-121.442 -55.849  0.00  0.00     0.181 C 
ENDBRANCH  12  29
BRANCH  13  31
ATOM     31  O   UNL d   1     -43.105-123.100 -55.435  0.00  0.00    -0.326 OA
ATOM     32  C   UNL d   1     -43.305-122.641 -56.092  0.00  0.00     0.181 C 
ENDBRANCH  13  31
TORSDOF 5
ENDMDL
