MODEL 1
REMARK VINA RESULT:      -9.6      0.000      0.000
REMARK  5 active torsions:
REMARK  status: ('A' for Active; 'I' for Inactive)
REMARK    1  A    between atoms: C_2  and  C_1 
REMARK       I    between atoms: N_5  and  C_2 
REMARK    2  A    between atoms: C_10  and  N_5 
REMARK    3  A    between atoms: C_11  and  C_6 
REMARK    4  A    between atoms: S_9  and  C_11 
REMARK    5  A    between atoms: C_13  and  S_9 
ROOT
ATOM      1  C   UNL d   1      53.573  33.971  54.548  0.00  0.00     0.158 A 
ATOM      2  O   UNL d   1      53.305  33.217  54.746  0.00  0.00    -0.302 OA
ATOM      3  C   UNL d   1      54.190  33.878  54.001  0.00  0.00     0.032 A 
ATOM      4  C   UNL d   1      53.744  32.666  54.331  0.00  0.00     0.107 A 
ATOM      5  C   UNL d   1      54.296  33.071  53.867  0.00  0.00     0.027 A 
ENDROOT
BRANCH   1   6
ATOM      6  C   UNL d   1      53.287  34.691  54.836  0.00  0.00     0.302 C 
ATOM      7  N   UNL d   1      52.688  35.090  54.438  0.00  0.00    -0.206 NA
ATOM      8  O   UNL d   1      53.608  35.004  55.524  0.00  0.00    -0.263 OA
BRANCH   7   9
ATOM      9  C   UNL d   1      52.368  34.768  53.741  0.00  0.00     0.085 A 
ATOM     10  C   UNL d   1      52.727  34.908  53.021  0.00  0.00     0.021 A 
ATOM     11  C   UNL d   1      52.420  34.596  52.332  0.00  0.00     0.031 A 
ATOM     12  C   UNL d   1      51.730  34.127  52.361  0.00  0.00     0.140 A 
ATOM     13  C   UNL d   1      51.369  33.986  53.087  0.00  0.00     0.031 A 
ATOM     14  F   UNL d   1      51.416  33.810  51.676  0.00  0.00    -0.204 F 
ATOM     15  C   UNL d   1      51.685  34.305  53.780  0.00  0.00     0.021 A 
ENDBRANCH   7   9
ENDBRANCH   1   6
BRANCH   4  16
ATOM     16  C   UNL d   1      53.660  31.845  54.364  0.00  0.00     0.060 C 
BRANCH  16  17
ATOM     17  S   UNL d   1      53.767  31.395  53.683  0.00  0.00    -0.084 SA
BRANCH  17  18
ATOM     18  C   UNL d   1      53.424  30.652  53.616  0.00  0.00     0.029 A 
ATOM     19  C   UNL d   1      53.622  30.054  54.144  0.00  0.00     0.006 A 
ATOM     20  C   UNL d   1      53.280  29.311  54.077  0.00  0.00     0.001 A 
ATOM     21  C   UNL d   1      52.733  29.169  53.471  0.00  0.00     0.000 A 
ATOM     22  C   UNL d   1      52.537  29.770  52.943  0.00  0.00     0.001 A 
ATOM     23  C   UNL d   1      52.880  30.514  53.011  0.00  0.00     0.006 A 
ENDBRANCH  17  18
ENDBRANCH  16  17
ENDBRANCH   4  16
TORSDOF 5
ENDMDL
MODEL 2
REMARK VINA RESULT:      -8.3      2.244      4.358
REMARK  5 active torsions:
REMARK  status: ('A' for Active; 'I' for Inactive)
REMARK    1  A    between atoms: C_2  and  C_1 
REMARK       I    between atoms: N_5  and  C_2 
REMARK    2  A    between atoms: C_10  and  N_5 
REMARK    3  A    between atoms: C_11  and  C_6 
REMARK    4  A    between atoms: S_9  and  C_11 
REMARK    5  A    between atoms: C_13  and  S_9 
ROOT
ATOM      1  C   UNL d   1      52.703  32.195  53.060  0.00  0.00     0.158 A 
ATOM      2  O   UNL d   1      51.971  32.473  53.318  0.00  0.00    -0.302 OA
ATOM      3  C   UNL d   1      53.046  32.792  52.599  0.00  0.00     0.032 A 
ATOM      4  C   UNL d   1      51.860  33.227  53.025  0.00  0.00     0.107 A 
ATOM      5  C   UNL d   1      52.525  33.432  52.578  0.00  0.00     0.027 A 
ENDROOT
BRANCH   1   6
ATOM      6  C   UNL d   1      53.040  31.458  53.225  0.00  0.00     0.302 C 
ATOM      7  N   UNL d   1      53.670  31.396  53.750  0.00  0.00    -0.206 NA
ATOM      8  O   UNL d   1      52.739  30.788  52.858  0.00  0.00    -0.263 OA
BRANCH   7   9
ATOM      9  C   UNL d   1      53.971  32.079  54.117  0.00  0.00     0.085 A 
ATOM     10  C   UNL d   1      54.534  32.534  53.740  0.00  0.00     0.021 A 
ATOM     11  C   UNL d   1      54.835  33.205  54.093  0.00  0.00     0.031 A 
ATOM     12  C   UNL d   1      54.565  33.432  54.849  0.00  0.00     0.140 A 
ATOM     13  C   UNL d   1      53.997  32.974  55.229  0.00  0.00     0.031 A 
ATOM     14  F   UNL d   1      54.861  34.104  55.210  0.00  0.00    -0.204 F 
ATOM     15  C   UNL d   1      53.697  32.295  54.866  0.00  0.00     0.021 A 
ENDBRANCH   7   9
ENDBRANCH   1   6
BRANCH   4  16
ATOM     16  C   UNL d   1      51.202  33.712  53.149  0.00  0.00     0.060 C 
BRANCH  16  17
ATOM     17  S   UNL d   1      50.876  34.130  52.519  0.00  0.00    -0.084 SA
BRANCH  17  18
ATOM     18  C   UNL d   1      50.153  34.508  52.598  0.00  0.00     0.029 A 
ATOM     19  C   UNL d   1      49.961  34.895  53.298  0.00  0.00     0.006 A 
ATOM     20  C   UNL d   1      49.238  35.274  53.378  0.00  0.00     0.001 A 
ATOM     21  C   UNL d   1      48.701  35.263  52.746  0.00  0.00     0.000 A 
ATOM     22  C   UNL d   1      48.897  34.874  52.046  0.00  0.00     0.001 A 
ATOM     23  C   UNL d   1      49.621  34.495  51.967  0.00  0.00     0.006 A 
ENDBRANCH  17  18
ENDBRANCH  16  17
ENDBRANCH   4  16
TORSDOF 5
ENDMDL
MODEL 3
REMARK VINA RESULT:      -8.1      1.893      3.924
REMARK  5 active torsions:
REMARK  status: ('A' for Active; 'I' for Inactive)
REMARK    1  A    between atoms: C_2  and  C_1 
REMARK       I    between atoms: N_5  and  C_2 
REMARK    2  A    between atoms: C_10  and  N_5 
REMARK    3  A    between atoms: C_11  and  C_6 
REMARK    4  A    between atoms: S_9  and  C_11 
REMARK    5  A    between atoms: C_13  and  S_9 
ROOT
ATOM      1  C   UNL d   1      53.008  34.622  54.244  0.00  0.00     0.158 A 
ATOM      2  O   UNL d   1      52.261  34.327  54.061  0.00  0.00    -0.302 OA
ATOM      3  C   UNL d   1      53.339  34.915  53.542  0.00  0.00     0.032 A 
ATOM      4  C   UNL d   1      52.128  34.433  53.262  0.00  0.00     0.107 A 
ATOM      5  C   UNL d   1      52.794  34.798  52.934  0.00  0.00     0.027 A 
ENDROOT
BRANCH   1   6
ATOM      6  C   UNL d   1      53.370  34.630  54.988  0.00  0.00     0.302 C 
ATOM      7  N   UNL d   1      53.869  34.016  55.215  0.00  0.00    -0.206 NA
ATOM      8  O   UNL d   1      53.226  35.257  55.498  0.00  0.00    -0.263 OA
BRANCH   7   9
ATOM      9  C   UNL d   1      54.010  33.384  54.694  0.00  0.00     0.085 A 
ATOM     10  C   UNL d   1      54.602  33.439  54.133  0.00  0.00     0.021 A 
ATOM     11  C   UNL d   1      54.748  32.824  53.617  0.00  0.00     0.031 A 
ATOM     12  C   UNL d   1      54.289  32.129  53.661  0.00  0.00     0.140 A 
ATOM     13  C   UNL d   1      53.694  32.073  54.226  0.00  0.00     0.031 A 
ATOM     14  F   UNL d   1      54.429  31.507  53.148  0.00  0.00    -0.204 F 
ATOM     15  C   UNL d   1      53.551  32.700  54.745  0.00  0.00     0.021 A 
ENDBRANCH   7   9
ENDBRANCH   1   6
BRANCH   4  16
ATOM     16  C   UNL d   1      51.449  34.216  52.843  0.00  0.00     0.060 C 
BRANCH  16  17
ATOM     17  S   UNL d   1      50.710  34.469  53.101  0.00  0.00    -0.084 SA
BRANCH  17  18
ATOM     18  C   UNL d   1      50.083  34.533  52.576  0.00  0.00     0.029 A 
ATOM     19  C   UNL d   1      50.125  34.182  51.834  0.00  0.00     0.006 A 
ATOM     20  C   UNL d   1      49.498  34.245  51.308  0.00  0.00     0.001 A 
ATOM     21  C   UNL d   1      48.822  34.668  51.532  0.00  0.00     0.000 A 
ATOM     22  C   UNL d   1      48.783  35.020  52.276  0.00  0.00     0.001 A 
ATOM     23  C   UNL d   1      49.411  34.955  52.802  0.00  0.00     0.006 A 
ENDBRANCH  17  18
ENDBRANCH  16  17
ENDBRANCH   4  16
TORSDOF 5
ENDMDL
MODEL 4
REMARK VINA RESULT:      -8.0      1.551      2.255
REMARK  5 active torsions:
REMARK  status: ('A' for Active; 'I' for Inactive)
REMARK    1  A    between atoms: C_2  and  C_1 
REMARK       I    between atoms: N_5  and  C_2 
REMARK    2  A    between atoms: C_10  and  N_5 
REMARK    3  A    between atoms: C_11  and  C_6 
REMARK    4  A    between atoms: S_9  and  C_11 
REMARK    5  A    between atoms: C_13  and  S_9 
ROOT
ATOM      1  C   UNL d   1      52.416  33.978  53.402  0.00  0.00     0.158 A 
ATOM      2  O   UNL d   1      52.154  33.236  53.646  0.00  0.00    -0.302 OA
ATOM      3  C   UNL d   1      52.876  33.867  52.721  0.00  0.00     0.032 A 
ATOM      4  C   UNL d   1      52.445  32.674  53.129  0.00  0.00     0.107 A 
ATOM      5  C   UNL d   1      52.893  33.060  52.552  0.00  0.00     0.027 A 
ENDROOT
BRANCH   1   6
ATOM      6  C   UNL d   1      52.255  34.704  53.763  0.00  0.00     0.302 C 
ATOM      7  N   UNL d   1      52.749  34.996  54.352  0.00  0.00    -0.206 NA
ATOM      8  O   UNL d   1      51.595  35.132  53.526  0.00  0.00    -0.263 OA
BRANCH   7   9
ATOM      9  C   UNL d   1      53.416  34.558  54.587  0.00  0.00     0.085 A 
ATOM     10  C   UNL d   1      54.119  34.629  54.178  0.00  0.00     0.021 A 
ATOM     11  C   UNL d   1      54.779  34.203  54.401  0.00  0.00     0.031 A 
ATOM     12  C   UNL d   1      54.736  33.687  55.055  0.00  0.00     0.140 A 
ATOM     13  C   UNL d   1      54.028  33.615  55.466  0.00  0.00     0.031 A 
ATOM     14  F   UNL d   1      55.392  33.256  55.285  0.00  0.00    -0.204 F 
ATOM     15  C   UNL d   1      53.364  34.049  55.235  0.00  0.00     0.021 A 
ENDBRANCH   7   9
ENDBRANCH   1   6
BRANCH   4  16
ATOM     16  C   UNL d   1      52.317  31.858  53.167  0.00  0.00     0.060 C 
BRANCH  16  17
ATOM     17  S   UNL d   1      52.909  31.339  52.926  0.00  0.00    -0.084 SA
BRANCH  17  18
ATOM     18  C   UNL d   1      52.970  30.591  53.258  0.00  0.00     0.029 A 
ATOM     19  C   UNL d   1      52.402  30.019  53.100  0.00  0.00     0.006 A 
ATOM     20  C   UNL d   1      52.462  29.271  53.433  0.00  0.00     0.001 A 
ATOM     21  C   UNL d   1      53.103  29.098  53.930  0.00  0.00     0.000 A 
ATOM     22  C   UNL d   1      53.670  29.674  54.086  0.00  0.00     0.001 A 
ATOM     23  C   UNL d   1      53.609  30.423  53.753  0.00  0.00     0.006 A 
ENDBRANCH  17  18
ENDBRANCH  16  17
ENDBRANCH   4  16
TORSDOF 5
ENDMDL
MODEL 5
REMARK VINA RESULT:      -7.3      1.983      4.212
REMARK  5 active torsions:
REMARK  status: ('A' for Active; 'I' for Inactive)
REMARK    1  A    between atoms: C_2  and  C_1 
REMARK       I    between atoms: N_5  and  C_2 
REMARK    2  A    between atoms: C_10  and  N_5 
REMARK    3  A    between atoms: C_11  and  C_6 
REMARK    4  A    between atoms: S_9  and  C_11 
REMARK    5  A    between atoms: C_13  and  S_9 
ROOT
ATOM      1  C   UNL d   1      53.542  32.811  53.522  0.00  0.00     0.158 A 
ATOM      2  O   UNL d   1      52.961  32.935  52.950  0.00  0.00    -0.302 OA
ATOM      3  C   UNL d   1      53.205  32.987  54.259  0.00  0.00     0.032 A 
ATOM      4  C   UNL d   1      52.277  33.183  53.323  0.00  0.00     0.107 A 
ATOM      5  C   UNL d   1      52.422  33.218  54.136  0.00  0.00     0.027 A 
ENDROOT
BRANCH   1   6
ATOM      6  C   UNL d   1      54.318  32.558  53.394  0.00  0.00     0.302 C 
ATOM      7  N   UNL d   1      54.490  31.756  53.327  0.00  0.00    -0.206 NA
ATOM      8  O   UNL d   1      54.918  33.116  53.335  0.00  0.00    -0.263 OA
BRANCH   7   9
ATOM      9  C   UNL d   1      53.878  31.196  53.387  0.00  0.00     0.085 A 
ATOM     10  C   UNL d   1      53.675  30.888  54.116  0.00  0.00     0.021 A 
ATOM     11  C   UNL d   1      53.076  30.337  54.185  0.00  0.00     0.031 A 
ATOM     12  C   UNL d   1      52.664  30.086  53.505  0.00  0.00     0.140 A 
ATOM     13  C   UNL d   1      52.869  30.397  52.771  0.00  0.00     0.031 A 
ATOM     14  F   UNL d   1      52.063  29.535  53.566  0.00  0.00    -0.204 F 
ATOM     15  C   UNL d   1      53.476  30.953  52.708  0.00  0.00     0.021 A 
ENDBRANCH   7   9
ENDBRANCH   1   6
BRANCH   4  16
ATOM     16  C   UNL d   1      51.559  33.370  52.958  0.00  0.00     0.060 C 
BRANCH  16  17
ATOM     17  S   UNL d   1      51.331  34.157  52.881  0.00  0.00    -0.084 SA
BRANCH  17  18
ATOM     18  C   UNL d   1      50.601  34.351  52.560  0.00  0.00     0.029 A 
ATOM     19  C   UNL d   1      50.436  34.180  51.773  0.00  0.00     0.006 A 
ATOM     20  C   UNL d   1      49.706  34.374  51.451  0.00  0.00     0.001 A 
ATOM     21  C   UNL d   1      49.137  34.744  51.927  0.00  0.00     0.000 A 
ATOM     22  C   UNL d   1      49.307  34.914  52.715  0.00  0.00     0.001 A 
ATOM     23  C   UNL d   1      50.037  34.719  53.037  0.00  0.00     0.006 A 
ENDBRANCH  17  18
ENDBRANCH  16  17
ENDBRANCH   4  16
TORSDOF 5
ENDMDL
