MODEL 1
REMARK VINA RESULT:      13.9      0.000      0.000
REMARK  2 active torsions:
REMARK  status: ('A' for Active; 'I' for Inactive)
REMARK    1  A    between atoms: C_7  and  C_3 
REMARK    2  A    between atoms: N_9  and  C_8 
ROOT
ATOM      1  N   UNL d   1      46.139 -17.447  43.147  0.00  0.00    -0.227 NA
ATOM      2  N   UNL d   1      46.123 -17.883  44.498  0.00  0.00    -0.227 NA
ATOM      3  C   UNL d   1      46.046 -17.268  43.941  0.00  0.00     0.162 A 
ATOM      4  C   UNL d   1      46.291 -18.648  44.235  0.00  0.00     0.085 A 
ATOM      5  C   UNL d   1      46.309 -18.219  42.877  0.00  0.00     0.085 A 
ATOM      6  C   UNL d   1      46.385 -18.822  43.424  0.00  0.00     0.035 A 
ATOM      7  C   UNL d   1      46.555 -19.604  43.176  0.00  0.00     0.003 A 
ATOM      8  C   UNL d   1      46.370 -19.273  44.802  0.00  0.00     0.019 A 
ATOM      9  C   UNL d   1      46.401 -18.386  42.073  0.00  0.00     0.019 A 
ATOM     10  C   UNL d   1      46.571 -19.157  41.805  0.00  0.00     0.002 A 
ATOM     11  C   UNL d   1      46.540 -20.045  44.531  0.00  0.00     0.002 A 
ATOM     12  C   UNL d   1      46.647 -19.760  42.352  0.00  0.00     0.000 A 
ATOM     13  C   UNL d   1      46.632 -20.213  43.728  0.00  0.00     0.000 A 
ENDROOT
BRANCH   3  14
ATOM     14  C   UNL d   1      45.880 -16.500  44.161  0.00  0.00     0.036 A 
ATOM     15  C   UNL d   1      46.282 -15.872  43.812  0.00  0.00     0.004 A 
ATOM     16  C   UNL d   1      46.118 -15.096  44.031  0.00  0.00     0.018 A 
ATOM     17  C   UNL d   1      45.555 -14.939  44.597  0.00  0.00     0.064 A 
ATOM     18  C   UNL d   1      45.146 -15.565  44.954  0.00  0.00     0.018 A 
ATOM     19  C   UNL d   1      45.314 -16.334  44.731  0.00  0.00     0.004 A 
BRANCH  17  20
ATOM     20  N   UNL d   1      45.391 -14.163  44.816  0.00  0.00    -0.301 N 
ATOM     21  C   UNL d   1      46.003 -13.626  44.929  0.00  0.00     0.100 C 
ATOM     22  C   UNL d   1      44.614 -13.928  44.922  0.00  0.00     0.100 C 
ENDBRANCH  17  20
ENDBRANCH   3  14
TORSDOF 2
ENDMDL
