MODEL 1
REMARK VINA RESULT:      28.3      0.000      0.000
REMARK  3 active torsions:
REMARK  status: ('A' for Active; 'I' for Inactive)
REMARK    1  A    between atoms: N_6  and  C_1 
REMARK    2  A    between atoms: C_7  and  N_2 
REMARK    3  A    between atoms: C_8  and  N_6 
ROOT
ATOM      1  C   UNL d   1     -51.237  25.217  33.435  0.00  0.00     0.735 A 
ATOM      2  N   UNL d   1     -50.490  25.567  33.504  0.00  0.00    -0.139 N 
ATOM      3  N   UNL d   1     -51.803  25.815  33.350  0.00  0.00    -0.059 NA
ATOM      4  C   UNL d   1     -50.591  26.385  33.461  0.00  0.00     0.100 A 
ATOM      5  C   UNL d   1     -51.405  26.534  33.366  0.00  0.00     0.116 A 
ATOM      6  C   UNL d   1     -50.057  27.012  33.496  0.00  0.00     0.020 A 
ATOM      7  C   UNL d   1     -51.668  27.316  33.307  0.00  0.00     0.021 A 
ATOM      8  C   UNL d   1     -50.326  27.785  33.437  0.00  0.00     0.002 A 
ATOM      9  C   UNL d   1     -51.135  27.943  33.341  0.00  0.00     0.002 A 
ENDROOT
BRANCH   1  10
ATOM     10  N   UNL d   1     -51.395  24.407  33.449  0.00  0.00    -0.061 NA
BRANCH  10  11
ATOM     11  C   UNL d   1     -52.151  24.134  33.618  0.00  0.00     0.100 A 
ATOM     12  C   UNL d   1     -52.241  23.472  34.094  0.00  0.00     0.020 A 
ATOM     13  C   UNL d   1     -52.995  23.188  34.270  0.00  0.00     0.002 A 
ATOM     14  C   UNL d   1     -53.666  23.575  33.964  0.00  0.00     0.000 A 
ATOM     15  C   UNL d   1     -53.568  24.242  33.486  0.00  0.00     0.002 A 
ATOM     16  C   UNL d   1     -52.816  24.517  33.315  0.00  0.00     0.020 A 
ENDBRANCH  10  11
ENDBRANCH   1  10
BRANCH   2  17
ATOM     17  C   UNL d   1     -49.776  25.169  33.598  0.00  0.00     0.082 C 
ATOM     18  C   UNL d   1     -49.146  25.539  33.989  0.00  0.00     0.020 C 
ATOM     19  C   UNL d   1     -49.680  24.406  33.306  0.00  0.00     0.020 C 
ENDBRANCH   2  17
TORSDOF 3
ENDMDL
