MODEL 1
REMARK VINA RESULT:      -2.6      0.000      0.000
REMARK  2 active torsions:
REMARK  status: ('A' for Active; 'I' for Inactive)
REMARK    1  A    between atoms: N_2  and  S_1 
REMARK    2  A    between atoms: C_3  and  S_1 
ROOT
ATOM      1  S   UNL d   1      30.600  16.837 -24.425  0.00  0.00     0.274 S 
ATOM      2  O   UNL d   1      30.391  16.390 -25.097  0.00  0.00    -0.200 OA
ATOM      3  O   UNL d   1      30.802  17.284 -23.754  0.00  0.00    -0.200 OA
ENDROOT
BRANCH   1   4
ATOM      4  N   UNL d   1      31.406  16.745 -24.617  0.00  0.00    -0.212 N 
ATOM      5  C   UNL d   1      31.880  16.084 -24.705  0.00  0.00     0.193 A 
ATOM      6  N   UNL d   1      32.647  16.337 -24.901  0.00  0.00    -0.223 NA
ATOM      7  C   UNL d   1      32.637  17.168 -24.932  0.00  0.00     0.100 A 
ATOM      8  C   UNL d   1      31.873  17.406 -24.756  0.00  0.00     0.094 A 
ATOM      9  C   UNL d   1      33.229  17.717 -25.097  0.00  0.00     0.021 A 
ATOM     10  C   UNL d   1      31.693  18.225 -24.746  0.00  0.00     0.020 A 
ATOM     11  C   UNL d   1      32.286  18.789 -24.912  0.00  0.00     0.002 A 
ATOM     12  C   UNL d   1      33.051  18.517 -25.086  0.00  0.00     0.002 A 
ENDBRANCH   1   4
BRANCH   1  13
ATOM     13  C   UNL d   1      29.794  16.925 -24.241  0.00  0.00     0.122 A 
ATOM     14  C   UNL d   1      29.452  16.466 -23.660  0.00  0.00     0.093 A 
ATOM     15  N   UNL d   1      29.905  15.909 -23.250  0.00  0.00    -0.243 NA
ATOM     16  C   UNL d   1      28.646  16.553 -23.476  0.00  0.00     0.018 A 
ATOM     17  C   UNL d   1      29.564  15.453 -22.672  0.00  0.00     0.099 A 
ATOM     18  C   UNL d   1      28.754  15.526 -22.471  0.00  0.00     0.021 A 
ATOM     19  C   UNL d   1      28.308  16.080 -22.881  0.00  0.00     0.003 A 
ATOM     20  C   UNL d   1      28.196  17.093 -23.869  0.00  0.00     0.002 A 
ATOM     21  C   UNL d   1      28.532  17.553 -24.449  0.00  0.00     0.001 A 
ATOM     22  C   UNL d   1      29.340  17.479 -24.648  0.00  0.00     0.014 A 
ENDBRANCH   1  13
TORSDOF 2
ENDMDL
MODEL 2
REMARK VINA RESULT:      -2.5      1.975      3.107
REMARK  2 active torsions:
REMARK  status: ('A' for Active; 'I' for Inactive)
REMARK    1  A    between atoms: N_2  and  S_1 
REMARK    2  A    between atoms: C_3  and  S_1 
ROOT
ATOM      1  S   UNL d   1      32.586  17.851 -23.937  0.00  0.00     0.274 S 
ATOM      2  O   UNL d   1      31.965  18.059 -23.422  0.00  0.00    -0.200 OA
ATOM      3  O   UNL d   1      33.205  17.637 -24.450  0.00  0.00    -0.200 OA
ENDROOT
BRANCH   1   4
ATOM      4  N   UNL d   1      32.762  18.658 -24.049  0.00  0.00    -0.212 N 
ATOM      5  C   UNL d   1      32.829  19.119 -24.722  0.00  0.00     0.193 A 
ATOM      6  N   UNL d   1      33.018  19.895 -24.489  0.00  0.00    -0.223 NA
ATOM      7  C   UNL d   1      33.066  19.902 -23.659  0.00  0.00     0.100 A 
ATOM      8  C   UNL d   1      32.908  19.141 -23.402  0.00  0.00     0.094 A 
ATOM      9  C   UNL d   1      33.232  20.508 -23.125  0.00  0.00     0.021 A 
ATOM     10  C   UNL d   1      32.917  18.977 -22.578  0.00  0.00     0.020 A 
ATOM     11  C   UNL d   1      33.085  19.585 -22.031  0.00  0.00     0.002 A 
ATOM     12  C   UNL d   1      33.241  20.347 -22.322  0.00  0.00     0.002 A 
ENDBRANCH   1   4
BRANCH   1  13
ATOM     13  C   UNL d   1      32.405  17.048 -23.820  0.00  0.00     0.122 A 
ATOM     14  C   UNL d   1      31.761  16.713 -24.191  0.00  0.00     0.093 A 
ATOM     15  N   UNL d   1      31.283  17.170 -24.686  0.00  0.00    -0.243 NA
ATOM     16  C   UNL d   1      31.579  15.910 -24.074  0.00  0.00     0.018 A 
ATOM     17  C   UNL d   1      30.641  16.835 -25.055  0.00  0.00     0.099 A 
ATOM     18  C   UNL d   1      30.442  16.029 -24.950  0.00  0.00     0.021 A 
ATOM     19  C   UNL d   1      30.920  15.579 -24.457  0.00  0.00     0.003 A 
ATOM     20  C   UNL d   1      32.039  15.456 -23.593  0.00  0.00     0.002 A 
ATOM     21  C   UNL d   1      32.682  15.785 -23.220  0.00  0.00     0.001 A 
ATOM     22  C   UNL d   1      32.879  16.590 -23.326  0.00  0.00     0.014 A 
ENDBRANCH   1  13
TORSDOF 2
ENDMDL
MODEL 3
REMARK VINA RESULT:      -2.5      1.759      3.811
REMARK  2 active torsions:
REMARK  status: ('A' for Active; 'I' for Inactive)
REMARK    1  A    between atoms: N_2  and  S_1 
REMARK    2  A    between atoms: C_3  and  S_1 
ROOT
ATOM      1  S   UNL d   1      32.436  17.723 -24.023  0.00  0.00     0.274 S 
ATOM      2  O   UNL d   1      33.174  17.454 -24.301  0.00  0.00    -0.200 OA
ATOM      3  O   UNL d   1      31.701  17.997 -23.746  0.00  0.00    -0.200 OA
ENDROOT
BRANCH   1   4
ATOM      4  N   UNL d   1      32.200  16.934 -23.892  0.00  0.00    -0.212 N 
ATOM      5  C   UNL d   1      32.557  16.309 -23.503  0.00  0.00     0.193 A 
ATOM      6  N   UNL d   1      32.054  15.649 -23.553  0.00  0.00    -0.223 NA
ATOM      7  C   UNL d   1      31.379  15.879 -23.981  0.00  0.00     0.100 A 
ATOM      8  C   UNL d   1      31.480  16.667 -24.183  0.00  0.00     0.094 A 
ATOM      9  C   UNL d   1      30.703  15.464 -24.202  0.00  0.00     0.021 A 
ATOM     10  C   UNL d   1      30.880  17.056 -24.622  0.00  0.00     0.020 A 
ATOM     11  C   UNL d   1      30.191  16.643 -24.850  0.00  0.00     0.002 A 
ATOM     12  C   UNL d   1      30.118  15.845 -24.631  0.00  0.00     0.002 A 
ENDBRANCH   1   4
BRANCH   1  13
ATOM     13  C   UNL d   1      32.678  18.507 -24.156  0.00  0.00     0.122 A 
ATOM     14  C   UNL d   1      32.838  19.001 -23.528  0.00  0.00     0.093 A 
ATOM     15  N   UNL d   1      32.760  18.726 -22.753  0.00  0.00    -0.243 NA
ATOM     16  C   UNL d   1      33.080  19.785 -23.661  0.00  0.00     0.018 A 
ATOM     17  C   UNL d   1      32.920  19.219 -22.128  0.00  0.00     0.099 A 
ATOM     18  C   UNL d   1      33.165  20.012 -22.241  0.00  0.00     0.021 A 
ATOM     19  C   UNL d   1      33.241  20.280 -23.013  0.00  0.00     0.003 A 
ATOM     20  C   UNL d   1      33.159  20.063 -24.413  0.00  0.00     0.002 A 
ATOM     21  C   UNL d   1      33.001  19.574 -25.044  0.00  0.00     0.001 A 
ATOM     22  C   UNL d   1      32.757  18.784 -24.928  0.00  0.00     0.014 A 
ENDBRANCH   1  13
TORSDOF 2
ENDMDL
MODEL 4
REMARK VINA RESULT:      -1.7      5.229      6.272
REMARK  2 active torsions:
REMARK  status: ('A' for Active; 'I' for Inactive)
REMARK    1  A    between atoms: N_2  and  S_1 
REMARK    2  A    between atoms: C_3  and  S_1 
ROOT
ATOM      1  S   UNL d   1      32.531  21.373 -21.265  0.00  0.00     0.274 S 
ATOM      2  O   UNL d   1      33.241  21.663 -21.593  0.00  0.00    -0.200 OA
ATOM      3  O   UNL d   1      31.822  21.090 -20.937  0.00  0.00    -0.200 OA
ENDROOT
BRANCH   1   4
ATOM      4  N   UNL d   1      32.777  20.593 -21.427  0.00  0.00    -0.212 N 
ATOM      5  C   UNL d   1      32.973  19.965 -20.940  0.00  0.00     0.193 A 
ATOM      6  N   UNL d   1      33.177  19.317 -21.420  0.00  0.00    -0.223 NA
ATOM      7  C   UNL d   1      33.103  19.558 -22.212  0.00  0.00     0.100 A 
ATOM      8  C   UNL d   1      32.857  20.340 -22.203  0.00  0.00     0.094 A 
ATOM      9  C   UNL d   1      33.230  19.158 -22.921  0.00  0.00     0.021 A 
ATOM     10  C   UNL d   1      32.734  20.737 -22.932  0.00  0.00     0.020 A 
ATOM     11  C   UNL d   1      32.860  20.339 -23.655  0.00  0.00     0.002 A 
ATOM     12  C   UNL d   1      33.109  19.547 -23.631  0.00  0.00     0.002 A 
ENDBRANCH   1   4
BRANCH   1  13
ATOM     13  C   UNL d   1      32.294  22.154 -21.108  0.00  0.00     0.122 A 
ATOM     14  C   UNL d   1      32.399  22.475 -20.366  0.00  0.00     0.093 A 
ATOM     15  N   UNL d   1      32.744  22.026 -19.764  0.00  0.00    -0.243 NA
ATOM     16  C   UNL d   1      32.161  23.256 -20.208  0.00  0.00     0.018 A 
ATOM     17  C   UNL d   1      32.850  22.347 -19.026  0.00  0.00     0.099 A 
ATOM     18  C   UNL d   1      32.617  23.131 -18.847  0.00  0.00     0.021 A 
ATOM     19  C   UNL d   1      32.274  23.573 -19.448  0.00  0.00     0.003 A 
ATOM     20  C   UNL d   1      31.824  23.702 -20.787  0.00  0.00     0.002 A 
ATOM     21  C   UNL d   1      31.716  23.387 -21.529  0.00  0.00     0.001 A 
ATOM     22  C   UNL d   1      31.949  22.604 -21.705  0.00  0.00     0.014 A 
ENDBRANCH   1  13
TORSDOF 2
ENDMDL
MODEL 5
REMARK VINA RESULT:      -1.1      0.909      3.607
REMARK  2 active torsions:
REMARK  status: ('A' for Active; 'I' for Inactive)
REMARK    1  A    between atoms: N_2  and  S_1 
REMARK    2  A    between atoms: C_3  and  S_1 
ROOT
ATOM      1  S   UNL d   1      30.338  16.623 -24.132  0.00  0.00     0.274 S 
ATOM      2  O   UNL d   1      30.339  17.092 -23.444  0.00  0.00    -0.200 OA
ATOM      3  O   UNL d   1      30.343  16.158 -24.821  0.00  0.00    -0.200 OA
ENDROOT
BRANCH   1   4
ATOM      4  N   UNL d   1      29.630  16.261 -23.883  0.00  0.00    -0.212 N 
ATOM      5  C   UNL d   1      29.422  15.478 -23.770  0.00  0.00     0.193 A 
ATOM      6  N   UNL d   1      28.631  15.453 -23.514  0.00  0.00    -0.223 NA
ATOM      7  C   UNL d   1      28.356  16.236 -23.471  0.00  0.00     0.100 A 
ATOM      8  C   UNL d   1      28.975  16.721 -23.700  0.00  0.00     0.094 A 
ATOM      9  C   UNL d   1      27.625  16.549 -23.255  0.00  0.00     0.021 A 
ATOM     10  C   UNL d   1      28.860  17.552 -23.712  0.00  0.00     0.020 A 
ATOM     11  C   UNL d   1      28.123  17.878 -23.494  0.00  0.00     0.002 A 
ATOM     12  C   UNL d   1      27.514  17.361 -23.267  0.00  0.00     0.002 A 
ENDBRANCH   1   4
BRANCH   1  13
ATOM     13  C   UNL d   1      31.044  16.989 -24.375  0.00  0.00     0.122 A 
ATOM     14  C   UNL d   1      31.765  16.666 -24.175  0.00  0.00     0.093 A 
ATOM     15  N   UNL d   1      31.800  15.971 -23.730  0.00  0.00    -0.243 NA
ATOM     16  C   UNL d   1      32.472  17.031 -24.418  0.00  0.00     0.018 A 
ATOM     17  C   UNL d   1      32.519  15.649 -23.531  0.00  0.00     0.099 A 
ATOM     18  C   UNL d   1      33.241  16.002 -23.766  0.00  0.00     0.021 A 
ATOM     19  C   UNL d   1      33.201  16.693 -24.208  0.00  0.00     0.003 A 
ATOM     20  C   UNL d   1      32.449  17.709 -24.852  0.00  0.00     0.002 A 
ATOM     21  C   UNL d   1      31.733  18.036 -25.054  0.00  0.00     0.001 A 
ATOM     22  C   UNL d   1      31.013  17.682 -24.819  0.00  0.00     0.014 A 
ENDBRANCH   1  13
TORSDOF 2
ENDMDL
MODEL 6
REMARK VINA RESULT:       0.0      2.811      4.429
REMARK  2 active torsions:
REMARK  status: ('A' for Active; 'I' for Inactive)
REMARK    1  A    between atoms: N_2  and  S_1 
REMARK    2  A    between atoms: C_3  and  S_1 
ROOT
ATOM      1  S   UNL d   1      32.790  19.141 -23.273  0.00  0.00     0.274 S 
ATOM      2  O   UNL d   1      32.345  19.113 -22.570  0.00  0.00    -0.200 OA
ATOM      3  O   UNL d   1      33.235  19.175 -23.975  0.00  0.00    -0.200 OA
ENDROOT
BRANCH   1   4
ATOM      4  N   UNL d   1      32.703  18.316 -23.359  0.00  0.00    -0.212 N 
ATOM      5  C   UNL d   1      33.142  17.684 -23.082  0.00  0.00     0.193 A 
ATOM      6  N   UNL d   1      32.784  16.981 -23.348  0.00  0.00    -0.223 NA
ATOM      7  C   UNL d   1      32.116  17.194 -23.795  0.00  0.00     0.100 A 
ATOM      8  C   UNL d   1      32.077  18.012 -23.795  0.00  0.00     0.094 A 
ATOM      9  C   UNL d   1      31.554  16.739 -24.191  0.00  0.00     0.021 A 
ATOM     10  C   UNL d   1      31.452  18.392 -24.207  0.00  0.00     0.020 A 
ATOM     11  C   UNL d   1      30.879  17.939 -24.611  0.00  0.00     0.002 A 
ATOM     12  C   UNL d   1      30.945  17.111 -24.593  0.00  0.00     0.002 A 
ENDBRANCH   1   4
BRANCH   1  13
ATOM     13  C   UNL d   1      32.873  19.963 -23.181  0.00  0.00     0.122 A 
ATOM     14  C   UNL d   1      32.994  20.284 -22.442  0.00  0.00     0.093 A 
ATOM     15  N   UNL d   1      33.035  19.795 -21.778  0.00  0.00    -0.243 NA
ATOM     16  C   UNL d   1      33.076  21.107 -22.350  0.00  0.00     0.018 A 
ATOM     17  C   UNL d   1      33.155  20.116 -21.042  0.00  0.00     0.099 A 
ATOM     18  C   UNL d   1      33.241  20.941 -20.928  0.00  0.00     0.021 A 
ATOM     19  C   UNL d   1      33.199  21.424 -21.591  0.00  0.00     0.003 A 
ATOM     20  C   UNL d   1      33.038  21.593 -22.991  0.00  0.00     0.002 A 
ATOM     21  C   UNL d   1      32.918  21.277 -23.731  0.00  0.00     0.001 A 
ATOM     22  C   UNL d   1      32.833  20.454 -23.842  0.00  0.00     0.014 A 
ENDBRANCH   1  13
TORSDOF 2
ENDMDL
MODEL 7
REMARK VINA RESULT:       0.2      5.605      7.226
REMARK  2 active torsions:
REMARK  status: ('A' for Active; 'I' for Inactive)
REMARK    1  A    between atoms: N_2  and  S_1 
REMARK    2  A    between atoms: C_3  and  S_1 
ROOT
ATOM      1  S   UNL d   1      32.412  22.450 -21.981  0.00  0.00     0.274 S 
ATOM      2  O   UNL d   1      33.067  22.961 -22.046  0.00  0.00    -0.200 OA
ATOM      3  O   UNL d   1      31.760  21.937 -21.922  0.00  0.00    -0.200 OA
ENDROOT
BRANCH   1   4
ATOM      4  N   UNL d   1      32.139  22.885 -21.324  0.00  0.00    -0.212 N 
ATOM      5  C   UNL d   1      31.582  23.480 -21.249  0.00  0.00     0.193 A 
ATOM      6  N   UNL d   1      31.545  23.702 -20.448  0.00  0.00    -0.223 NA
ATOM      7  C   UNL d   1      32.090  23.232 -20.031  0.00  0.00     0.100 A 
ATOM      8  C   UNL d   1      32.447  22.737 -20.577  0.00  0.00     0.094 A 
ATOM      9  C   UNL d   1      32.293  23.206 -19.233  0.00  0.00     0.021 A 
ATOM     10  C   UNL d   1      33.029  22.192 -20.315  0.00  0.00     0.020 A 
ATOM     11  C   UNL d   1      33.241  22.158 -19.508  0.00  0.00     0.002 A 
ATOM     12  C   UNL d   1      32.861  22.674 -18.979  0.00  0.00     0.002 A 
ENDBRANCH   1   4
BRANCH   1  13
ATOM     13  C   UNL d   1      32.690  22.022 -22.637  0.00  0.00     0.122 A 
ATOM     14  C   UNL d   1      32.795  22.392 -23.356  0.00  0.00     0.093 A 
ATOM     15  N   UNL d   1      32.625  23.196 -23.438  0.00  0.00    -0.243 NA
ATOM     16  C   UNL d   1      33.072  21.964 -24.012  0.00  0.00     0.018 A 
ATOM     17  C   UNL d   1      32.730  23.564 -24.155  0.00  0.00     0.099 A 
ATOM     18  C   UNL d   1      33.009  23.150 -24.827  0.00  0.00     0.021 A 
ATOM     19  C   UNL d   1      33.176  22.351 -24.741  0.00  0.00     0.003 A 
ATOM     20  C   UNL d   1      33.241  21.179 -23.944  0.00  0.00     0.002 A 
ATOM     21  C   UNL d   1      33.138  20.805 -23.229  0.00  0.00     0.001 A 
ATOM     22  C   UNL d   1      32.859  21.220 -22.559  0.00  0.00     0.014 A 
ENDBRANCH   1  13
TORSDOF 2
ENDMDL
