MODEL 1
REMARK VINA RESULT:      -2.0      0.000      0.000
REMARK  3 active torsions:
REMARK  status: ('A' for Active; 'I' for Inactive)
REMARK    1  A    between atoms: C_11  and  N_3 
REMARK    2  A    between atoms: C_10  and  N_6 
REMARK    3  A    between atoms: C_9  and  C_7 
ROOT
ATOM      1  C   UNL d   1      57.637  -0.666  31.128  0.00  0.00     0.106 A 
ATOM      2  C   UNL d   1      57.822   0.036  31.554  0.00  0.00     0.186 A 
ATOM      3  N   UNL d   1      56.783  -0.571  32.176  0.00  0.00    -0.240 N 
ATOM      4  C   UNL d   1      57.282   0.067  32.190  0.00  0.00     0.292 A 
ATOM      5  C   UNL d   1      57.010  -1.033  31.503  0.00  0.00     0.271 A 
ATOM      6  N   UNL d   1      58.668  -0.037  30.535  0.00  0.00    -0.211 N 
ATOM      7  C   UNL d   1      58.166  -0.701  30.501  0.00  0.00     0.117 A 
ATOM      8  O   UNL d   1      58.438   0.404  31.192  0.00  0.00    -0.223 OA
ATOM      9  O   UNL d   1      56.641  -1.738  31.283  0.00  0.00    -0.266 OA
ATOM     10  O   UNL d   1      57.263   0.682  32.766  0.00  0.00    -0.264 OA
ENDROOT
BRANCH   6  11
ATOM     11  C   UNL d   1      59.279   0.145  30.011  0.00  0.00     0.088 A 
ATOM     12  C   UNL d   1      60.064  -0.033  30.228  0.00  0.00     0.021 A 
ATOM     13  C   UNL d   1      60.691   0.142  29.716  0.00  0.00     0.013 A 
ATOM     14  C   UNL d   1      60.533   0.503  28.969  0.00  0.00     0.058 A 
ATOM     15  C   UNL d   1      59.741   0.678  28.759  0.00  0.00     0.013 A 
ATOM     16 CL   UNL d   1      61.132   0.681  28.457  0.00  0.00    -0.082 Cl
ATOM     17  C   UNL d   1      59.130   0.497  29.282  0.00  0.00     0.021 A 
ENDBRANCH   6  11
BRANCH   7  18
ATOM     18  C   UNL d   1      58.195  -1.294  29.933  0.00  0.00     0.118 A 
ATOM     19  O   UNL d   1      57.894  -1.283  29.162  0.00  0.00    -0.304 OA
ATOM     20  C   UNL d   1      58.059  -2.010  28.803  0.00  0.00     0.123 A 
ATOM     21  C   UNL d   1      58.469  -2.464  29.378  0.00  0.00     0.029 A 
ATOM     22  C   UNL d   1      58.541  -2.022  30.044  0.00  0.00     0.028 A 
ENDBRANCH   7  18
BRANCH   3  23
ATOM     23  C   UNL d   1      56.217  -0.623  32.768  0.00  0.00     0.070 A 
ATOM     24  C   UNL d   1      55.732   0.022  32.960  0.00  0.00     0.018 A 
ATOM     25  C   UNL d   1      55.168  -0.046  33.557  0.00  0.00     0.002 A 
ATOM     26  C   UNL d   1      55.070  -0.731  33.965  0.00  0.00     0.000 A 
ATOM     27  C   UNL d   1      55.561  -1.394  33.775  0.00  0.00     0.002 A 
ATOM     28  C   UNL d   1      56.124  -1.344  33.188  0.00  0.00     0.018 A 
ENDBRANCH   3  23
TORSDOF 3
ENDMDL
MODEL 2
REMARK VINA RESULT:      -1.0      1.316      2.247
REMARK  3 active torsions:
REMARK  status: ('A' for Active; 'I' for Inactive)
REMARK    1  A    between atoms: C_11  and  N_3 
REMARK    2  A    between atoms: C_10  and  N_6 
REMARK    3  A    between atoms: C_9  and  C_7 
ROOT
ATOM      1  C   UNL d   1      57.587  -0.732  30.894  0.00  0.00     0.106 A 
ATOM      2  C   UNL d   1      57.419  -1.416  31.356  0.00  0.00     0.186 A 
ATOM      3  N   UNL d   1      56.756  -0.368  31.901  0.00  0.00    -0.240 N 
ATOM      4  C   UNL d   1      56.908  -1.161  31.965  0.00  0.00     0.292 A 
ATOM      5  C   UNL d   1      57.187  -0.099  31.223  0.00  0.00     0.271 A 
ATOM      6  N   UNL d   1      58.232  -1.795  30.380  0.00  0.00    -0.211 N 
ATOM      7  C   UNL d   1      58.090  -0.979  30.294  0.00  0.00     0.117 A 
ATOM      8  O   UNL d   1      57.808  -2.044  31.042  0.00  0.00    -0.223 OA
ATOM      9  O   UNL d   1      57.186   0.682  30.957  0.00  0.00    -0.266 OA
ATOM     10  O   UNL d   1      56.595  -1.665  32.564  0.00  0.00    -0.264 OA
ENDROOT
BRANCH   6  11
ATOM     11  C   UNL d   1      58.707  -2.265  29.895  0.00  0.00     0.088 A 
ATOM     12  C   UNL d   1      59.523  -2.320  30.059  0.00  0.00     0.021 A 
ATOM     13  C   UNL d   1      60.015  -2.786  29.585  0.00  0.00     0.013 A 
ATOM     14  C   UNL d   1      59.689  -3.209  28.930  0.00  0.00     0.058 A 
ATOM     15  C   UNL d   1      58.868  -3.147  28.773  0.00  0.00     0.013 A 
ATOM     16 CL   UNL d   1      60.154  -3.669  28.456  0.00  0.00    -0.082 Cl
ATOM     17  C   UNL d   1      58.393  -2.678  29.257  0.00  0.00     0.021 A 
ENDBRANCH   6  11
BRANCH   7  18
ATOM     18  C   UNL d   1      58.402  -0.498  29.705  0.00  0.00     0.118 A 
ATOM     19  O   UNL d   1      58.124  -0.382  28.935  0.00  0.00    -0.304 OA
ATOM     20  C   UNL d   1      58.624   0.154  28.550  0.00  0.00     0.123 A 
ATOM     21  C   UNL d   1      59.214   0.361  29.110  0.00  0.00     0.029 A 
ATOM     22  C   UNL d   1      59.066  -0.036  29.792  0.00  0.00     0.028 A 
ENDBRANCH   7  18
BRANCH   3  23
ATOM     23  C   UNL d   1      56.260  -0.029  32.461  0.00  0.00     0.070 A 
ATOM     24  C   UNL d   1      56.469   0.001  33.263  0.00  0.00     0.018 A 
ATOM     25  C   UNL d   1      55.961   0.344  33.812  0.00  0.00     0.002 A 
ATOM     26  C   UNL d   1      55.255   0.656  33.591  0.00  0.00     0.000 A 
ATOM     27  C   UNL d   1      55.033   0.629  32.775  0.00  0.00     0.002 A 
ATOM     28  C   UNL d   1      55.524   0.294  32.218  0.00  0.00     0.018 A 
ENDBRANCH   3  23
TORSDOF 3
ENDMDL
