MODEL 1
REMARK VINA RESULT:      -2.6      0.000      0.000
REMARK  3 active torsions:
REMARK  status: ('A' for Active; 'I' for Inactive)
REMARK    1  A    between atoms: C_7  and  C_1 
REMARK    2  A    between atoms: C_10  and  C_7 
REMARK    3  A    between atoms: N_8  and  C_9 
ROOT
ATOM      1  C   UNL d   1      32.122  16.331 -23.975  0.00  0.00     0.129 A 
ATOM      2  C   UNL d   1      32.207  17.148 -23.928  0.00  0.00     0.024 A 
ATOM      3  C   UNL d   1      31.384  16.003 -24.113  0.00  0.00     0.050 A 
ATOM      4  C   UNL d   1      30.721  16.489 -24.206  0.00  0.00     0.121 A 
ATOM      5  C   UNL d   1      30.799  17.307 -24.160  0.00  0.00     0.119 A 
ATOM      6  C   UNL d   1      31.549  17.641 -24.019  0.00  0.00     0.028 A 
ATOM      7  O   UNL d   1      29.924  16.321 -24.348  0.00  0.00    -0.299 OA
ATOM      8  O   UNL d   1      30.062  17.646 -24.271  0.00  0.00    -0.300 OA
ATOM      9  C   UNL d   1      29.518  17.037 -24.388  0.00  0.00     0.304 A 
ENDROOT
BRANCH   2  10
ATOM     10  C   UNL d   1      32.948  17.472 -23.789  0.00  0.00     0.011 C 
BRANCH  10  11
ATOM     11  C   UNL d   1      33.021  18.292 -23.668  0.00  0.00     0.116 A 
ATOM     12  C   UNL d   1      33.158  18.794 -24.313  0.00  0.00     0.288 A 
ATOM     13  N   UNL d   1      33.231  19.601 -24.197  0.00  0.00    -0.152 NA
ATOM     14  O   UNL d   1      33.221  18.474 -25.077  0.00  0.00    -0.265 OA
ATOM     15  C   UNL d   1      33.168  19.911 -23.441  0.00  0.00     0.374 A 
ATOM     16  N   UNL d   1      33.031  19.409 -22.796  0.00  0.00    -0.152 NA
ATOM     17  O   UNL d   1      33.241  20.729 -23.317  0.00  0.00    -0.242 OA
ATOM     18  C   UNL d   1      32.959  18.602 -22.913  0.00  0.00     0.288 A 
ATOM     19  O   UNL d   1      32.823  18.102 -22.271  0.00  0.00    -0.265 OA
ENDBRANCH  10  11
ENDBRANCH   2  10
BRANCH   1  20
ATOM     20  N   UNL d   1      32.777  15.846 -23.884  0.00  0.00    -0.114 N 
ATOM     21  O   UNL d   1      32.973  15.551 -23.137  0.00  0.00    -0.532 OA
ATOM     22  O   UNL d   1      33.239  15.653 -24.533  0.00  0.00    -0.532 OA
ENDBRANCH   1  20
TORSDOF 3
ENDMDL
MODEL 2
REMARK VINA RESULT:       0.3      2.464      3.664
REMARK  3 active torsions:
REMARK  status: ('A' for Active; 'I' for Inactive)
REMARK    1  A    between atoms: C_7  and  C_1 
REMARK    2  A    between atoms: C_10  and  C_7 
REMARK    3  A    between atoms: N_8  and  C_9 
ROOT
ATOM      1  C   UNL d   1      28.785  16.514 -23.489  0.00  0.00     0.129 A 
ATOM      2  C   UNL d   1      29.551  16.416 -23.774  0.00  0.00     0.024 A 
ATOM      3  C   UNL d   1      28.349  17.174 -23.706  0.00  0.00     0.050 A 
ATOM      4  C   UNL d   1      28.673  17.743 -24.210  0.00  0.00     0.121 A 
ATOM      5  C   UNL d   1      29.439  17.650 -24.499  0.00  0.00     0.119 A 
ATOM      6  C   UNL d   1      29.882  16.980 -24.278  0.00  0.00     0.028 A 
ATOM      7  O   UNL d   1      28.374  18.448 -24.518  0.00  0.00    -0.299 OA
ATOM      8  O   UNL d   1      29.616  18.288 -24.980  0.00  0.00    -0.300 OA
ATOM      9  C   UNL d   1      28.957  18.785 -24.994  0.00  0.00     0.304 A 
ENDROOT
BRANCH   2  10
ATOM     10  C   UNL d   1      29.983  15.754 -23.554  0.00  0.00     0.011 C 
BRANCH  10  11
ATOM     11  C   UNL d   1      30.795  15.716 -23.734  0.00  0.00     0.116 A 
ATOM     12  C   UNL d   1      31.357  15.830 -23.137  0.00  0.00     0.288 A 
ATOM     13  N   UNL d   1      32.156  15.793 -23.311  0.00  0.00    -0.152 NA
ATOM     14  O   UNL d   1      31.105  15.982 -22.360  0.00  0.00    -0.265 OA
ATOM     15  C   UNL d   1      32.398  15.643 -24.079  0.00  0.00     0.374 A 
ATOM     16  N   UNL d   1      31.837  15.529 -24.677  0.00  0.00    -0.152 NA
ATOM     17  O   UNL d   1      33.207  15.604 -24.262  0.00  0.00    -0.242 OA
ATOM     18  C   UNL d   1      31.037  15.566 -24.502  0.00  0.00     0.288 A 
ATOM     19  O   UNL d   1      30.478  15.453 -25.097  0.00  0.00    -0.265 OA
ENDBRANCH  10  11
ENDBRANCH   2  10
BRANCH   1  20
ATOM     20  N   UNL d   1      28.460  15.952 -22.988  0.00  0.00    -0.114 N 
ATOM     21  O   UNL d   1      28.726  15.888 -22.208  0.00  0.00    -0.532 OA
ATOM     22  O   UNL d   1      27.869  15.453 -23.260  0.00  0.00    -0.532 OA
ENDBRANCH   1  20
TORSDOF 3
ENDMDL
