MODEL 1
REMARK VINA RESULT:      -3.3      0.000      0.000
REMARK  4 active torsions:
REMARK  status: ('A' for Active; 'I' for Inactive)
REMARK    1  A    between atoms: C_7  and  C_2 
REMARK    2  A    between atoms: C_6  and  C_3 
REMARK    3  A    between atoms: C_11  and  C_6 
REMARK    4  A    between atoms: N_10  and  C_9 
ROOT
ATOM      1  N   UNL d   1      32.113  17.339 -23.703  0.00  0.00    -0.220 NA
ATOM      2  C   UNL d   1      32.743  17.707 -23.307  0.00  0.00     0.161 A 
ATOM      3  C   UNL d   1      32.230  16.523 -23.652  0.00  0.00     0.146 A 
ATOM      4  O   UNL d   1      33.241  17.113 -23.017  0.00  0.00    -0.257 OA
ATOM      5  C   UNL d   1      32.925  16.384 -23.229  0.00  0.00     0.319 A 
ATOM      6  O   UNL d   1      33.240  15.636 -23.055  0.00  0.00    -0.257 OA
ENDROOT
BRANCH   3   7
ATOM      7  C   UNL d   1      31.735  15.946 -23.970  0.00  0.00     0.025 C 
BRANCH   7   8
ATOM      8  C   UNL d   1      30.909  16.002 -23.869  0.00  0.00     0.002 A 
ATOM      9  C   UNL d   1      30.558  15.655 -23.215  0.00  0.00     0.002 A 
ATOM     10  C   UNL d   1      29.747  15.703 -23.104  0.00  0.00     0.018 A 
ATOM     11  C   UNL d   1      29.283  16.109 -23.664  0.00  0.00     0.064 A 
ATOM     12  C   UNL d   1      29.639  16.458 -24.324  0.00  0.00     0.018 A 
ATOM     13  C   UNL d   1      30.450  16.404 -24.425  0.00  0.00     0.002 A 
BRANCH  11  14
ATOM     14  N   UNL d   1      28.472  16.163 -23.563  0.00  0.00    -0.301 N 
ATOM     15  C   UNL d   1      28.107  16.897 -23.495  0.00  0.00     0.100 C 
ATOM     16  C   UNL d   1      28.016  15.473 -23.530  0.00  0.00     0.100 C 
ENDBRANCH  11  14
ENDBRANCH   7   8
ENDBRANCH   3   7
BRANCH   2  17
ATOM     17  C   UNL d   1      32.850  18.510 -23.222  0.00  0.00     0.058 C 
ATOM     18  C   UNL d   1      32.845  18.850 -22.481  0.00  0.00     0.008 C 
ATOM     19  C   UNL d   1      32.949  19.306 -23.054  0.00  0.00     0.008 C 
ATOM     20  C   UNL d   1      32.963  18.982 -23.889  0.00  0.00     0.008 C 
ENDBRANCH   2  17
TORSDOF 4
ENDMDL
MODEL 2
REMARK VINA RESULT:      -2.9      1.280      4.032
REMARK  4 active torsions:
REMARK  status: ('A' for Active; 'I' for Inactive)
REMARK    1  A    between atoms: C_7  and  C_2 
REMARK    2  A    between atoms: C_6  and  C_3 
REMARK    3  A    between atoms: C_11  and  C_6 
REMARK    4  A    between atoms: N_10  and  C_9 
ROOT
ATOM      1  N   UNL d   1      30.960  17.272 -24.373  0.00  0.00    -0.220 NA
ATOM      2  C   UNL d   1      30.348  16.711 -24.384  0.00  0.00     0.161 A 
ATOM      3  C   UNL d   1      31.673  16.862 -24.450  0.00  0.00     0.146 A 
ATOM      4  O   UNL d   1      30.691  15.963 -24.467  0.00  0.00    -0.257 OA
ATOM      5  C   UNL d   1      31.507  16.056 -24.508  0.00  0.00     0.319 A 
ATOM      6  O   UNL d   1      32.072  15.453 -24.592  0.00  0.00    -0.257 OA
ENDROOT
BRANCH   3   7
ATOM      7  C   UNL d   1      32.424  17.203 -24.466  0.00  0.00     0.025 C 
BRANCH   7   8
ATOM      8  C   UNL d   1      32.596  17.858 -23.979  0.00  0.00     0.002 A 
ATOM      9  C   UNL d   1      32.606  18.610 -24.301  0.00  0.00     0.002 A 
ATOM     10  C   UNL d   1      32.774  19.261 -23.833  0.00  0.00     0.018 A 
ATOM     11  C   UNL d   1      32.935  19.149 -23.023  0.00  0.00     0.064 A 
ATOM     12  C   UNL d   1      32.924  18.388 -22.699  0.00  0.00     0.018 A 
ATOM     13  C   UNL d   1      32.755  17.745 -23.177  0.00  0.00     0.002 A 
BRANCH  11  14
ATOM     14  N   UNL d   1      33.104  19.793 -22.545  0.00  0.00    -0.301 N 
ATOM     15  C   UNL d   1      33.168  19.703 -21.730  0.00  0.00     0.100 C 
ATOM     16  C   UNL d   1      33.210  20.540 -22.886  0.00  0.00     0.100 C 
ENDBRANCH  11  14
ENDBRANCH   7   8
ENDBRANCH   3   7
BRANCH   2  17
ATOM     17  C   UNL d   1      29.552  16.873 -24.322  0.00  0.00     0.058 C 
ATOM     18  C   UNL d   1      29.104  16.525 -23.737  0.00  0.00     0.008 C 
ATOM     19  C   UNL d   1      28.750  16.984 -24.196  0.00  0.00     0.008 C 
ATOM     20  C   UNL d   1      29.196  17.392 -24.857  0.00  0.00     0.008 C 
ENDBRANCH   2  17
TORSDOF 4
ENDMDL
MODEL 3
REMARK VINA RESULT:      -2.5      1.432      4.007
REMARK  4 active torsions:
REMARK  status: ('A' for Active; 'I' for Inactive)
REMARK    1  A    between atoms: C_7  and  C_2 
REMARK    2  A    between atoms: C_6  and  C_3 
REMARK    3  A    between atoms: C_11  and  C_6 
REMARK    4  A    between atoms: N_10  and  C_9 
ROOT
ATOM      1  N   UNL d   1      30.278  16.848 -23.648  0.00  0.00    -0.220 NA
ATOM      2  C   UNL d   1      29.571  16.609 -24.012  0.00  0.00     0.161 A 
ATOM      3  C   UNL d   1      30.896  16.441 -24.014  0.00  0.00     0.146 A 
ATOM      4  O   UNL d   1      29.764  16.057 -24.599  0.00  0.00    -0.257 OA
ATOM      5  C   UNL d   1      30.579  15.954 -24.600  0.00  0.00     0.319 A 
ATOM      6  O   UNL d   1      31.015  15.453 -25.097  0.00  0.00    -0.257 OA
ENDROOT
BRANCH   3   7
ATOM      7  C   UNL d   1      31.696  16.511 -23.825  0.00  0.00     0.025 C 
BRANCH   7   8
ATOM      8  C   UNL d   1      32.042  17.266 -23.743  0.00  0.00     0.002 A 
ATOM      9  C   UNL d   1      32.312  17.508 -23.009  0.00  0.00     0.002 A 
ATOM     10  C   UNL d   1      32.654  18.247 -22.915  0.00  0.00     0.018 A 
ATOM     11  C   UNL d   1      32.722  18.750 -23.574  0.00  0.00     0.064 A 
ATOM     12  C   UNL d   1      32.448  18.504 -24.315  0.00  0.00     0.018 A 
ATOM     13  C   UNL d   1      32.109  17.763 -24.397  0.00  0.00     0.002 A 
BRANCH  11  14
ATOM     14  N   UNL d   1      33.062  19.492 -23.492  0.00  0.00    -0.301 N 
ATOM     15  C   UNL d   1      33.226  19.952 -24.154  0.00  0.00     0.100 C 
ATOM     16  C   UNL d   1      33.241  19.779 -22.737  0.00  0.00     0.100 C 
ENDBRANCH  11  14
ENDBRANCH   7   8
ENDBRANCH   3   7
BRANCH   2  17
ATOM     17  C   UNL d   1      28.824  16.872 -23.823  0.00  0.00     0.058 C 
ATOM     18  C   UNL d   1      28.355  16.447 -23.310  0.00  0.00     0.008 C 
ATOM     19  C   UNL d   1      28.066  17.070 -23.585  0.00  0.00     0.008 C 
ATOM     20  C   UNL d   1      28.541  17.573 -24.154  0.00  0.00     0.008 C 
ENDBRANCH   2  17
TORSDOF 4
ENDMDL
MODEL 4
REMARK VINA RESULT:      -2.4      1.738      2.540
REMARK  4 active torsions:
REMARK  status: ('A' for Active; 'I' for Inactive)
REMARK    1  A    between atoms: C_7  and  C_2 
REMARK    2  A    between atoms: C_6  and  C_3 
REMARK    3  A    between atoms: C_11  and  C_6 
REMARK    4  A    between atoms: N_10  and  C_9 
ROOT
ATOM      1  N   UNL d   1      33.202  18.945 -23.035  0.00  0.00    -0.220 NA
ATOM      2  C   UNL d   1      33.218  19.755 -22.855  0.00  0.00     0.161 A 
ATOM      3  C   UNL d   1      33.198  18.874 -23.858  0.00  0.00     0.146 A 
ATOM      4  O   UNL d   1      33.223  20.173 -23.569  0.00  0.00    -0.257 OA
ATOM      5  C   UNL d   1      33.211  19.630 -24.186  0.00  0.00     0.319 A 
ATOM      6  O   UNL d   1      33.212  19.803 -24.998  0.00  0.00    -0.257 OA
ENDROOT
BRANCH   3   7
ATOM      7  C   UNL d   1      33.184  18.165 -24.279  0.00  0.00     0.025 C 
BRANCH   7   8
ATOM      8  C   UNL d   1      32.548  17.633 -24.181  0.00  0.00     0.002 A 
ATOM      9  C   UNL d   1      32.659  16.948 -23.748  0.00  0.00     0.002 A 
ATOM     10  C   UNL d   1      32.043  16.418 -23.644  0.00  0.00     0.018 A 
ATOM     11  C   UNL d   1      31.301  16.583 -23.984  0.00  0.00     0.064 A 
ATOM     12  C   UNL d   1      31.191  17.277 -24.422  0.00  0.00     0.018 A 
ATOM     13  C   UNL d   1      31.814  17.800 -24.520  0.00  0.00     0.002 A 
BRANCH  11  14
ATOM     14  N   UNL d   1      30.678  16.061 -23.887  0.00  0.00    -0.301 N 
ATOM     15  C   UNL d   1      30.453  15.813 -23.136  0.00  0.00     0.100 C 
ATOM     16  C   UNL d   1      30.271  15.779 -24.551  0.00  0.00     0.100 C 
ENDBRANCH  11  14
ENDBRANCH   7   8
ENDBRANCH   3   7
BRANCH   2  17
ATOM     17  C   UNL d   1      33.226  20.077 -22.107  0.00  0.00     0.058 C 
ATOM     18  C   UNL d   1      33.226  19.594 -21.450  0.00  0.00     0.008 C 
ATOM     19  C   UNL d   1      33.234  20.323 -21.325  0.00  0.00     0.008 C 
ATOM     20  C   UNL d   1      33.234  20.897 -22.013  0.00  0.00     0.008 C 
ENDBRANCH   2  17
TORSDOF 4
ENDMDL
MODEL 5
REMARK VINA RESULT:      -1.0      2.898      4.710
REMARK  4 active torsions:
REMARK  status: ('A' for Active; 'I' for Inactive)
REMARK    1  A    between atoms: C_7  and  C_2 
REMARK    2  A    between atoms: C_6  and  C_3 
REMARK    3  A    between atoms: C_11  and  C_6 
REMARK    4  A    between atoms: N_10  and  C_9 
ROOT
ATOM      1  N   UNL d   1      33.229  21.612 -22.440  0.00  0.00    -0.220 NA
ATOM      2  C   UNL d   1      32.782  22.295 -22.290  0.00  0.00     0.161 A 
ATOM      3  C   UNL d   1      32.949  21.017 -21.939  0.00  0.00     0.146 A 
ATOM      4  O   UNL d   1      32.232  22.113 -21.699  0.00  0.00    -0.257 OA
ATOM      5  C   UNL d   1      32.335  21.326 -21.483  0.00  0.00     0.319 A 
ATOM      6  O   UNL d   1      31.904  20.909 -20.910  0.00  0.00    -0.257 OA
ENDROOT
BRANCH   3   7
ATOM      7  C   UNL d   1      33.236  20.245 -21.903  0.00  0.00     0.025 C 
BRANCH   7   8
ATOM      8  C   UNL d   1      33.049  19.700 -22.506  0.00  0.00     0.002 A 
ATOM      9  C   UNL d   1      32.673  18.999 -22.314  0.00  0.00     0.002 A 
ATOM     10  C   UNL d   1      32.484  18.456 -22.898  0.00  0.00     0.018 A 
ATOM     11  C   UNL d   1      32.677  18.625 -23.690  0.00  0.00     0.064 A 
ATOM     12  C   UNL d   1      33.056  19.334 -23.882  0.00  0.00     0.018 A 
ATOM     13  C   UNL d   1      33.241  19.870 -23.290  0.00  0.00     0.002 A 
BRANCH  11  14
ATOM     14  N   UNL d   1      32.492  18.089 -24.282  0.00  0.00    -0.301 N 
ATOM     15  C   UNL d   1      33.087  17.704 -24.698  0.00  0.00     0.100 C 
ATOM     16  C   UNL d   1      31.699  17.935 -24.461  0.00  0.00     0.100 C 
ENDBRANCH  11  14
ENDBRANCH   7   8
ENDBRANCH   3   7
BRANCH   2  17
ATOM     17  C   UNL d   1      32.872  23.014 -22.661  0.00  0.00     0.058 C 
ATOM     18  C   UNL d   1      32.678  23.100 -23.448  0.00  0.00     0.008 C 
ATOM     19  C   UNL d   1      32.934  23.702 -23.103  0.00  0.00     0.008 C 
ATOM     20  C   UNL d   1      33.161  23.661 -22.238  0.00  0.00     0.008 C 
ENDBRANCH   2  17
TORSDOF 4
ENDMDL
MODEL 6
REMARK VINA RESULT:      -0.9      1.471      2.193
REMARK  4 active torsions:
REMARK  status: ('A' for Active; 'I' for Inactive)
REMARK    1  A    between atoms: C_7  and  C_2 
REMARK    2  A    between atoms: C_6  and  C_3 
REMARK    3  A    between atoms: C_11  and  C_6 
REMARK    4  A    between atoms: N_10  and  C_9 
ROOT
ATOM      1  N   UNL d   1      31.124  16.762 -24.277  0.00  0.00    -0.220 NA
ATOM      2  C   UNL d   1      31.871  17.042 -24.047  0.00  0.00     0.161 A 
ATOM      3  C   UNL d   1      30.749  17.369 -24.695  0.00  0.00     0.146 A 
ATOM      4  O   UNL d   1      31.948  17.817 -24.327  0.00  0.00    -0.257 OA
ATOM      5  C   UNL d   1      31.257  18.018 -24.726  0.00  0.00     0.319 A 
ATOM      6  O   UNL d   1      31.091  18.742 -25.096  0.00  0.00    -0.257 OA
ENDROOT
BRANCH   3   7
ATOM      7  C   UNL d   1      29.995  17.330 -25.026  0.00  0.00     0.025 C 
BRANCH   7   8
ATOM      8  C   UNL d   1      29.390  16.906 -24.637  0.00  0.00     0.002 A 
ATOM      9  C   UNL d   1      28.881  17.301 -24.133  0.00  0.00     0.002 A 
ATOM     10  C   UNL d   1      28.282  16.897 -23.745  0.00  0.00     0.018 A 
ATOM     11  C   UNL d   1      28.197  16.078 -23.871  0.00  0.00     0.064 A 
ATOM     12  C   UNL d   1      28.713  15.680 -24.381  0.00  0.00     0.018 A 
ATOM     13  C   UNL d   1      29.307  16.095 -24.763  0.00  0.00     0.002 A 
BRANCH  11  14
ATOM     14  N   UNL d   1      27.603  15.663 -23.489  0.00  0.00    -0.301 N 
ATOM     15  C   UNL d   1      27.681  15.453 -22.698  0.00  0.00     0.100 C 
ATOM     16  C   UNL d   1      26.917  15.454 -23.903  0.00  0.00     0.100 C 
ENDBRANCH  11  14
ENDBRANCH   7   8
ENDBRANCH   3   7
BRANCH   2  17
ATOM     17  C   UNL d   1      32.426  16.624 -23.623  0.00  0.00     0.058 C 
ATOM     18  C   UNL d   1      32.477  15.814 -23.694  0.00  0.00     0.008 C 
ATOM     19  C   UNL d   1      32.956  16.136 -23.231  0.00  0.00     0.008 C 
ATOM     20  C   UNL d   1      32.942  17.024 -23.117  0.00  0.00     0.008 C 
ENDBRANCH   2  17
TORSDOF 4
ENDMDL
