MODEL 1
REMARK VINA RESULT:      -5.2      0.000      0.000
REMARK  5 active torsions:
REMARK  status: ('A' for Active; 'I' for Inactive)
REMARK       I    between atoms: C_2  and  N_1 
REMARK    1  A    between atoms: C_3  and  N_1 
REMARK    2  A    between atoms: C_9  and  C_2 
REMARK    3  A    between atoms: N_6  and  C_3 
REMARK    4  A    between atoms: C_4  and  C_13 
REMARK    5  A    between atoms: C_13  and  N_6 
ROOT
ATOM      1  N   UNL d   1     -41.900-121.815 -52.438  0.00  0.00    -0.299 N 
ATOM      2  C   UNL d   1     -41.617-122.356 -52.990  0.00  0.00     0.259 C 
ATOM      3  O   UNL d   1     -41.123-122.974 -52.750  0.00  0.00    -0.267 OA
ATOM      4  H   UNL d   1     -42.394-121.197 -52.678  0.00  0.00     0.171 HD
ENDROOT
BRANCH   1   5
ATOM      5  C   UNL d   1     -41.698-121.881 -51.657  0.00  0.00     0.179 C 
ATOM      6  S   UNL d   1     -41.123-121.376 -51.343  0.00  0.00    -0.040 SA
BRANCH   5   7
ATOM      7  N   UNL d   1     -42.058-122.433 -51.197  0.00  0.00    -0.329 N 
ATOM      8  H   UNL d   1     -42.092-123.203 -51.447  0.00  0.00     0.168 HD
BRANCH   7   9
ATOM      9  C   UNL d   1     -42.380-122.215 -50.493  0.00  0.00     0.099 C 
BRANCH   9  10
ATOM     10  C   UNL d   1     -42.595-122.796 -49.942  0.00  0.00     0.117 A 
ATOM     11  O   UNL d   1     -43.373-123.049 -49.920  0.00  0.00    -0.304 OA
ATOM     12  C   UNL d   1     -43.425-123.616 -49.333  0.00  0.00     0.123 A 
ATOM     13  C   UNL d   1     -42.678-123.703 -49.003  0.00  0.00     0.029 A 
ATOM     14  C   UNL d   1     -42.176-123.189 -49.390  0.00  0.00     0.028 A 
ENDBRANCH   9  10
ENDBRANCH   7   9
ENDBRANCH   5   7
ENDBRANCH   1   5
BRANCH   2  15
ATOM     15  C   UNL d   1     -41.828-122.282 -53.788  0.00  0.00     0.056 A 
ATOM     16  C   UNL d   1     -42.424-121.753 -54.009  0.00  0.00     0.005 A 
ATOM     17  C   UNL d   1     -42.635-121.680 -54.811  0.00  0.00     0.000 A 
ATOM     18  C   UNL d   1     -42.251-122.132 -55.382  0.00  0.00     0.000 A 
ATOM     19  C   UNL d   1     -41.655-122.661 -55.161  0.00  0.00     0.000 A 
ATOM     20  C   UNL d   1     -41.443-122.737 -54.369  0.00  0.00     0.005 A 
ENDBRANCH   2  15
TORSDOF 5
ENDMDL
MODEL 2
REMARK VINA RESULT:      -5.1      0.968      4.531
REMARK  5 active torsions:
REMARK  status: ('A' for Active; 'I' for Inactive)
REMARK       I    between atoms: C_2  and  N_1 
REMARK    1  A    between atoms: C_3  and  N_1 
REMARK    2  A    between atoms: C_9  and  C_2 
REMARK    3  A    between atoms: N_6  and  C_3 
REMARK    4  A    between atoms: C_4  and  C_13 
REMARK    5  A    between atoms: C_13  and  N_6 
ROOT
ATOM      1  N   UNL d   1     -41.361-122.706 -50.767  0.00  0.00    -0.299 N 
ATOM      2  C   UNL d   1     -42.029-122.629 -50.291  0.00  0.00     0.259 C 
ATOM      3  O   UNL d   1     -42.662-122.158 -50.538  0.00  0.00    -0.267 OA
ATOM      4  H   UNL d   1     -40.728-123.176 -50.520  0.00  0.00     0.171 HD
ENDROOT
BRANCH   1   5
ATOM      5  C   UNL d   1     -41.317-122.323 -51.478  0.00  0.00     0.179 C 
ATOM      6  S   UNL d   1     -41.177-121.508 -51.492  0.00  0.00    -0.040 SA
BRANCH   5   7
ATOM      7  N   UNL d   1     -41.408-122.738 -52.160  0.00  0.00    -0.329 N 
ATOM      8  H   UNL d   1     -41.619-123.519 -52.131  0.00  0.00     0.168 HD
BRANCH   7   9
ATOM      9  C   UNL d   1     -41.288-122.371 -52.866  0.00  0.00     0.099 C 
BRANCH   9  10
ATOM     10  C   UNL d   1     -41.367-122.802 -53.571  0.00  0.00     0.117 A 
ATOM     11  O   UNL d   1     -41.760-123.519 -53.552  0.00  0.00    -0.304 OA
ATOM     12  C   UNL d   1     -41.754-123.817 -54.313  0.00  0.00     0.123 A 
ATOM     13  C   UNL d   1     -41.357-123.278 -54.790  0.00  0.00     0.029 A 
ATOM     14  C   UNL d   1     -41.123-122.656 -54.315  0.00  0.00     0.028 A 
ENDBRANCH   9  10
ENDBRANCH   7   9
ENDBRANCH   5   7
ENDBRANCH   1   5
BRANCH   2  15
ATOM     15  C   UNL d   1     -42.066-123.024 -49.564  0.00  0.00     0.056 A 
ATOM     16  C   UNL d   1     -41.370-123.272 -49.193  0.00  0.00     0.005 A 
ATOM     17  C   UNL d   1     -41.410-123.668 -48.462  0.00  0.00     0.000 A 
ATOM     18  C   UNL d   1     -42.140-123.814 -48.110  0.00  0.00     0.000 A 
ATOM     19  C   UNL d   1     -42.836-123.566 -48.481  0.00  0.00     0.000 A 
ATOM     20  C   UNL d   1     -42.802-123.174 -49.204  0.00  0.00     0.005 A 
ENDBRANCH   2  15
TORSDOF 5
ENDMDL
