MODEL 1
REMARK VINA RESULT:      26.6      0.000      0.000
REMARK  5 active torsions:
REMARK  status: ('A' for Active; 'I' for Inactive)
REMARK    1  A    between atoms: C_2  and  C_1 
REMARK    2  A    between atoms: C_3  and  C_1 
REMARK    3  A    between atoms: C_4  and  C_2 
REMARK    4  A    between atoms: C_8  and  C_3 
REMARK    5  A    between atoms: O_18  and  C_10 
ROOT
ATOM      1  C   UNL d   1     -55.703-102.727 -39.155  0.00  0.00     0.196 C 
ATOM      2  O   UNL d   1     -56.475-102.856 -39.424  0.00  0.00    -0.287 OA
ENDROOT
BRANCH   1   3
ATOM      3  C   UNL d   1     -55.078-102.691 -39.692  0.00  0.00     0.042 C 
BRANCH   3   4
ATOM      4  C   UNL d   1     -54.989-102.874 -40.493  0.00  0.00     0.003 C 
BRANCH   4   5
ATOM      5  C   UNL d   1     -54.922-102.430 -41.186  0.00  0.00     0.000 A 
ATOM      6  C   UNL d   1     -54.911-102.815 -41.917  0.00  0.00     0.003 A 
ATOM      7  C   UNL d   1     -54.844-102.372 -42.612  0.00  0.00     0.042 A 
ATOM      8  C   UNL d   1     -54.788-101.550 -42.569  0.00  0.00     0.196 A 
ATOM      9  C   UNL d   1     -54.800-101.173 -41.833  0.00  0.00     0.042 A 
ATOM     10  O   UNL d   1     -54.721-101.105 -43.260  0.00  0.00    -0.287 OA
ATOM     11  C   UNL d   1     -54.866-101.610 -41.145  0.00  0.00     0.003 A 
ENDBRANCH   4   5
ENDBRANCH   3   4
ENDBRANCH   1   3
BRANCH   1  12
ATOM     12  C   UNL d   1     -55.573-102.636 -38.341  0.00  0.00     0.039 A 
ATOM     13  C   UNL d   1     -54.870-102.312 -38.056  0.00  0.00     0.005 A 
ATOM     14  C   UNL d   1     -54.755-102.227 -37.244  0.00  0.00     0.024 A 
ATOM     15  C   UNL d   1     -55.344-102.468 -36.715  0.00  0.00     0.094 A 
ATOM     16  C   UNL d   1     -56.054-102.795 -37.009  0.00  0.00     0.024 A 
ATOM     17  C   UNL d   1     -56.167-102.879 -37.818  0.00  0.00     0.005 A 
BRANCH  15  18
ATOM     18  O   UNL d   1     -55.229-102.383 -35.903  0.00  0.00    -0.328 OA
ATOM     19  C   UNL d   1     -54.929-101.677 -35.601  0.00  0.00     0.181 C 
ENDBRANCH  15  18
ENDBRANCH   1  12
TORSDOF 5
ENDMDL
