MODEL 1
REMARK VINA RESULT:      59.5      0.000      0.000
REMARK  5 active torsions:
REMARK  status: ('A' for Active; 'I' for Inactive)
REMARK    1  A    between atoms: O_8  and  C_7 
REMARK    2  A    between atoms: C_10  and  O_8 
REMARK    3  A    between atoms: C_9  and  C_10 
REMARK    4  A    between atoms: O_17  and  C_9 
REMARK    5  A    between atoms: C_21  and  O_17 
ROOT
ATOM      1  C   UNL d   1      60.168  49.323  50.737  0.00  0.00     0.009 A 
ATOM      2  C   UNL d   1      59.746  49.408  51.434  0.00  0.00     0.046 A 
ATOM      3  C   UNL d   1      60.978  49.157  50.762  0.00  0.00     0.064 A 
ATOM      4  C   UNL d   1      61.355  49.080  51.483  0.00  0.00     0.300 A 
ATOM      5  C   UNL d   1      60.124  49.330  52.155  0.00  0.00     0.105 A 
ATOM      6  O   UNL d   1      60.926  49.166  52.184  0.00  0.00    -0.273 OA
ATOM      7  C   UNL d   1      58.937  49.574  51.400  0.00  0.00     0.102 A 
ATOM      8  C   UNL d   1      59.687  49.419  52.860  0.00  0.00     0.025 A 
ATOM      9  C   UNL d   1      58.511  49.660  52.108  0.00  0.00     0.025 A 
ATOM     10  O   UNL d   1      62.176  48.912  51.512  0.00  0.00    -0.259 OA
ATOM     11  C   UNL d   1      58.889  49.582  52.828  0.00  0.00     0.004 A 
ATOM     12  C   UNL d   1      59.787  49.402  50.009  0.00  0.00     0.000 A 
ATOM     13  C   UNL d   1      61.403  49.071  50.063  0.00  0.00     0.005 A 
ATOM     14  C   UNL d   1      58.456  49.670  53.532  0.00  0.00     0.000 C 
ATOM     15  C   UNL d   1      60.207  49.317  49.298  0.00  0.00     0.000 A 
ATOM     16  C   UNL d   1      61.022  49.150  49.335  0.00  0.00     0.000 A 
ENDROOT
BRANCH   7  17
ATOM     17  O   UNL d   1      58.560  49.652  50.679  0.00  0.00    -0.302 OA
BRANCH  17  18
ATOM     18  C   UNL d   1      57.739  49.556  50.630  0.00  0.00     0.163 C 
ATOM     19  C   UNL d   1      57.288  49.500  51.328  0.00  0.00     0.032 C 
BRANCH  18  20
ATOM     20  C   UNL d   1      57.373  49.516  49.893  0.00  0.00     0.323 C 
ATOM     21  O   UNL d   1      57.821  49.547  49.211  0.00  0.00    -0.257 OA
BRANCH  20  22
ATOM     22  O   UNL d   1      56.551  49.446  49.859  0.00  0.00    -0.270 OA
BRANCH  22  23
ATOM     23  C   UNL d   1      56.211  48.799  49.457  0.00  0.00     0.126 C 
ATOM     24  C   UNL d   1      56.320  48.045  49.739  0.00  0.00     0.029 C 
ENDBRANCH  22  23
ENDBRANCH  20  22
ENDBRANCH  18  20
ENDBRANCH  17  18
ENDBRANCH   7  17
TORSDOF 5
ENDMDL
