MODEL 1
REMARK VINA RESULT:      -8.8      0.000      0.000
REMARK  6 active torsions:
REMARK  status: ('A' for Active; 'I' for Inactive)
REMARK    1  A    between atoms: C_7  and  S_1 
REMARK    2  A    between atoms: N_11  and  S_1 
REMARK    3  A    between atoms: C_5  and  C_21 
REMARK    4  A    between atoms: C_22  and  N_11 
REMARK    5  A    between atoms: C_20  and  C_13 
REMARK    6  A    between atoms: C_21  and  C_22 
ROOT
ATOM      1  S   UNL d   1      51.987  34.430  53.180  0.00  0.00     0.285 S 
ATOM      2  O   UNL d   1      51.722  35.212  53.138  0.00  0.00    -0.198 OA
ATOM      3  O   UNL d   1      52.741  34.699  53.382  0.00  0.00    -0.198 OA
ENDROOT
BRANCH   1   4
ATOM      4  C   UNL d   1      52.253  33.656  53.223  0.00  0.00     0.105 A 
ATOM      5  C   UNL d   1      52.472  33.341  53.959  0.00  0.00     0.013 A 
ATOM      6  C   UNL d   1      52.741  32.555  53.997  0.00  0.00     0.001 A 
ATOM      7  C   UNL d   1      52.789  32.098  53.321  0.00  0.00     0.000 A 
ATOM      8  C   UNL d   1      52.569  32.416  52.588  0.00  0.00     0.001 A 
ATOM      9  C   UNL d   1      52.301  33.195  52.539  0.00  0.00     0.013 A 
BRANCH   7  10
ATOM     10  C   UNL d   1      53.054  31.324  53.358  0.00  0.00     0.000 A 
ATOM     11  C   UNL d   1      53.805  31.153  53.646  0.00  0.00     0.000 A 
ATOM     12  C   UNL d   1      54.060  30.370  53.679  0.00  0.00     0.000 A 
ATOM     13  C   UNL d   1      53.569  29.761  53.426  0.00  0.00     0.000 A 
ATOM     14  C   UNL d   1      52.812  29.930  53.136  0.00  0.00     0.000 A 
ATOM     15  C   UNL d   1      52.561  30.715  53.105  0.00  0.00     0.000 A 
ENDBRANCH   7  10
ENDBRANCH   1   4
BRANCH   1  16
ATOM     16  N   UNL d   1      51.233  34.165  52.978  0.00  0.00    -0.157 NA
BRANCH  16  17
ATOM     17  C   UNL d   1      50.615  34.692  52.921  0.00  0.00     0.114 C 
BRANCH  17  18
ATOM     18  C   UNL d   1      49.893  34.456  52.585  0.00  0.00     0.042 C 
BRANCH  18  19
ATOM     19  C   UNL d   1      49.230  34.963  52.643  0.00  0.00     0.102 A 
ATOM     20  N   UNL d   1      49.029  35.425  53.292  0.00  0.00    -0.227 NA
ATOM     21  C   UNL d   1      48.338  35.840  53.122  0.00  0.00     0.148 A 
ATOM     22  C   UNL d   1      47.890  36.375  53.552  0.00  0.00     0.037 A 
ATOM     23  N   UNL d   1      48.101  35.635  52.353  0.00  0.00    -0.288 N 
ATOM     24  C   UNL d   1      47.205  36.709  53.225  0.00  0.00     0.005 A 
ATOM     25  C   UNL d   1      46.971  36.507  52.469  0.00  0.00     0.019 A 
ATOM     26  C   UNL d   1      47.415  35.970  52.027  0.00  0.00     0.082 A 
ATOM     27  C   UNL d   1      48.647  35.092  52.048  0.00  0.00     0.101 A 
ENDBRANCH  18  19
ENDBRANCH  17  18
ENDBRANCH  16  17
ENDBRANCH   1  16
TORSDOF 6
ENDMDL
MODEL 2
REMARK VINA RESULT:      -7.6      2.032      2.831
REMARK  6 active torsions:
REMARK  status: ('A' for Active; 'I' for Inactive)
REMARK    1  A    between atoms: C_7  and  S_1 
REMARK    2  A    between atoms: N_11  and  S_1 
REMARK    3  A    between atoms: C_5  and  C_21 
REMARK    4  A    between atoms: C_22  and  N_11 
REMARK    5  A    between atoms: C_20  and  C_13 
REMARK    6  A    between atoms: C_21  and  C_22 
ROOT
ATOM      1  S   UNL d   1      54.448  33.605  54.757  0.00  0.00     0.285 S 
ATOM      2  O   UNL d   1      54.697  34.356  54.998  0.00  0.00    -0.198 OA
ATOM      3  O   UNL d   1      54.898  33.266  55.360  0.00  0.00    -0.198 OA
ENDROOT
BRANCH   1   4
ATOM      4  C   UNL d   1      54.204  32.859  54.521  0.00  0.00     0.105 A 
ATOM      5  C   UNL d   1      54.467  32.555  53.796  0.00  0.00     0.013 A 
ATOM      6  C   UNL d   1      54.216  31.798  53.561  0.00  0.00     0.001 A 
ATOM      7  C   UNL d   1      53.718  31.359  54.036  0.00  0.00     0.000 A 
ATOM      8  C   UNL d   1      53.456  31.666  54.760  0.00  0.00     0.001 A 
ATOM      9  C   UNL d   1      53.699  32.416  55.002  0.00  0.00     0.013 A 
BRANCH   7  10
ATOM     10  C   UNL d   1      53.470  30.613  53.804  0.00  0.00     0.000 A 
ATOM     11  C   UNL d   1      53.648  29.954  54.262  0.00  0.00     0.000 A 
ATOM     12  C   UNL d   1      53.394  29.208  54.019  0.00  0.00     0.000 A 
ATOM     13  C   UNL d   1      52.964  29.122  53.323  0.00  0.00     0.000 A 
ATOM     14  C   UNL d   1      52.783  29.784  52.860  0.00  0.00     0.000 A 
ATOM     15  C   UNL d   1      53.040  30.527  53.108  0.00  0.00     0.000 A 
ENDBRANCH   7  10
ENDBRANCH   1   4
BRANCH   1  16
ATOM     16  N   UNL d   1      54.000  33.948  54.156  0.00  0.00    -0.157 NA
BRANCH  16  17
ATOM     17  C   UNL d   1      53.454  34.526  54.330  0.00  0.00     0.114 C 
BRANCH  17  18
ATOM     18  C   UNL d   1      53.163  35.022  53.730  0.00  0.00     0.042 C 
BRANCH  18  19
ATOM     19  C   UNL d   1      52.421  34.852  53.384  0.00  0.00     0.102 A 
ATOM     20  N   UNL d   1      52.292  34.594  52.615  0.00  0.00    -0.227 NA
ATOM     21  C   UNL d   1      51.483  34.492  52.498  0.00  0.00     0.148 A 
ATOM     22  C   UNL d   1      51.041  34.250  51.852  0.00  0.00     0.037 A 
ATOM     23  N   UNL d   1      51.096  34.690  53.205  0.00  0.00    -0.288 N 
ATOM     24  C   UNL d   1      50.214  34.200  51.902  0.00  0.00     0.005 A 
ATOM     25  C   UNL d   1      49.833  34.395  52.598  0.00  0.00     0.019 A 
ATOM     26  C   UNL d   1      50.270  34.640  53.255  0.00  0.00     0.082 A 
ATOM     27  C   UNL d   1      51.669  34.914  53.761  0.00  0.00     0.101 A 
ENDBRANCH  18  19
ENDBRANCH  17  18
ENDBRANCH  16  17
ENDBRANCH   1  16
TORSDOF 6
ENDMDL
MODEL 3
REMARK VINA RESULT:      -6.8      1.575      6.104
REMARK  6 active torsions:
REMARK  status: ('A' for Active; 'I' for Inactive)
REMARK    1  A    between atoms: C_7  and  S_1 
REMARK    2  A    between atoms: N_11  and  S_1 
REMARK    3  A    between atoms: C_5  and  C_21 
REMARK    4  A    between atoms: C_22  and  N_11 
REMARK    5  A    between atoms: C_20  and  C_13 
REMARK    6  A    between atoms: C_21  and  C_22 
ROOT
ATOM      1  S   UNL d   1      49.922  34.461  51.703  0.00  0.00     0.285 S 
ATOM      2  O   UNL d   1      50.599  34.086  51.414  0.00  0.00    -0.198 OA
ATOM      3  O   UNL d   1      49.650  34.561  50.931  0.00  0.00    -0.198 OA
ENDROOT
BRANCH   1   4
ATOM      4  C   UNL d   1      49.249  34.834  51.987  0.00  0.00     0.105 A 
ATOM      5  C   UNL d   1      48.558  34.832  51.529  0.00  0.00     0.013 A 
ATOM      6  C   UNL d   1      47.879  35.211  51.821  0.00  0.00     0.001 A 
ATOM      7  C   UNL d   1      47.890  35.580  52.550  0.00  0.00     0.000 A 
ATOM      8  C   UNL d   1      48.582  35.580  53.005  0.00  0.00     0.001 A 
ATOM      9  C   UNL d   1      49.262  35.207  52.724  0.00  0.00     0.013 A 
BRANCH   7  10
ATOM     10  C   UNL d   1      47.220  35.954  52.839  0.00  0.00     0.000 A 
ATOM     11  C   UNL d   1      47.082  35.995  53.648  0.00  0.00     0.000 A 
ATOM     12  C   UNL d   1      46.405  36.374  53.927  0.00  0.00     0.000 A 
ATOM     13  C   UNL d   1      45.870  36.709  53.401  0.00  0.00     0.000 A 
ATOM     14  C   UNL d   1      46.006  36.670  52.586  0.00  0.00     0.000 A 
ATOM     15  C   UNL d   1      46.685  36.290  52.311  0.00  0.00     0.000 A 
ENDBRANCH   7  10
ENDBRANCH   1   4
BRANCH   1  16
ATOM     16  N   UNL d   1      50.198  34.360  52.474  0.00  0.00    -0.157 NA
BRANCH  16  17
ATOM     17  C   UNL d   1      50.917  34.004  52.608  0.00  0.00     0.114 C 
BRANCH  17  18
ATOM     18  C   UNL d   1      51.079  33.650  53.343  0.00  0.00     0.042 C 
BRANCH  18  19
ATOM     19  C   UNL d   1      51.873  33.492  53.553  0.00  0.00     0.102 A 
ATOM     20  N   UNL d   1      52.333  33.929  54.075  0.00  0.00    -0.227 NA
ATOM     21  C   UNL d   1      53.080  33.585  54.127  0.00  0.00     0.148 A 
ATOM     22  C   UNL d   1      53.752  33.779  54.553  0.00  0.00     0.037 A 
ATOM     23  N   UNL d   1      53.090  32.921  53.629  0.00  0.00    -0.288 N 
ATOM     24  C   UNL d   1      54.439  33.317  54.490  0.00  0.00     0.005 A 
ATOM     25  C   UNL d   1      54.449  32.663  54.000  0.00  0.00     0.019 A 
ATOM     26  C   UNL d   1      53.776  32.459  53.566  0.00  0.00     0.082 A 
ATOM     27  C   UNL d   1      52.346  32.855  53.269  0.00  0.00     0.101 A 
ENDBRANCH  18  19
ENDBRANCH  17  18
ENDBRANCH  16  17
ENDBRANCH   1  16
TORSDOF 6
ENDMDL
MODEL 4
REMARK VINA RESULT:      -6.5      1.604      5.759
REMARK  6 active torsions:
REMARK  status: ('A' for Active; 'I' for Inactive)
REMARK    1  A    between atoms: C_7  and  S_1 
REMARK    2  A    between atoms: N_11  and  S_1 
REMARK    3  A    between atoms: C_5  and  C_21 
REMARK    4  A    between atoms: C_22  and  N_11 
REMARK    5  A    between atoms: C_20  and  C_13 
REMARK    6  A    between atoms: C_21  and  C_22 
ROOT
ATOM      1  S   UNL d   1      52.439  34.185  53.360  0.00  0.00     0.285 S 
ATOM      2  O   UNL d   1      53.160  34.080  53.751  0.00  0.00    -0.198 OA
ATOM      3  O   UNL d   1      52.363  34.931  53.704  0.00  0.00    -0.198 OA
ENDROOT
BRANCH   1   4
ATOM      4  C   UNL d   1      51.724  34.292  52.974  0.00  0.00     0.105 A 
ATOM      5  C   UNL d   1      51.024  34.335  53.418  0.00  0.00     0.013 A 
ATOM      6  C   UNL d   1      50.301  34.443  53.022  0.00  0.00     0.001 A 
ATOM      7  C   UNL d   1      50.278  34.506  52.208  0.00  0.00     0.000 A 
ATOM      8  C   UNL d   1      50.979  34.462  51.767  0.00  0.00     0.001 A 
ATOM      9  C   UNL d   1      51.702  34.355  52.151  0.00  0.00     0.013 A 
BRANCH   7  10
ATOM     10  C   UNL d   1      49.566  34.613  51.817  0.00  0.00     0.000 A 
ATOM     11  C   UNL d   1      49.461  34.322  51.055  0.00  0.00     0.000 A 
ATOM     12  C   UNL d   1      48.740  34.435  50.671  0.00  0.00     0.000 A 
ATOM     13  C   UNL d   1      48.128  34.837  51.047  0.00  0.00     0.000 A 
ATOM     14  C   UNL d   1      48.231  35.130  51.814  0.00  0.00     0.000 A 
ATOM     15  C   UNL d   1      48.954  35.014  52.193  0.00  0.00     0.000 A 
ENDBRANCH   7  10
ENDBRANCH   1   4
BRANCH   1  16
ATOM     16  N   UNL d   1      52.518  33.439  53.018  0.00  0.00    -0.157 NA
BRANCH  16  17
ATOM     17  C   UNL d   1      52.962  32.864  53.385  0.00  0.00     0.114 C 
BRANCH  17  18
ATOM     18  C   UNL d   1      53.304  32.251  52.941  0.00  0.00     0.042 C 
BRANCH  18  19
ATOM     19  C   UNL d   1      53.250  31.465  53.221  0.00  0.00     0.102 A 
ATOM     20  N   UNL d   1      52.777  30.870  52.909  0.00  0.00    -0.227 NA
ATOM     21  C   UNL d   1      52.888  30.181  53.347  0.00  0.00     0.148 A 
ATOM     22  C   UNL d   1      52.569  29.429  53.291  0.00  0.00     0.037 A 
ATOM     23  N   UNL d   1      53.441  30.345  53.944  0.00  0.00    -0.288 N 
ATOM     24  C   UNL d   1      52.793  28.834  53.825  0.00  0.00     0.005 A 
ATOM     25  C   UNL d   1      53.338  28.996  54.413  0.00  0.00     0.019 A 
ATOM     26  C   UNL d   1      53.666  29.751  54.478  0.00  0.00     0.082 A 
ATOM     27  C   UNL d   1      53.671  31.138  53.875  0.00  0.00     0.101 A 
ENDBRANCH  18  19
ENDBRANCH  17  18
ENDBRANCH  16  17
ENDBRANCH   1  16
TORSDOF 6
ENDMDL
MODEL 5
REMARK VINA RESULT:      -6.3     10.101     11.485
REMARK  6 active torsions:
REMARK  status: ('A' for Active; 'I' for Inactive)
REMARK    1  A    between atoms: C_7  and  S_1 
REMARK    2  A    between atoms: N_11  and  S_1 
REMARK    3  A    between atoms: C_5  and  C_21 
REMARK    4  A    between atoms: C_22  and  N_11 
REMARK    5  A    between atoms: C_20  and  C_13 
REMARK    6  A    between atoms: C_21  and  C_22 
ROOT
ATOM      1  S   UNL d   1      45.078  26.521  58.467  0.00  0.00     0.285 S 
ATOM      2  O   UNL d   1      45.125  25.705  58.591  0.00  0.00    -0.198 OA
ATOM      3  O   UNL d   1      45.376  26.651  59.225  0.00  0.00    -0.198 OA
ENDROOT
BRANCH   1   4
ATOM      4  C   UNL d   1      45.033  27.330  58.346  0.00  0.00     0.105 A 
ATOM      5  C   UNL d   1      45.543  27.690  57.799  0.00  0.00     0.013 A 
ATOM      6  C   UNL d   1      45.494  28.511  57.681  0.00  0.00     0.001 A 
ATOM      7  C   UNL d   1      44.951  28.959  58.096  0.00  0.00     0.000 A 
ATOM      8  C   UNL d   1      44.443  28.596  58.641  0.00  0.00     0.001 A 
ATOM      9  C   UNL d   1      44.484  27.782  58.766  0.00  0.00     0.013 A 
BRANCH   7  10
ATOM     10  C   UNL d   1      44.901  29.769  57.979  0.00  0.00     0.000 A 
ATOM     11  C   UNL d   1      44.615  30.071  57.271  0.00  0.00     0.000 A 
ATOM     12  C   UNL d   1      44.570  30.887  57.164  0.00  0.00     0.000 A 
ATOM     13  C   UNL d   1      44.809  31.398  57.763  0.00  0.00     0.000 A 
ATOM     14  C   UNL d   1      45.098  31.096  58.477  0.00  0.00     0.000 A 
ATOM     15  C   UNL d   1      45.142  30.279  58.578  0.00  0.00     0.000 A 
ENDBRANCH   7  10
ENDBRANCH   1   4
BRANCH   1  16
ATOM     16  N   UNL d   1      44.781  26.386  57.709  0.00  0.00    -0.157 NA
BRANCH  16  17
ATOM     17  C   UNL d   1      44.803  25.640  57.386  0.00  0.00     0.114 C 
BRANCH  17  18
ATOM     18  C   UNL d   1      44.322  25.450  56.736  0.00  0.00     0.042 C 
BRANCH  18  19
ATOM     19  C   UNL d   1      44.527  24.798  56.253  0.00  0.00     0.102 A 
ATOM     20  N   UNL d   1      44.708  24.040  56.513  0.00  0.00    -0.227 NA
ATOM     21  C   UNL d   1      44.878  23.567  55.860  0.00  0.00     0.148 A 
ATOM     22  C   UNL d   1      45.090  22.779  55.785  0.00  0.00     0.037 A 
ATOM     23  N   UNL d   1      44.802  24.035  55.179  0.00  0.00    -0.288 N 
ATOM     24  C   UNL d   1      45.229  22.449  55.036  0.00  0.00     0.005 A 
ATOM     25  C   UNL d   1      45.154  22.910  54.366  0.00  0.00     0.019 A 
ATOM     26  C   UNL d   1      44.941  23.705  54.430  0.00  0.00     0.082 A 
ATOM     27  C   UNL d   1      44.585  24.800  55.412  0.00  0.00     0.101 A 
ENDBRANCH  18  19
ENDBRANCH  17  18
ENDBRANCH  16  17
ENDBRANCH   1  16
TORSDOF 6
ENDMDL
