MODEL 1
REMARK VINA RESULT:      -3.3      0.000      0.000
REMARK  6 active torsions:
REMARK  status: ('A' for Active; 'I' for Inactive)
REMARK    1  A    between atoms: C_12  and  C_4 
REMARK    2  A    between atoms: N_16  and  C_5 
REMARK    3  A    between atoms: N_11  and  C_24 
REMARK    4  A    between atoms: C_27  and  N_16 
REMARK    5  A    between atoms: C_24  and  C_25 
REMARK    6  A    between atoms: C_25  and  C_27 
ROOT
ATOM      1  N   UNL d   1      58.564  -0.750  29.698  0.00  0.00    -0.195 N 
ATOM      2  C   UNL d   1      59.288  -1.120  29.542  0.00  0.00     0.167 A 
ATOM      3  N   UNL d   1      57.974  -1.300  29.572  0.00  0.00    -0.163 NA
ATOM      4  C   UNL d   1      59.128  -1.891  29.323  0.00  0.00     0.055 A 
ATOM      5  C   UNL d   1      58.551   0.035  29.933  0.00  0.00     0.167 A 
ATOM      6  C   UNL d   1      58.332  -2.002  29.341  0.00  0.00     0.104 A 
ATOM      7  N   UNL d   1      59.986  -0.700  29.623  0.00  0.00    -0.227 NA
ATOM      8  C   UNL d   1      59.261   0.459  30.013  0.00  0.00     0.058 A 
ATOM      9  C   UNL d   1      59.970   0.097  29.861  0.00  0.00     0.086 A 
ATOM     10  C   UNL d   1      57.945  -2.710  29.155  0.00  0.00     0.023 C 
ATOM     11  C   UNL d   1      60.685   0.530  29.944  0.00  0.00     0.021 C 
ENDROOT
BRANCH   5  12
ATOM     12  N   UNL d   1      57.827   0.406  30.089  0.00  0.00    -0.225 NA
BRANCH  12  13
ATOM     13  C   UNL d   1      57.666   0.682  30.844  0.00  0.00     0.102 C 
BRANCH  13  14
ATOM     14  C   UNL d   1      56.937   0.512  31.197  0.00  0.00     0.040 C 
BRANCH  14  15
ATOM     15  C   UNL d   1      56.821   0.652  32.001  0.00  0.00     0.083 C 
BRANCH  15  16
ATOM     16  N   UNL d   1      56.276   0.205  32.426  0.00  0.00    -0.285 N 
ATOM     17  C   UNL d   1      56.228  -0.602  32.599  0.00  0.00     0.183 A 
ATOM     18  N   UNL d   1      55.558  -0.727  33.046  0.00  0.00    -0.222 NA
ATOM     19  C   UNL d   1      55.183  -0.014  33.158  0.00  0.00     0.120 A 
ATOM     20  C   UNL d   1      55.626   0.569  32.773  0.00  0.00     0.102 A 
ENDBRANCH  15  16
ENDBRANCH  14  15
ENDBRANCH  13  14
ENDBRANCH  12  13
ENDBRANCH   5  12
BRANCH   4  21
ATOM     21  C   UNL d   1      59.631  -2.515  29.105  0.00  0.00     0.004 A 
ATOM     22  C   UNL d   1      59.409  -3.296  29.246  0.00  0.00     0.001 A 
ATOM     23  C   UNL d   1      59.906  -3.917  29.032  0.00  0.00     0.011 A 
ATOM     24  C   UNL d   1      60.630  -3.751  28.673  0.00  0.00     0.058 A 
ATOM     25  C   UNL d   1      60.853  -2.966  28.531  0.00  0.00     0.011 A 
ATOM     26 CL   UNL d   1      61.133  -4.386  28.456  0.00  0.00    -0.082 Cl
ATOM     27  C   UNL d   1      60.355  -2.348  28.747  0.00  0.00     0.001 A 
ENDBRANCH   4  21
TORSDOF 6
ENDMDL
MODEL 2
REMARK VINA RESULT:      -0.6      8.013      9.108
REMARK  6 active torsions:
REMARK  status: ('A' for Active; 'I' for Inactive)
REMARK    1  A    between atoms: C_12  and  C_4 
REMARK    2  A    between atoms: N_16  and  C_5 
REMARK    3  A    between atoms: N_11  and  C_24 
REMARK    4  A    between atoms: C_27  and  N_16 
REMARK    5  A    between atoms: C_24  and  C_25 
REMARK    6  A    between atoms: C_25  and  C_27 
ROOT
ATOM      1  N   UNL d   1      60.178  -9.587  33.466  0.00  0.00    -0.195 N 
ATOM      2  C   UNL d   1      59.517  -9.657  32.972  0.00  0.00     0.167 A 
ATOM      3  N   UNL d   1      60.836  -9.521  32.987  0.00  0.00    -0.163 NA
ATOM      4  C   UNL d   1      59.783  -9.633  32.200  0.00  0.00     0.055 A 
ATOM      5  C   UNL d   1      60.081  -9.593  34.279  0.00  0.00     0.167 A 
ATOM      6  C   UNL d   1      60.582  -9.551  32.207  0.00  0.00     0.104 A 
ATOM      7  N   UNL d   1      58.770  -9.733  33.300  0.00  0.00    -0.227 NA
ATOM      8  C   UNL d   1      59.321  -9.670  34.609  0.00  0.00     0.058 A 
ATOM      9  C   UNL d   1      58.675  -9.739  34.127  0.00  0.00     0.086 A 
ATOM     10  C   UNL d   1      61.063  -9.504  31.534  0.00  0.00     0.023 C 
ATOM     11  C   UNL d   1      57.909  -9.817  34.465  0.00  0.00     0.021 C 
ENDROOT
BRANCH   5  12
ATOM     12  N   UNL d   1      60.742  -9.522  34.773  0.00  0.00    -0.225 NA
BRANCH  12  13
ATOM     13  C   UNL d   1      60.665  -9.163  35.506  0.00  0.00     0.102 C 
BRANCH  13  14
ATOM     14  C   UNL d   1      60.930  -8.386  35.613  0.00  0.00     0.040 C 
BRANCH  14  15
ATOM     15  C   UNL d   1      60.728  -7.967  36.293  0.00  0.00     0.083 C 
BRANCH  15  16
ATOM     16  N   UNL d   1      60.495  -7.179  36.243  0.00  0.00    -0.285 N 
ATOM     17  C   UNL d   1      59.754  -6.818  36.184  0.00  0.00     0.183 A 
ATOM     18  N   UNL d   1      59.866  -6.011  36.152  0.00  0.00    -0.222 NA
ATOM     19  C   UNL d   1      60.664  -5.857  36.189  0.00  0.00     0.120 A 
ATOM     20  C   UNL d   1      61.060  -6.582  36.245  0.00  0.00     0.102 A 
ENDBRANCH  15  16
ENDBRANCH  14  15
ENDBRANCH  13  14
ENDBRANCH  12  13
ENDBRANCH   5  12
BRANCH   4  21
ATOM     21  C   UNL d   1      59.375  -9.679  31.478  0.00  0.00     0.004 A 
ATOM     22  C   UNL d   1      58.551  -9.715  31.467  0.00  0.00     0.001 A 
ATOM     23  C   UNL d   1      58.144  -9.760  30.753  0.00  0.00     0.011 A 
ATOM     24  C   UNL d   1      58.568  -9.769  30.045  0.00  0.00     0.058 A 
ATOM     25  C   UNL d   1      59.396  -9.732  30.056  0.00  0.00     0.011 A 
ATOM     26 CL   UNL d   1      58.150  -9.815  29.319  0.00  0.00    -0.082 Cl
ATOM     27  C   UNL d   1      59.799  -9.687  30.771  0.00  0.00     0.001 A 
ENDBRANCH   4  21
TORSDOF 6
ENDMDL
