MODEL 1
REMARK VINA RESULT:      -8.0      0.000      0.000
REMARK  11 active torsions:
REMARK  status: ('A' for Active; 'I' for Inactive)
REMARK    1  A    between atoms: C_7  and  C_1 
REMARK    2  A    between atoms: C_8  and  C_2 
REMARK    3  A    between atoms: S_9  and  C_3 
REMARK    4  A    between atoms: C_11  and  C_4 
REMARK    5  A    between atoms: O_20  and  C_7 
REMARK    6  A    between atoms: C_15  and  S_9 
REMARK    7  A    between atoms: C_12  and  C_15 
REMARK    8  A    between atoms: O_24  and  C_12 
REMARK    9  A    between atoms: C_18  and  C_26 
REMARK   10  A    between atoms: C_26  and  O_20 
REMARK   11  A    between atoms: C_27  and  O_24 
ROOT
ATOM      1  C   UNL d   1      52.877  32.326  53.381  0.00  0.00     0.081 A 
ATOM      2  C   UNL d   1      52.467  33.691  53.554  0.00  0.00     0.045 A 
ATOM      3  C   UNL d   1      51.770  33.529  53.093  0.00  0.00     0.112 A 
ATOM      4  C   UNL d   1      53.008  33.081  53.688  0.00  0.00     0.010 A 
ATOM      5  C   UNL d   1      52.199  32.169  52.932  0.00  0.00     0.087 A 
ATOM      6  N   UNL d   1      51.656  32.768  52.794  0.00  0.00    -0.239 NA
ATOM      7  C   UNL d   1      52.046  31.421  52.614  0.00  0.00     0.021 C 
ENDROOT
BRANCH   3   8
ATOM      8  S   UNL d   1      51.181  34.122  52.926  0.00  0.00    -0.062 SA
BRANCH   8   9
ATOM      9  C   UNL d   1      50.441  33.877  52.676  0.00  0.00     0.105 C 
BRANCH   9  10
ATOM     10  C   UNL d   1      49.883  34.450  52.456  0.00  0.00     0.307 C 
ATOM     11  O   UNL d   1      49.573  34.958  53.018  0.00  0.00    -0.258 OA
BRANCH  10  12
ATOM     12  O   UNL d   1      49.648  34.502  51.679  0.00  0.00    -0.271 OA
BRANCH  12  13
ATOM     13  C   UNL d   1      48.870  34.702  51.502  0.00  0.00     0.126 C 
ATOM     14  C   UNL d   1      48.605  34.647  50.727  0.00  0.00     0.029 C 
ENDBRANCH  12  13
ENDBRANCH  10  12
ENDBRANCH   9  10
ENDBRANCH   8   9
ENDBRANCH   3   8
BRANCH   2  15
ATOM     15  C   UNL d   1      52.624  34.456  53.880  0.00  0.00     0.124 C 
ATOM     16  N   UNL d   1      52.659  35.105  53.390  0.00  0.00    -0.146 N 
ENDBRANCH   2  15
BRANCH   4  17
ATOM     17  C   UNL d   1      53.682  33.237  54.134  0.00  0.00     0.000 A 
ATOM     18  C   UNL d   1      53.630  33.219  54.959  0.00  0.00     0.000 A 
ATOM     19  C   UNL d   1      54.285  33.370  55.425  0.00  0.00     0.000 A 
ATOM     20  C   UNL d   1      55.044  33.552  55.035  0.00  0.00     0.000 A 
ATOM     21  C   UNL d   1      55.077  33.565  54.211  0.00  0.00     0.000 A 
ATOM     22  C   UNL d   1      55.724  33.709  55.472  0.00  0.00     0.000 C 
ATOM     23  C   UNL d   1      54.399  33.408  53.762  0.00  0.00     0.000 A 
ENDBRANCH   4  17
BRANCH   1  24
ATOM     24  C   UNL d   1      53.449  31.712  53.532  0.00  0.00     0.302 C 
ATOM     25  O   UNL d   1      54.157  31.687  53.113  0.00  0.00    -0.259 OA
BRANCH  24  26
ATOM     26  O   UNL d   1      53.280  31.151  54.100  0.00  0.00    -0.271 OA
BRANCH  26  27
ATOM     27  C   UNL d   1      53.532  30.367  54.008  0.00  0.00     0.126 C 
BRANCH  27  28
ATOM     28  C   UNL d   1      53.306  29.791  54.547  0.00  0.00     0.027 C 
ATOM     29  C   UNL d   1      53.591  29.022  54.481  0.00  0.00     0.002 C 
ENDBRANCH  27  28
ENDBRANCH  26  27
ENDBRANCH  24  26
ENDBRANCH   1  24
TORSDOF 11
ENDMDL
MODEL 2
REMARK VINA RESULT:      -6.5      1.056      2.752
REMARK  11 active torsions:
REMARK  status: ('A' for Active; 'I' for Inactive)
REMARK    1  A    between atoms: C_7  and  C_1 
REMARK    2  A    between atoms: C_8  and  C_2 
REMARK    3  A    between atoms: S_9  and  C_3 
REMARK    4  A    between atoms: C_11  and  C_4 
REMARK    5  A    between atoms: O_20  and  C_7 
REMARK    6  A    between atoms: C_15  and  S_9 
REMARK    7  A    between atoms: C_12  and  C_15 
REMARK    8  A    between atoms: O_24  and  C_12 
REMARK    9  A    between atoms: C_18  and  C_26 
REMARK   10  A    between atoms: C_26  and  O_20 
REMARK   11  A    between atoms: C_27  and  O_24 
ROOT
ATOM      1  C   UNL d   1      52.905  33.547  53.392  0.00  0.00     0.081 A 
ATOM      2  C   UNL d   1      51.609  33.011  53.091  0.00  0.00     0.045 A 
ATOM      3  C   UNL d   1      51.306  33.804  53.033  0.00  0.00     0.112 A 
ATOM      4  C   UNL d   1      52.408  32.900  53.271  0.00  0.00     0.010 A 
ATOM      5  C   UNL d   1      52.610  34.319  53.336  0.00  0.00     0.087 A 
ATOM      6  N   UNL d   1      51.819  34.439  53.158  0.00  0.00    -0.239 NA
ATOM      7  C   UNL d   1      53.090  34.983  53.453  0.00  0.00     0.021 C 
ENDROOT
BRANCH   3   8
ATOM      8  S   UNL d   1      50.490  33.973  52.850  0.00  0.00    -0.062 SA
BRANCH   8   9
ATOM      9  C   UNL d   1      50.253  34.756  52.810  0.00  0.00     0.105 C 
BRANCH   9  10
ATOM     10  C   UNL d   1      49.460  34.926  52.641  0.00  0.00     0.307 C 
ATOM     11  O   UNL d   1      49.146  34.734  51.909  0.00  0.00    -0.258 OA
BRANCH  10  12
ATOM     12  O   UNL d   1      48.997  35.283  53.206  0.00  0.00    -0.271 OA
BRANCH  12  13
ATOM     13  C   UNL d   1      48.397  35.797  52.976  0.00  0.00     0.126 C 
ATOM     14  C   UNL d   1      47.969  36.199  53.549  0.00  0.00     0.029 C 
ENDBRANCH  12  13
ENDBRANCH  10  12
ENDBRANCH   9  10
ENDBRANCH   8   9
ENDBRANCH   3   8
BRANCH   2  15
ATOM     15  C   UNL d   1      51.118  32.331  52.971  0.00  0.00     0.124 C 
ATOM     16  N   UNL d   1      50.414  32.264  53.373  0.00  0.00    -0.146 N 
ENDBRANCH   2  15
BRANCH   4  17
ATOM     17  C   UNL d   1      52.701  32.134  53.327  0.00  0.00     0.000 A 
ATOM     18  C   UNL d   1      52.953  31.749  52.640  0.00  0.00     0.000 A 
ATOM     19  C   UNL d   1      53.249  30.987  52.668  0.00  0.00     0.000 A 
ATOM     20  C   UNL d   1      53.294  30.584  53.441  0.00  0.00     0.000 A 
ATOM     21  C   UNL d   1      53.038  30.983  54.116  0.00  0.00     0.000 A 
ATOM     22  C   UNL d   1      53.586  29.817  53.508  0.00  0.00     0.000 C 
ATOM     23  C   UNL d   1      52.742  31.755  54.060  0.00  0.00     0.000 A 
ENDBRANCH   4  17
BRANCH   1  24
ATOM     24  C   UNL d   1      53.726  33.409  53.577  0.00  0.00     0.302 C 
ATOM     25  O   UNL d   1      54.264  33.225  52.982  0.00  0.00    -0.259 OA
BRANCH  24  26
ATOM     26  O   UNL d   1      53.967  33.463  54.354  0.00  0.00    -0.271 OA
BRANCH  26  27
ATOM     27  C   UNL d   1      54.756  33.633  54.543  0.00  0.00     0.126 C 
BRANCH  27  28
ATOM     28  C   UNL d   1      55.016  33.598  55.320  0.00  0.00     0.027 C 
ATOM     29  C   UNL d   1      55.684  34.016  55.557  0.00  0.00     0.002 C 
ENDBRANCH  27  28
ENDBRANCH  26  27
ENDBRANCH  24  26
ENDBRANCH   1  24
TORSDOF 11
ENDMDL
MODEL 3
REMARK VINA RESULT:      -6.2      1.443      4.327
REMARK  11 active torsions:
REMARK  status: ('A' for Active; 'I' for Inactive)
REMARK    1  A    between atoms: C_7  and  C_1 
REMARK    2  A    between atoms: C_8  and  C_2 
REMARK    3  A    between atoms: S_9  and  C_3 
REMARK    4  A    between atoms: C_11  and  C_4 
REMARK    5  A    between atoms: O_20  and  C_7 
REMARK    6  A    between atoms: C_15  and  S_9 
REMARK    7  A    between atoms: C_12  and  C_15 
REMARK    8  A    between atoms: O_24  and  C_12 
REMARK    9  A    between atoms: C_18  and  C_26 
REMARK   10  A    between atoms: C_26  and  O_20 
REMARK   11  A    between atoms: C_27  and  O_24 
ROOT
ATOM      1  C   UNL d   1      52.057  33.482  53.026  0.00  0.00     0.081 A 
ATOM      2  C   UNL d   1      53.184  32.932  53.724  0.00  0.00     0.045 A 
ATOM      3  C   UNL d   1      53.004  32.169  53.394  0.00  0.00     0.112 A 
ATOM      4  C   UNL d   1      52.703  33.575  53.531  0.00  0.00     0.010 A 
ATOM      5  C   UNL d   1      51.882  32.739  52.704  0.00  0.00     0.087 A 
ATOM      6  N   UNL d   1      52.354  32.095  52.890  0.00  0.00    -0.239 NA
ATOM      7  C   UNL d   1      51.240  32.620  52.196  0.00  0.00     0.021 C 
ENDROOT
BRANCH   3   8
ATOM      8  S   UNL d   1      53.468  31.473  53.560  0.00  0.00    -0.062 SA
BRANCH   8   9
ATOM      9  C   UNL d   1      53.127  30.738  53.439  0.00  0.00     0.105 C 
BRANCH   9  10
ATOM     10  C   UNL d   1      53.535  30.062  53.692  0.00  0.00     0.307 C 
ATOM     11  O   UNL d   1      54.169  29.779  53.258  0.00  0.00    -0.258 OA
BRANCH  10  12
ATOM     12  O   UNL d   1      53.300  29.683  54.372  0.00  0.00    -0.271 OA
BRANCH  12  13
ATOM     13  C   UNL d   1      53.419  28.874  54.449  0.00  0.00     0.126 C 
ATOM     14  C   UNL d   1      53.329  28.521  55.185  0.00  0.00     0.029 C 
ENDBRANCH  12  13
ENDBRANCH  10  12
ENDBRANCH   9  10
ENDBRANCH   8   9
ENDBRANCH   3   8
BRANCH   2  15
ATOM     15  C   UNL d   1      53.841  33.053  54.245  0.00  0.00     0.124 C 
ATOM     16  N   UNL d   1      54.587  32.827  54.014  0.00  0.00    -0.146 N 
ENDBRANCH   2  15
BRANCH   4  17
ATOM     17  C   UNL d   1      52.877  34.313  53.851  0.00  0.00     0.000 A 
ATOM     18  C   UNL d   1      52.649  34.477  54.629  0.00  0.00     0.000 A 
ATOM     19  C   UNL d   1      52.810  35.203  54.970  0.00  0.00     0.000 A 
ATOM     20  C   UNL d   1      53.229  35.805  54.497  0.00  0.00     0.000 A 
ATOM     21  C   UNL d   1      53.449  35.623  53.723  0.00  0.00     0.000 A 
ATOM     22  C   UNL d   1      53.408  36.546  54.808  0.00  0.00     0.000 C 
ATOM     23  C   UNL d   1      53.274  34.881  53.401  0.00  0.00     0.000 A 
ENDBRANCH   4  17
BRANCH   1  24
ATOM     24  C   UNL d   1      51.575  34.160  52.841  0.00  0.00     0.302 C 
ATOM     25  O   UNL d   1      51.827  34.716  52.289  0.00  0.00    -0.259 OA
BRANCH  24  26
ATOM     26  O   UNL d   1      50.858  34.246  53.222  0.00  0.00    -0.271 OA
BRANCH  26  27
ATOM     27  C   UNL d   1      50.225  34.632  52.851  0.00  0.00     0.126 C 
BRANCH  27  28
ATOM     28  C   UNL d   1      49.580  34.888  53.288  0.00  0.00     0.027 C 
ATOM     29  C   UNL d   1      48.969  35.304  52.927  0.00  0.00     0.002 C 
ENDBRANCH  27  28
ENDBRANCH  26  27
ENDBRANCH  24  26
ENDBRANCH   1  24
TORSDOF 11
ENDMDL
MODEL 4
REMARK VINA RESULT:      -6.1      1.698      4.825
REMARK  11 active torsions:
REMARK  status: ('A' for Active; 'I' for Inactive)
REMARK    1  A    between atoms: C_7  and  C_1 
REMARK    2  A    between atoms: C_8  and  C_2 
REMARK    3  A    between atoms: S_9  and  C_3 
REMARK    4  A    between atoms: C_11  and  C_4 
REMARK    5  A    between atoms: O_20  and  C_7 
REMARK    6  A    between atoms: C_15  and  S_9 
REMARK    7  A    between atoms: C_12  and  C_15 
REMARK    8  A    between atoms: O_24  and  C_12 
REMARK    9  A    between atoms: C_18  and  C_26 
REMARK   10  A    between atoms: C_26  and  O_20 
REMARK   11  A    between atoms: C_27  and  O_24 
ROOT
ATOM      1  C   UNL d   1      52.853  33.436  53.297  0.00  0.00     0.081 A 
ATOM      2  C   UNL d   1      52.059  32.268  53.041  0.00  0.00     0.045 A 
ATOM      3  C   UNL d   1      52.734  31.782  53.222  0.00  0.00     0.112 A 
ATOM      4  C   UNL d   1      52.135  33.090  53.083  0.00  0.00     0.010 A 
ATOM      5  C   UNL d   1      53.509  32.963  53.473  0.00  0.00     0.087 A 
ATOM      6  N   UNL d   1      53.444  32.147  53.434  0.00  0.00    -0.239 NA
ATOM      7  C   UNL d   1      54.239  33.287  53.690  0.00  0.00     0.021 C 
ENDROOT
BRANCH   3   8
ATOM      8  S   UNL d   1      52.710  30.931  53.193  0.00  0.00    -0.062 SA
BRANCH   8   9
ATOM      9  C   UNL d   1      53.351  30.511  53.483  0.00  0.00     0.105 C 
BRANCH   9  10
ATOM     10  C   UNL d   1      53.249  29.715  53.689  0.00  0.00     0.307 C 
ATOM     11  O   UNL d   1      53.025  29.170  53.122  0.00  0.00    -0.258 OA
BRANCH  10  12
ATOM     12  O   UNL d   1      53.372  29.481  54.459  0.00  0.00    -0.271 OA
BRANCH  12  13
ATOM     13  C   UNL d   1      53.397  28.680  54.641  0.00  0.00     0.126 C 
ATOM     14  C   UNL d   1      53.495  28.447  55.422  0.00  0.00     0.029 C 
ENDBRANCH  12  13
ENDBRANCH  10  12
ENDBRANCH   9  10
ENDBRANCH   8   9
ENDBRANCH   3   8
BRANCH   2  15
ATOM     15  C   UNL d   1      51.313  31.936  52.819  0.00  0.00     0.124 C 
ATOM     16  N   UNL d   1      50.974  31.357  53.280  0.00  0.00    -0.146 N 
ENDBRANCH   2  15
BRANCH   4  17
ATOM     17  C   UNL d   1      51.482  33.559  52.909  0.00  0.00     0.000 A 
ATOM     18  C   UNL d   1      51.393  33.853  52.141  0.00  0.00     0.000 A 
ATOM     19  C   UNL d   1      50.754  34.321  51.941  0.00  0.00     0.000 A 
ATOM     20  C   UNL d   1      50.163  34.509  52.556  0.00  0.00     0.000 A 
ATOM     21  C   UNL d   1      50.268  34.207  53.317  0.00  0.00     0.000 A 
ATOM     22  C   UNL d   1      49.507  34.978  52.392  0.00  0.00     0.000 C 
ATOM     23  C   UNL d   1      50.925  33.735  53.493  0.00  0.00     0.000 A 
ENDBRANCH   4  17
BRANCH   1  24
ATOM     24  C   UNL d   1      52.907  34.286  53.335  0.00  0.00     0.302 C 
ATOM     25  O   UNL d   1      53.014  34.729  52.650  0.00  0.00    -0.259 OA
BRANCH  24  26
ATOM     26  O   UNL d   1      52.851  34.650  54.062  0.00  0.00    -0.271 OA
BRANCH  26  27
ATOM     27  C   UNL d   1      53.168  35.407  54.183  0.00  0.00     0.126 C 
BRANCH  27  28
ATOM     28  C   UNL d   1      53.057  35.796  54.896  0.00  0.00     0.027 C 
ATOM     29  C   UNL d   1      53.125  36.615  54.941  0.00  0.00     0.002 C 
ENDBRANCH  27  28
ENDBRANCH  26  27
ENDBRANCH  24  26
ENDBRANCH   1  24
TORSDOF 11
ENDMDL
