MODEL 1
REMARK VINA RESULT:      77.2      0.000      0.000
REMARK  6 active torsions:
REMARK  status: ('A' for Active; 'I' for Inactive)
REMARK    1  A    between atoms: C_10  and  N_4 
REMARK    2  A    between atoms: C_12  and  C_9 
REMARK    3  A    between atoms: C_15  and  C_10 
REMARK    4  A    between atoms: C_17  and  N_11 
REMARK    5  A    between atoms: N_13  and  C_12 
REMARK    6  A    between atoms: O_30  and  C_27 
ROOT
ATOM      1  C   UNL d   1      43.816 -15.921  37.543  0.00  0.00     0.157 A 
ATOM      2  C   UNL d   1      43.520 -16.290  38.216  0.00  0.00     0.174 A 
ATOM      3  N   UNL d   1      42.703 -16.294  38.355  0.00  0.00    -0.240 N 
ATOM      4  N   UNL d   1      44.637 -15.999  37.545  0.00  0.00    -0.283 N 
ATOM      5  N   UNL d   1      42.496 -15.563  37.150  0.00  0.00    -0.223 N 
ATOM      6  C   UNL d   1      42.194 -15.933  37.825  0.00  0.00     0.343 A 
ATOM      7  C   UNL d   1      43.310 -15.550  36.998  0.00  0.00     0.287 A 
ATOM      8  N   UNL d   1      44.157 -16.600  38.638  0.00  0.00    -0.207 NA
ATOM      9  C   UNL d   1      44.847 -16.419  38.222  0.00  0.00     0.167 A 
ATOM     10  O   UNL d   1      41.377 -15.938  37.965  0.00  0.00    -0.245 OA
ATOM     11  O   UNL d   1      43.608 -15.184  36.330  0.00  0.00    -0.265 OA
ATOM     12  C   UNL d   1      42.402 -16.665  39.030  0.00  0.00     0.105 C 
ATOM     13  C   UNL d   1      41.980 -15.197  36.614  0.00  0.00     0.107 C 
ENDROOT
BRANCH   9  14
ATOM     14  C   UNL d   1      45.616 -16.626  38.447  0.00  0.00     0.118 C 
BRANCH  14  15
ATOM     15  N   UNL d   1      45.737 -17.097  39.105  0.00  0.00    -0.297 N 
ATOM     16  C   UNL d   1      46.448 -17.506  39.203  0.00  0.00     0.100 A 
ATOM     17  C   UNL d   1      46.579 -17.984  39.865  0.00  0.00     0.100 A 
ATOM     18  N   UNL d   1      45.985 -18.055  40.442  0.00  0.00    -0.301 N 
ATOM     19  C   UNL d   1      45.268 -17.646  40.349  0.00  0.00     0.100 A 
ATOM     20  C   UNL d   1      45.149 -17.169  39.681  0.00  0.00     0.100 A 
BRANCH  18  21
ATOM     21  C   UNL d   1      46.111 -18.531  41.104  0.00  0.00     0.064 A 
ATOM     22  C   UNL d   1      46.281 -18.184  41.825  0.00  0.00     0.020 A 
ATOM     23  C   UNL d   1      46.409 -18.660  42.494  0.00  0.00     0.026 A 
ATOM     24  C   UNL d   1      46.363 -19.483  42.427  0.00  0.00     0.094 A 
ATOM     25  C   UNL d   1      46.190 -19.825  41.691  0.00  0.00     0.026 A 
ATOM     26  C   UNL d   1      46.064 -19.349  41.029  0.00  0.00     0.020 A 
BRANCH  24  27
ATOM     27  O   UNL d   1      46.487 -19.967  43.080  0.00  0.00    -0.328 OA
ATOM     28  C   UNL d   1      45.839 -20.330  43.440  0.00  0.00     0.181 C 
ENDBRANCH  24  27
ENDBRANCH  18  21
ENDBRANCH  14  15
ENDBRANCH   9  14
BRANCH   4  29
ATOM     29  C   UNL d   1      45.156 -15.709  36.970  0.00  0.00     0.082 C 
BRANCH  29  30
ATOM     30  C   UNL d   1      45.517 -14.987  37.082  0.00  0.00     0.018 A 
ATOM     31  C   UNL d   1      46.258 -14.862  36.762  0.00  0.00     0.001 A 
ATOM     32  C   UNL d   1      46.644 -15.447  36.331  0.00  0.00     0.000 C 
ATOM     33  C   UNL d   1      46.631 -14.125  36.875  0.00  0.00     0.000 A 
ATOM     34  C   UNL d   1      46.256 -13.529  37.305  0.00  0.00     0.000 A 
ATOM     35  C   UNL d   1      45.512 -13.661  37.624  0.00  0.00     0.000 A 
ATOM     36  C   UNL d   1      45.140 -14.388  37.514  0.00  0.00     0.002 A 
ENDBRANCH  29  30
ENDBRANCH   4  29
TORSDOF 6
ENDMDL
