MODEL 1
REMARK VINA RESULT:      -4.9      0.000      0.000
REMARK  7 active torsions:
REMARK  status: ('A' for Active; 'I' for Inactive)
REMARK    1  A    between atoms: C_6  and  C_1 
REMARK    2  A    between atoms: O_8  and  C_6 
REMARK    3  A    between atoms: C_13  and  O_8 
REMARK    4  A    between atoms: C_9  and  C_13 
REMARK    5  A    between atoms: C_15  and  C_9 
REMARK    6  A    between atoms: C_19  and  C_11 
REMARK    7  A    between atoms: C_16  and  C_19 
ROOT
ATOM      1  C   UNL d   1      58.380  -0.181  30.066  0.00  0.00     0.127 A 
ATOM      2  C   UNL d   1      58.430  -1.027  29.934  0.00  0.00     0.305 A 
ATOM      3  O   UNL d   1      59.051  -1.353  29.522  0.00  0.00    -0.273 OA
ATOM      4  C   UNL d   1      58.954   0.281  29.775  0.00  0.00     0.013 A 
ATOM      5  C   UNL d   1      59.635  -0.846  29.231  0.00  0.00     0.103 A 
ATOM      6  C   UNL d   1      59.587  -0.032  29.357  0.00  0.00     0.023 A 
ATOM      7  O   UNL d   1      57.834  -1.583  30.227  0.00  0.00    -0.259 OA
ATOM      8  C   UNL d   1      60.260  -1.172  28.816  0.00  0.00     0.023 A 
ATOM      9  C   UNL d   1      60.164   0.462  29.069  0.00  0.00     0.002 A 
ATOM     10  C   UNL d   1      60.782   0.178  28.663  0.00  0.00     0.000 A 
ATOM     11  C   UNL d   1      60.832  -0.667  28.532  0.00  0.00     0.002 A 
ENDROOT
BRANCH   1  12
ATOM     12  C   UNL d   1      57.758   0.182  30.484  0.00  0.00     0.305 C 
ATOM     13  O   UNL d   1      57.139   0.561  30.068  0.00  0.00    -0.259 OA
BRANCH  12  14
ATOM     14  O   UNL d   1      57.745   0.172  31.343  0.00  0.00    -0.268 OA
BRANCH  14  15
ATOM     15  C   UNL d   1      57.058   0.411  31.696  0.00  0.00     0.168 C 
BRANCH  15  16
ATOM     16  C   UNL d   1      57.006   0.374  32.519  0.00  0.00     0.220 C 
ATOM     17  O   UNL d   1      57.655   0.583  32.978  0.00  0.00    -0.284 OA
BRANCH  16  18
ATOM     18  C   UNL d   1      56.305   0.127  32.901  0.00  0.00     0.041 A 
ATOM     19  C   UNL d   1      55.802   0.681  33.219  0.00  0.00     0.003 A 
ATOM     20  C   UNL d   1      55.110   0.433  33.596  0.00  0.00     0.000 A 
ATOM     21  C   UNL d   1      54.923  -0.397  33.651  0.00  0.00     0.000 A 
ATOM     22  C   UNL d   1      55.448  -0.942  33.322  0.00  0.00     0.000 A 
ATOM     23  C   UNL d   1      56.140  -0.676  32.946  0.00  0.00     0.003 A 
ENDBRANCH  16  18
ENDBRANCH  15  16
ENDBRANCH  14  15
ENDBRANCH  12  14
ENDBRANCH   1  12
BRANCH   8  24
ATOM     24  C   UNL d   1      60.331  -1.982  28.676  0.00  0.00     0.002 C 
BRANCH  24  25
ATOM     25  C   UNL d   1      61.062  -2.326  28.726  0.00  0.00     0.000 C 
ATOM     26  C   UNL d   1      61.123  -3.178  28.794  0.00  0.00     0.000 C 
ENDBRANCH  24  25
ENDBRANCH   8  24
TORSDOF 7
ENDMDL
MODEL 2
REMARK VINA RESULT:      -3.4      1.218      5.280
REMARK  7 active torsions:
REMARK  status: ('A' for Active; 'I' for Inactive)
REMARK    1  A    between atoms: C_6  and  C_1 
REMARK    2  A    between atoms: O_8  and  C_6 
REMARK    3  A    between atoms: C_13  and  O_8 
REMARK    4  A    between atoms: C_9  and  C_13 
REMARK    5  A    between atoms: C_15  and  C_9 
REMARK    6  A    between atoms: C_19  and  C_11 
REMARK    7  A    between atoms: C_16  and  C_19 
ROOT
ATOM      1  C   UNL d   1      57.783  -0.391  30.805  0.00  0.00     0.127 A 
ATOM      2  C   UNL d   1      58.128   0.212  31.307  0.00  0.00     0.305 A 
ATOM      3  O   UNL d   1      57.819   0.376  32.042  0.00  0.00    -0.273 OA
ATOM      4  C   UNL d   1      57.153  -0.790  31.072  0.00  0.00     0.013 A 
ATOM      5  C   UNL d   1      57.161  -0.057  32.294  0.00  0.00     0.103 A 
ATOM      6  C   UNL d   1      56.830  -0.637  31.810  0.00  0.00     0.023 A 
ATOM      7  O   UNL d   1      58.816   0.682  31.072  0.00  0.00    -0.259 OA
ATOM      8  C   UNL d   1      56.849   0.105  33.032  0.00  0.00     0.023 A 
ATOM      9  C   UNL d   1      56.183  -1.060  32.062  0.00  0.00     0.002 A 
ATOM     10  C   UNL d   1      55.857  -0.927  32.771  0.00  0.00     0.000 A 
ATOM     11  C   UNL d   1      56.201  -0.324  33.273  0.00  0.00     0.002 A 
ENDROOT
BRANCH   1  12
ATOM     12  C   UNL d   1      58.077  -0.581  30.048  0.00  0.00     0.305 C 
ATOM     13  O   UNL d   1      57.768  -0.198  29.372  0.00  0.00    -0.259 OA
BRANCH  12  14
ATOM     14  O   UNL d   1      58.696  -1.168  29.956  0.00  0.00    -0.268 OA
BRANCH  14  15
ATOM     15  C   UNL d   1      58.777  -1.494  29.220  0.00  0.00     0.168 C 
BRANCH  15  16
ATOM     16  C   UNL d   1      59.494  -1.855  29.028  0.00  0.00     0.220 C 
ATOM     17  O   UNL d   1      60.182  -1.407  29.001  0.00  0.00    -0.284 OA
BRANCH  16  18
ATOM     18  C   UNL d   1      59.539  -2.672  28.857  0.00  0.00     0.041 A 
ATOM     19  C   UNL d   1      58.869  -3.075  28.633  0.00  0.00     0.003 A 
ATOM     20  C   UNL d   1      58.919  -3.883  28.466  0.00  0.00     0.000 A 
ATOM     21  C   UNL d   1      59.665  -4.291  28.527  0.00  0.00     0.000 A 
ATOM     22  C   UNL d   1      60.331  -3.863  28.756  0.00  0.00     0.000 A 
ATOM     23  C   UNL d   1      60.265  -3.050  28.921  0.00  0.00     0.003 A 
ENDBRANCH  16  18
ENDBRANCH  15  16
ENDBRANCH  14  15
ENDBRANCH  12  14
ENDBRANCH   1  12
BRANCH   8  24
ATOM     24  C   UNL d   1      57.162   0.681  33.534  0.00  0.00     0.002 C 
BRANCH  24  25
ATOM     25  C   UNL d   1      57.101   0.578  34.335  0.00  0.00     0.000 C 
ATOM     26  C   UNL d   1      57.806   0.621  34.820  0.00  0.00     0.000 C 
ENDBRANCH  24  25
ENDBRANCH   8  24
TORSDOF 7
ENDMDL
