MODEL 1
REMARK VINA RESULT:      -6.9      0.000      0.000
REMARK  3 active torsions:
REMARK  status: ('A' for Active; 'I' for Inactive)
REMARK    1  A    between atoms: N_4  and  C_1 
REMARK    2  A    between atoms: C_9  and  C_3 
REMARK    3  A    between atoms: C_7  and  N_4 
ROOT
ATOM      1  C   UNL d   1     -47.881  14.388  22.934  0.00  0.00     0.196 A 
ATOM      2  N   UNL d   1     -47.768  13.597  23.218  0.00  0.00    -0.221 NA
ATOM      3  C   UNL d   1     -47.022  13.399  23.019  0.00  0.00     0.090 A 
ATOM      4  S   UNL d   1     -47.216  14.655  22.573  0.00  0.00    -0.046 SA
ATOM      5  C   UNL d   1     -46.657  14.034  22.619  0.00  0.00     0.058 A 
ENDROOT
BRANCH   1   6
ATOM      6  N   UNL d   1     -48.591  14.880  22.997  0.00  0.00    -0.202 NA
BRANCH   6   7
ATOM      7  C   UNL d   1     -49.334  14.565  22.779  0.00  0.00     0.165 A 
ATOM      8  N   UNL d   1     -49.789  14.409  23.461  0.00  0.00    -0.225 NA
ATOM      9  C   UNL d   1     -50.570  14.088  23.482  0.00  0.00     0.101 A 
ATOM     10  C   UNL d   1     -51.054  13.862  22.874  0.00  0.00     0.021 A 
ATOM     11  C   UNL d   1     -50.892  13.890  22.053  0.00  0.00     0.002 A 
ATOM     12  C   UNL d   1     -50.225  14.147  21.660  0.00  0.00     0.003 A 
ATOM     13  C   UNL d   1     -49.514  14.454  21.993  0.00  0.00     0.039 A 
ENDBRANCH   6   7
ENDBRANCH   1   6
BRANCH   3  14
ATOM     14  C   UNL d   1     -46.636  12.691  23.166  0.00  0.00     0.018 A 
ATOM     15  C   UNL d   1     -47.035  12.087  23.547  0.00  0.00     0.002 A 
ATOM     16  C   UNL d   1     -46.657  11.377  23.698  0.00  0.00     0.007 A 
ATOM     17  C   UNL d   1     -45.858  11.259  23.465  0.00  0.00     0.035 A 
ATOM     18  C   UNL d   1     -45.455  11.874  23.077  0.00  0.00     0.007 A 
ATOM     19 BR   UNL d   1     -45.435  10.562  23.595  0.00  0.00    -0.049 Br
ATOM     20  C   UNL d   1     -45.841  12.583  22.930  0.00  0.00     0.002 A 
ENDBRANCH   3  14
TORSDOF 3
ENDMDL
MODEL 2
REMARK VINA RESULT:      -6.9      2.213      4.459
REMARK  3 active torsions:
REMARK  status: ('A' for Active; 'I' for Inactive)
REMARK    1  A    between atoms: N_4  and  C_1 
REMARK    2  A    between atoms: C_9  and  C_3 
REMARK    3  A    between atoms: C_7  and  N_4 
ROOT
ATOM      1  C   UNL d   1     -47.117  12.186  23.482  0.00  0.00     0.196 A 
ATOM      2  N   UNL d   1     -47.614  12.725  23.056  0.00  0.00    -0.221 NA
ATOM      3  C   UNL d   1     -48.326  12.370  23.005  0.00  0.00     0.090 A 
ATOM      4  S   UNL d   1     -47.525  11.524  23.679  0.00  0.00    -0.046 SA
ATOM      5  C   UNL d   1     -48.299  11.626  23.381  0.00  0.00     0.058 A 
ENDROOT
BRANCH   1   6
ATOM      6  N   UNL d   1     -46.284  12.286  23.698  0.00  0.00    -0.202 NA
BRANCH   6   7
ATOM      7  C   UNL d   1     -45.734  12.534  23.119  0.00  0.00     0.165 A 
ATOM      8  N   UNL d   1     -45.152  11.946  23.008  0.00  0.00    -0.225 NA
ATOM      9  C   UNL d   1     -44.498  11.979  22.475  0.00  0.00     0.101 A 
ATOM     10  C   UNL d   1     -44.280  12.563  21.959  0.00  0.00     0.021 A 
ATOM     11  C   UNL d   1     -44.660  13.297  21.824  0.00  0.00     0.002 A 
ATOM     12  C   UNL d   1     -45.332  13.608  22.168  0.00  0.00     0.003 A 
ATOM     13  C   UNL d   1     -45.821  13.259  22.759  0.00  0.00     0.039 A 
ENDBRANCH   6   7
ENDBRANCH   1   6
BRANCH   3  14
ATOM     14  C   UNL d   1     -49.004  12.659  22.645  0.00  0.00     0.018 A 
ATOM     15  C   UNL d   1     -49.187  12.425  21.882  0.00  0.00     0.002 A 
ATOM     16  C   UNL d   1     -49.861  12.709  21.517  0.00  0.00     0.007 A 
ATOM     17  C   UNL d   1     -50.374  13.242  21.917  0.00  0.00     0.035 A 
ATOM     18  C   UNL d   1     -50.186  13.478  22.692  0.00  0.00     0.007 A 
ATOM     19 BR   UNL d   1     -51.064  13.554  21.591  0.00  0.00    -0.049 Br
ATOM     20  C   UNL d   1     -49.508  13.189  23.051  0.00  0.00     0.002 A 
ENDBRANCH   3  14
TORSDOF 3
ENDMDL
MODEL 3
REMARK VINA RESULT:      -6.6      1.403      1.826
REMARK  3 active torsions:
REMARK  status: ('A' for Active; 'I' for Inactive)
REMARK    1  A    between atoms: N_4  and  C_1 
REMARK    2  A    between atoms: C_9  and  C_3 
REMARK    3  A    between atoms: C_7  and  N_4 
ROOT
ATOM      1  C   UNL d   1     -49.215  12.465  23.559  0.00  0.00     0.196 A 
ATOM      2  N   UNL d   1     -48.549  12.909  23.279  0.00  0.00    -0.221 NA
ATOM      3  C   UNL d   1     -47.941  12.393  23.250  0.00  0.00     0.090 A 
ATOM      4  S   UNL d   1     -49.008  11.702  23.694  0.00  0.00    -0.046 SA
ATOM      5  C   UNL d   1     -48.197  11.640  23.501  0.00  0.00     0.058 A 
ENDROOT
BRANCH   1   6
ATOM      6  N   UNL d   1     -50.023  12.747  23.697  0.00  0.00    -0.202 NA
BRANCH   6   7
ATOM      7  C   UNL d   1     -50.332  13.363  23.224  0.00  0.00     0.165 A 
ATOM      8  N   UNL d   1     -50.265  14.092  23.624  0.00  0.00    -0.225 NA
ATOM      9  C   UNL d   1     -50.511  14.848  23.339  0.00  0.00     0.101 A 
ATOM     10  C   UNL d   1     -50.859  15.047  22.636  0.00  0.00     0.021 A 
ATOM     11  C   UNL d   1     -51.064  14.540  22.003  0.00  0.00     0.002 A 
ATOM     12  C   UNL d   1     -50.972  13.732  21.930  0.00  0.00     0.003 A 
ATOM     13  C   UNL d   1     -50.637  13.196  22.488  0.00  0.00     0.039 A 
ENDBRANCH   6   7
ENDBRANCH   1   6
BRANCH   3  14
ATOM     14  C   UNL d   1     -47.169  12.542  23.016  0.00  0.00     0.018 A 
ATOM     15  C   UNL d   1     -46.563  12.076  23.307  0.00  0.00     0.002 A 
ATOM     16  C   UNL d   1     -45.791  12.218  23.078  0.00  0.00     0.007 A 
ATOM     17  C   UNL d   1     -45.610  12.841  22.543  0.00  0.00     0.035 A 
ATOM     18  C   UNL d   1     -46.228  13.313  22.249  0.00  0.00     0.007 A 
ATOM     19 BR   UNL d   1     -44.848  13.022  22.283  0.00  0.00    -0.049 Br
ATOM     20  C   UNL d   1     -47.000  13.164  22.483  0.00  0.00     0.002 A 
ENDBRANCH   3  14
TORSDOF 3
ENDMDL
MODEL 4
REMARK VINA RESULT:      -6.5      1.879      4.336
REMARK  3 active torsions:
REMARK  status: ('A' for Active; 'I' for Inactive)
REMARK    1  A    between atoms: N_4  and  C_1 
REMARK    2  A    between atoms: C_9  and  C_3 
REMARK    3  A    between atoms: C_7  and  N_4 
ROOT
ATOM      1  C   UNL d   1     -46.756  13.661  23.130  0.00  0.00     0.196 A 
ATOM      2  N   UNL d   1     -47.593  13.680  23.263  0.00  0.00    -0.221 NA
ATOM      3  C   UNL d   1     -47.890  14.172  22.710  0.00  0.00     0.090 A 
ATOM      4  S   UNL d   1     -46.559  14.132  22.512  0.00  0.00    -0.046 SA
ATOM      5  C   UNL d   1     -47.273  14.466  22.232  0.00  0.00     0.058 A 
ENDROOT
BRANCH   1   6
ATOM      6  N   UNL d   1     -46.157  13.215  23.569  0.00  0.00    -0.202 NA
BRANCH   6   7
ATOM      7  C   UNL d   1     -46.160  12.380  23.539  0.00  0.00     0.165 A 
ATOM      8  N   UNL d   1     -45.401  12.098  23.336  0.00  0.00    -0.225 NA
ATOM      9  C   UNL d   1     -45.170  11.291  23.248  0.00  0.00     0.101 A 
ATOM     10  C   UNL d   1     -45.606  10.615  23.334  0.00  0.00     0.021 A 
ATOM     11  C   UNL d   1     -46.416  10.550  23.537  0.00  0.00     0.002 A 
ATOM     12  C   UNL d   1     -46.963  11.134  23.697  0.00  0.00     0.003 A 
ATOM     13  C   UNL d   1     -46.844  11.969  23.698  0.00  0.00     0.039 A 
ENDBRANCH   6   7
ENDBRANCH   1   6
BRANCH   3  14
ATOM     14  C   UNL d   1     -48.675  14.383  22.597  0.00  0.00     0.018 A 
ATOM     15  C   UNL d   1     -49.017  14.939  23.090  0.00  0.00     0.002 A 
ATOM     16  C   UNL d   1     -49.799  15.154  22.983  0.00  0.00     0.007 A 
ATOM     17  C   UNL d   1     -50.259  14.809  22.370  0.00  0.00     0.035 A 
ATOM     18  C   UNL d   1     -49.908  14.245  21.871  0.00  0.00     0.007 A 
ATOM     19 BR   UNL d   1     -51.050  14.994  22.223  0.00  0.00    -0.049 Br
ATOM     20  C   UNL d   1     -49.124  14.034  21.984  0.00  0.00     0.002 A 
ENDBRANCH   3  14
TORSDOF 3
ENDMDL
MODEL 5
REMARK VINA RESULT:      -6.3      8.674      9.827
REMARK  3 active torsions:
REMARK  status: ('A' for Active; 'I' for Inactive)
REMARK    1  A    between atoms: N_4  and  C_1 
REMARK    2  A    between atoms: C_9  and  C_3 
REMARK    3  A    between atoms: C_7  and  N_4 
ROOT
ATOM      1  C   UNL d   1     -40.398  14.514  18.920  0.00  0.00     0.196 A 
ATOM      2  N   UNL d   1     -39.896  14.369  19.588  0.00  0.00    -0.221 NA
ATOM      3  C   UNL d   1     -40.034  14.966  20.098  0.00  0.00     0.090 A 
ATOM      4  S   UNL d   1     -40.825  15.184  19.030  0.00  0.00    -0.046 SA
ATOM      5  C   UNL d   1     -40.604  15.485  19.778  0.00  0.00     0.058 A 
ENDROOT
BRANCH   1   6
ATOM      6  N   UNL d   1     -40.476  14.040  18.200  0.00  0.00    -0.202 NA
BRANCH   6   7
ATOM      7  C   UNL d   1     -39.839  14.001  17.660  0.00  0.00     0.165 A 
ATOM      8  N   UNL d   1     -39.436  13.275  17.745  0.00  0.00    -0.225 NA
ATOM      9  C   UNL d   1     -38.762  13.018  17.306  0.00  0.00     0.101 A 
ATOM     10  C   UNL d   1     -38.354  13.394  16.717  0.00  0.00     0.021 A 
ATOM     11  C   UNL d   1     -38.505  14.150  16.390  0.00  0.00     0.002 A 
ATOM     12  C   UNL d   1     -39.087  14.692  16.575  0.00  0.00     0.003 A 
ATOM     13  C   UNL d   1     -39.695  14.622  17.154  0.00  0.00     0.039 A 
ENDBRANCH   6   7
ENDBRANCH   1   6
BRANCH   3  14
ATOM     14  C   UNL d   1     -39.689  15.088  20.832  0.00  0.00     0.018 A 
ATOM     15  C   UNL d   1     -39.743  14.504  21.403  0.00  0.00     0.002 A 
ATOM     16  C   UNL d   1     -39.402  14.618  22.137  0.00  0.00     0.007 A 
ATOM     17  C   UNL d   1     -38.993  15.331  22.315  0.00  0.00     0.035 A 
ATOM     18  C   UNL d   1     -38.940  15.922  21.733  0.00  0.00     0.007 A 
ATOM     19 BR   UNL d   1     -38.633  15.491  23.041  0.00  0.00    -0.049 Br
ATOM     20  C   UNL d   1     -39.285  15.800  20.999  0.00  0.00     0.002 A 
ENDBRANCH   3  14
TORSDOF 3
ENDMDL
MODEL 6
REMARK VINA RESULT:      -5.7      9.010      9.758
REMARK  3 active torsions:
REMARK  status: ('A' for Active; 'I' for Inactive)
REMARK    1  A    between atoms: N_4  and  C_1 
REMARK    2  A    between atoms: C_9  and  C_3 
REMARK    3  A    between atoms: C_7  and  N_4 
ROOT
ATOM      1  C   UNL d   1     -39.410  14.039  18.826  0.00  0.00     0.196 A 
ATOM      2  N   UNL d   1     -39.639  14.511  19.493  0.00  0.00    -0.221 NA
ATOM      3  C   UNL d   1     -39.029  14.474  20.005  0.00  0.00     0.090 A 
ATOM      4  S   UNL d   1     -38.680  13.729  18.940  0.00  0.00    -0.046 SA
ATOM      5  C   UNL d   1     -38.422  13.997  19.689  0.00  0.00     0.058 A 
ENDROOT
BRANCH   1   6
ATOM      6  N   UNL d   1     -39.862  13.883  18.104  0.00  0.00    -0.202 NA
BRANCH   6   7
ATOM      7  C   UNL d   1     -40.072  14.518  17.603  0.00  0.00     0.165 A 
ATOM      8  N   UNL d   1     -40.884  14.692  17.685  0.00  0.00    -0.225 NA
ATOM      9  C   UNL d   1     -41.314  15.293  17.278  0.00  0.00     0.101 A 
ATOM     10  C   UNL d   1     -41.060  15.830  16.729  0.00  0.00     0.021 A 
ATOM     11  C   UNL d   1     -40.287  15.922  16.422  0.00  0.00     0.002 A 
ATOM     12  C   UNL d   1     -39.605  15.507  16.590  0.00  0.00     0.003 A 
ATOM     13  C   UNL d   1     -39.508  14.866  17.130  0.00  0.00     0.039 A 
ENDBRANCH   6   7
ENDBRANCH   1   6
BRANCH   3  14
ATOM     14  C   UNL d   1     -38.970  14.836  20.739  0.00  0.00     0.018 A 
ATOM     15  C   UNL d   1     -38.379  15.387  20.870  0.00  0.00     0.002 A 
ATOM     16  C   UNL d   1     -38.313  15.751  21.598  0.00  0.00     0.007 A 
ATOM     17  C   UNL d   1     -38.848  15.567  22.221  0.00  0.00     0.035 A 
ATOM     18  C   UNL d   1     -39.447  15.007  22.085  0.00  0.00     0.007 A 
ATOM     19 BR   UNL d   1     -38.821  15.908  22.972  0.00  0.00    -0.049 Br
ATOM     20  C   UNL d   1     -39.506  14.645  21.351  0.00  0.00     0.002 A 
ENDBRANCH   3  14
TORSDOF 3
ENDMDL
