MODEL 1
REMARK VINA RESULT:      -1.9      0.000      0.000
REMARK  8 active torsions:
REMARK  status: ('A' for Active; 'I' for Inactive)
REMARK    1  A    between atoms: O_4  and  C_1 
REMARK    2  A    between atoms: C_15  and  C_2 
REMARK    3  A    between atoms: C_5  and  O_4 
REMARK    4  A    between atoms: C_7  and  C_5 
REMARK    5  A    between atoms: O_21  and  C_8 
REMARK    6  A    between atoms: O_22  and  C_10 
REMARK    7  A    between atoms: O_23  and  C_11 
REMARK    8  A    between atoms: N_16  and  C_15 
ROOT
ATOM      1  C   UNL d   1     -39.886  14.468  20.206  0.00  0.00     0.122 A 
ATOM      2  C   UNL d   1     -40.438  13.998  20.600  0.00  0.00     0.043 A 
ATOM      3  C   UNL d   1     -39.278  14.830  20.630  0.00  0.00     0.105 A 
ATOM      4  C   UNL d   1     -39.221  14.722  21.445  0.00  0.00     0.030 A 
ATOM      5  C   UNL d   1     -39.774  14.253  21.828  0.00  0.00     0.059 A 
ATOM      6  C   UNL d   1     -40.381  13.890  21.415  0.00  0.00     0.015 A 
ATOM      7  N   UNL d   1     -38.732  15.296  20.236  0.00  0.00    -0.242 NA
ATOM      8 CL   UNL d   1     -39.696  14.158  22.655  0.00  0.00    -0.082 Cl
ATOM      9  C   UNL d   1     -38.620  15.080  21.858  0.00  0.00     0.004 A 
ATOM     10  C   UNL d   1     -38.124  15.658  20.660  0.00  0.00     0.099 A 
ATOM     11  C   UNL d   1     -38.068  15.549  21.475  0.00  0.00     0.021 A 
ENDROOT
BRANCH   1  12
ATOM     12  O   UNL d   1     -39.928  14.573  19.468  0.00  0.00    -0.271 OA
BRANCH  12  13
ATOM     13  C   UNL d   1     -39.730  14.126  18.637  0.00  0.00     0.300 C 
ATOM     14  O   UNL d   1     -39.653  13.128  18.715  0.00  0.00    -0.259 OA
BRANCH  13  15
ATOM     15  C   UNL d   1     -39.637  14.548  17.935  0.00  0.00     0.068 A 
ATOM     16  C   UNL d   1     -40.246  15.039  17.659  0.00  0.00     0.032 A 
ATOM     17  C   UNL d   1     -40.156  15.468  16.950  0.00  0.00     0.118 A 
ATOM     18  C   UNL d   1     -39.452  15.404  16.515  0.00  0.00     0.138 A 
ATOM     19  C   UNL d   1     -38.839  14.909  16.793  0.00  0.00     0.118 A 
ATOM     20  C   UNL d   1     -38.930  14.481  17.503  0.00  0.00     0.032 A 
BRANCH  17  21
ATOM     21  O   UNL d   1     -40.959  15.922  16.876  0.00  0.00    -0.326 OA
ATOM     22  C   UNL d   1     -41.399  15.421  16.990  0.00  0.00     0.181 C 
ENDBRANCH  17  21
BRANCH  18  23
ATOM     23  O   UNL d   1     -39.357  15.698  16.003  0.00  0.00    -0.324 OA
ATOM     24  C   UNL d   1     -38.781  15.666  15.523  0.00  0.00     0.182 C 
ENDBRANCH  18  23
BRANCH  19  25
ATOM     25  O   UNL d   1     -38.098  14.782  16.424  0.00  0.00    -0.326 OA
ATOM     26  C   UNL d   1     -37.940  13.992  16.681  0.00  0.00     0.181 C 
ENDBRANCH  19  25
ENDBRANCH  13  15
ENDBRANCH  12  13
ENDBRANCH   1  12
BRANCH   2  27
ATOM     27  C   UNL d   1     -41.162  13.528  20.310  0.00  0.00     0.082 C 
BRANCH  27  28
ATOM     28  N   UNL d   1     -41.852  13.537  20.754  0.00  0.00    -0.299 N 
ATOM     29  C   UNL d   1     -42.050  12.887  21.208  0.00  0.00     0.107 A 
ATOM     30  C   UNL d   1     -42.742  12.882  21.660  0.00  0.00     0.142 A 
ATOM     31  O   UNL d   1     -43.228  13.537  21.647  0.00  0.00    -0.300 OA
ATOM     32  C   UNL d   1     -43.030  14.198  21.187  0.00  0.00     0.142 A 
ATOM     33  C   UNL d   1     -42.341  14.187  20.745  0.00  0.00     0.107 A 
ENDBRANCH  27  28
ENDBRANCH   2  27
TORSDOF 8
ENDMDL
MODEL 2
REMARK VINA RESULT:      -1.6      1.586      2.932
REMARK  8 active torsions:
REMARK  status: ('A' for Active; 'I' for Inactive)
REMARK    1  A    between atoms: O_4  and  C_1 
REMARK    2  A    between atoms: C_15  and  C_2 
REMARK    3  A    between atoms: C_5  and  O_4 
REMARK    4  A    between atoms: C_7  and  C_5 
REMARK    5  A    between atoms: O_21  and  C_8 
REMARK    6  A    between atoms: O_22  and  C_10 
REMARK    7  A    between atoms: O_23  and  C_11 
REMARK    8  A    between atoms: N_16  and  C_15 
ROOT
ATOM      1  C   UNL d   1     -39.654  14.189  20.444  0.00  0.00     0.122 A 
ATOM      2  C   UNL d   1     -39.337  14.144  21.204  0.00  0.00     0.043 A 
ATOM      3  C   UNL d   1     -40.469  14.129  20.333  0.00  0.00     0.105 A 
ATOM      4  C   UNL d   1     -40.967  14.024  20.981  0.00  0.00     0.030 A 
ATOM      5  C   UNL d   1     -40.644  13.981  21.734  0.00  0.00     0.059 A 
ATOM      6  C   UNL d   1     -39.835  14.040  21.853  0.00  0.00     0.015 A 
ATOM      7  N   UNL d   1     -40.779  14.174  19.578  0.00  0.00    -0.242 NA
ATOM      8 CL   UNL d   1     -41.169  13.875  22.376  0.00  0.00    -0.082 Cl
ATOM      9  C   UNL d   1     -41.769  13.966  20.868  0.00  0.00     0.004 A 
ATOM     10  C   UNL d   1     -41.594  14.113  19.467  0.00  0.00     0.099 A 
ATOM     11  C   UNL d   1     -42.092  14.009  20.115  0.00  0.00     0.021 A 
ENDROOT
BRANCH   1  12
ATOM     12  O   UNL d   1     -39.211  14.283  19.849  0.00  0.00    -0.271 OA
BRANCH  12  13
ATOM     13  C   UNL d   1     -38.541  13.820  19.335  0.00  0.00     0.300 C 
ATOM     14  O   UNL d   1     -37.993  13.168  19.867  0.00  0.00    -0.259 OA
BRANCH  13  15
ATOM     15  C   UNL d   1     -38.444  13.963  18.529  0.00  0.00     0.068 A 
ATOM     16  C   UNL d   1     -38.248  14.723  18.260  0.00  0.00     0.032 A 
ATOM     17  C   UNL d   1     -38.149  14.872  17.446  0.00  0.00     0.118 A 
ATOM     18  C   UNL d   1     -38.248  14.256  16.898  0.00  0.00     0.138 A 
ATOM     19  C   UNL d   1     -38.446  13.491  17.169  0.00  0.00     0.118 A 
ATOM     20  C   UNL d   1     -38.544  13.343  17.984  0.00  0.00     0.032 A 
BRANCH  17  21
ATOM     21  O   UNL d   1     -37.940  15.773  17.422  0.00  0.00    -0.326 OA
ATOM     22  C   UNL d   1     -37.943  15.922  18.081  0.00  0.00     0.181 C 
ENDBRANCH  17  21
BRANCH  18  23
ATOM     23  O   UNL d   1     -38.184  14.331  16.309  0.00  0.00    -0.324 OA
ATOM     24  C   UNL d   1     -38.287  14.939  15.881  0.00  0.00     0.182 C 
ENDBRANCH  18  23
BRANCH  19  25
ATOM     25  O   UNL d   1     -38.565  12.811  16.694  0.00  0.00    -0.326 OA
ATOM     26  C   UNL d   1     -38.313  12.210  17.233  0.00  0.00     0.181 C 
ENDBRANCH  19  25
ENDBRANCH  13  15
ENDBRANCH  12  13
ENDBRANCH   1  12
BRANCH   2  27
ATOM     27  C   UNL d   1     -38.484  14.189  21.518  0.00  0.00     0.082 C 
BRANCH  27  28
ATOM     28  N   UNL d   1     -38.320  14.649  22.178  0.00  0.00    -0.299 N 
ATOM     29  C   UNL d   1     -38.147  14.289  22.890  0.00  0.00     0.107 A 
ATOM     30  C   UNL d   1     -37.980  14.740  23.563  0.00  0.00     0.142 A 
ATOM     31  O   UNL d   1     -37.990  15.553  23.506  0.00  0.00    -0.300 OA
ATOM     32  C   UNL d   1     -38.165  15.922  22.784  0.00  0.00     0.142 A 
ATOM     33  C   UNL d   1     -38.328  15.460  22.128  0.00  0.00     0.107 A 
ENDBRANCH  27  28
ENDBRANCH   2  27
TORSDOF 8
ENDMDL
MODEL 3
REMARK VINA RESULT:      -0.8      5.881      8.909
REMARK  8 active torsions:
REMARK  status: ('A' for Active; 'I' for Inactive)
REMARK    1  A    between atoms: O_4  and  C_1 
REMARK    2  A    between atoms: C_15  and  C_2 
REMARK    3  A    between atoms: C_5  and  O_4 
REMARK    4  A    between atoms: C_7  and  C_5 
REMARK    5  A    between atoms: O_21  and  C_8 
REMARK    6  A    between atoms: O_22  and  C_10 
REMARK    7  A    between atoms: O_23  and  C_11 
REMARK    8  A    between atoms: N_16  and  C_15 
ROOT
ATOM      1  C   UNL d   1     -48.045  12.770  23.051  0.00  0.00     0.122 A 
ATOM      2  C   UNL d   1     -48.473  13.475  23.047  0.00  0.00     0.043 A 
ATOM      3  C   UNL d   1     -48.416  12.065  23.267  0.00  0.00     0.105 A 
ATOM      4  C   UNL d   1     -49.212  12.065  23.477  0.00  0.00     0.030 A 
ATOM      5  C   UNL d   1     -49.631  12.770  23.470  0.00  0.00     0.059 A 
ATOM      6  C   UNL d   1     -49.270  13.475  23.257  0.00  0.00     0.015 A 
ATOM      7  N   UNL d   1     -47.988  11.368  23.270  0.00  0.00    -0.242 NA
ATOM      8 CL   UNL d   1     -50.437  12.746  23.688  0.00  0.00    -0.082 Cl
ATOM      9  C   UNL d   1     -49.574  11.369  23.689  0.00  0.00     0.004 A 
ATOM     10  C   UNL d   1     -48.359  10.663  23.485  0.00  0.00     0.099 A 
ATOM     11  C   UNL d   1     -49.155  10.663  23.696  0.00  0.00     0.021 A 
ENDROOT
BRANCH   1  12
ATOM     12  O   UNL d   1     -47.323  12.758  22.862  0.00  0.00    -0.271 OA
BRANCH  12  13
ATOM     13  C   UNL d   1     -46.479  13.157  23.105  0.00  0.00     0.300 C 
ATOM     14  O   UNL d   1     -46.564  14.013  23.623  0.00  0.00    -0.259 OA
BRANCH  13  15
ATOM     15  C   UNL d   1     -45.764  12.807  22.896  0.00  0.00     0.068 A 
ATOM     16  C   UNL d   1     -45.297  13.138  22.295  0.00  0.00     0.032 A 
ATOM     17  C   UNL d   1     -44.572  12.787  22.080  0.00  0.00     0.118 A 
ATOM     18  C   UNL d   1     -44.313  12.101  22.468  0.00  0.00     0.138 A 
ATOM     19  C   UNL d   1     -44.783  11.768  23.073  0.00  0.00     0.118 A 
ATOM     20  C   UNL d   1     -45.508  12.120  23.288  0.00  0.00     0.032 A 
BRANCH  17  21
ATOM     21  O   UNL d   1     -44.264  13.341  21.404  0.00  0.00    -0.326 OA
ATOM     22  C   UNL d   1     -44.097  12.886  20.933  0.00  0.00     0.181 C 
ENDBRANCH  17  21
BRANCH  18  23
ATOM     23  O   UNL d   1     -43.799  11.826  22.337  0.00  0.00    -0.324 OA
ATOM     24  C   UNL d   1     -43.107  12.104  22.246  0.00  0.00     0.182 C 
ENDBRANCH  18  23
BRANCH  19  25
ATOM     25  O   UNL d   1     -44.605  11.081  23.519  0.00  0.00    -0.326 OA
ATOM     26  C   UNL d   1     -45.192  10.554  23.216  0.00  0.00     0.181 C 
ENDBRANCH  19  25
ENDBRANCH  13  15
ENDBRANCH  12  13
ENDBRANCH   1  12
BRANCH   2  27
ATOM     27  C   UNL d   1     -48.243  14.331  22.843  0.00  0.00     0.082 C 
BRANCH  27  28
ATOM     28  N   UNL d   1     -48.825  14.860  22.607  0.00  0.00    -0.299 N 
ATOM     29  C   UNL d   1     -49.219  15.306  23.166  0.00  0.00     0.107 A 
ATOM     30  C   UNL d   1     -49.807  15.842  22.943  0.00  0.00     0.142 A 
ATOM     31  O   UNL d   1     -49.990  15.922  22.152  0.00  0.00    -0.300 OA
ATOM     32  C   UNL d   1     -49.591  15.471  21.581  0.00  0.00     0.142 A 
ATOM     33  C   UNL d   1     -49.011  14.944  21.820  0.00  0.00     0.107 A 
ENDBRANCH  27  28
ENDBRANCH   2  27
TORSDOF 8
ENDMDL
MODEL 4
REMARK VINA RESULT:      -0.7      3.189      5.267
REMARK  8 active torsions:
REMARK  status: ('A' for Active; 'I' for Inactive)
REMARK    1  A    between atoms: O_4  and  C_1 
REMARK    2  A    between atoms: C_15  and  C_2 
REMARK    3  A    between atoms: C_5  and  O_4 
REMARK    4  A    between atoms: C_7  and  C_5 
REMARK    5  A    between atoms: O_21  and  C_8 
REMARK    6  A    between atoms: O_22  and  C_10 
REMARK    7  A    between atoms: O_23  and  C_11 
REMARK    8  A    between atoms: N_16  and  C_15 
ROOT
ATOM      1  C   UNL d   1     -43.959  12.412  22.308  0.00  0.00     0.122 A 
ATOM      2  C   UNL d   1     -44.743  12.661  22.239  0.00  0.00     0.043 A 
ATOM      3  C   UNL d   1     -43.786  11.701  22.689  0.00  0.00     0.105 A 
ATOM      4  C   UNL d   1     -44.394  11.241  23.001  0.00  0.00     0.030 A 
ATOM      5  C   UNL d   1     -45.170  11.496  22.929  0.00  0.00     0.059 A 
ATOM      6  C   UNL d   1     -45.351  12.201  22.551  0.00  0.00     0.015 A 
ATOM      7  N   UNL d   1     -43.008  11.458  22.755  0.00  0.00    -0.242 NA
ATOM      8 CL   UNL d   1     -45.770  11.013  23.253  0.00  0.00    -0.082 Cl
ATOM      9  C   UNL d   1     -44.219  10.542  23.377  0.00  0.00     0.004 A 
ATOM     10  C   UNL d   1     -42.834  10.747  23.137  0.00  0.00     0.099 A 
ATOM     11  C   UNL d   1     -43.443  10.287  23.449  0.00  0.00     0.021 A 
ENDROOT
BRANCH   1  12
ATOM     12  O   UNL d   1     -43.401  12.821  22.028  0.00  0.00    -0.271 OA
BRANCH  12  13
ATOM     13  C   UNL d   1     -42.933  12.983  21.201  0.00  0.00     0.300 C 
ATOM     14  O   UNL d   1     -43.321  12.503  20.409  0.00  0.00    -0.259 OA
BRANCH  13  15
ATOM     15  C   UNL d   1     -42.275  13.477  21.170  0.00  0.00     0.068 A 
ATOM     16  C   UNL d   1     -42.353  14.264  20.918  0.00  0.00     0.032 A 
ATOM     17  C   UNL d   1     -41.689  14.767  20.886  0.00  0.00     0.118 A 
ATOM     18  C   UNL d   1     -40.943  14.480  21.107  0.00  0.00     0.138 A 
ATOM     19  C   UNL d   1     -40.863  13.688  21.362  0.00  0.00     0.118 A 
ATOM     20  C   UNL d   1     -41.528  13.186  21.393  0.00  0.00     0.032 A 
BRANCH  17  21
ATOM     21  O   UNL d   1     -42.046  15.565  20.580  0.00  0.00    -0.326 OA
ATOM     22  C   UNL d   1     -42.072  15.920  21.154  0.00  0.00     0.181 C 
ENDBRANCH  17  21
BRANCH  18  23
ATOM     23  O   UNL d   1     -40.448  14.816  21.095  0.00  0.00    -0.324 OA
ATOM     24  C   UNL d   1     -39.947  14.926  20.547  0.00  0.00     0.182 C 
ENDBRANCH  18  23
BRANCH  19  25
ATOM     25  O   UNL d   1     -40.154  13.313  21.603  0.00  0.00    -0.326 OA
ATOM     26  C   UNL d   1     -40.234  13.377  22.443  0.00  0.00     0.181 C 
ENDBRANCH  19  25
ENDBRANCH  13  15
ENDBRANCH  12  13
ENDBRANCH   1  12
BRANCH   2  27
ATOM     27  C   UNL d   1     -45.122  13.397  21.861  0.00  0.00     0.082 C 
BRANCH  27  28
ATOM     28  N   UNL d   1     -45.788  13.730  22.206  0.00  0.00    -0.299 N 
ATOM     29  C   UNL d   1     -45.703  14.278  22.805  0.00  0.00     0.107 A 
ATOM     30  C   UNL d   1     -46.366  14.622  23.162  0.00  0.00     0.142 A 
ATOM     31  O   UNL d   1     -47.109  14.405  22.907  0.00  0.00    -0.300 OA
ATOM     32  C   UNL d   1     -47.199  13.848  22.299  0.00  0.00     0.142 A 
ATOM     33  C   UNL d   1     -46.533  13.518  21.956  0.00  0.00     0.107 A 
ENDBRANCH  27  28
ENDBRANCH   2  27
TORSDOF 8
ENDMDL
MODEL 5
REMARK VINA RESULT:       0.2      2.208      5.078
REMARK  8 active torsions:
REMARK  status: ('A' for Active; 'I' for Inactive)
REMARK    1  A    between atoms: O_4  and  C_1 
REMARK    2  A    between atoms: C_15  and  C_2 
REMARK    3  A    between atoms: C_5  and  O_4 
REMARK    4  A    between atoms: C_7  and  C_5 
REMARK    5  A    between atoms: O_21  and  C_8 
REMARK    6  A    between atoms: O_22  and  C_10 
REMARK    7  A    between atoms: O_23  and  C_11 
REMARK    8  A    between atoms: N_16  and  C_15 
ROOT
ATOM      1  C   UNL d   1     -40.699  14.214  20.517  0.00  0.00     0.122 A 
ATOM      2  C   UNL d   1     -40.113  14.498  21.023  0.00  0.00     0.043 A 
ATOM      3  C   UNL d   1     -40.596  14.259  19.700  0.00  0.00     0.105 A 
ATOM      4  C   UNL d   1     -39.907  14.588  19.389  0.00  0.00     0.030 A 
ATOM      5  C   UNL d   1     -39.329  14.869  19.899  0.00  0.00     0.059 A 
ATOM      6  C   UNL d   1     -39.424  14.827  20.712  0.00  0.00     0.015 A 
ATOM      7  N   UNL d   1     -41.179  13.976  19.202  0.00  0.00    -0.242 NA
ATOM      8 CL   UNL d   1     -38.640  15.198  19.561  0.00  0.00    -0.082 Cl
ATOM      9  C   UNL d   1     -39.809  14.631  18.584  0.00  0.00     0.004 A 
ATOM     10  C   UNL d   1     -41.075  14.021  18.385  0.00  0.00     0.099 A 
ATOM     11  C   UNL d   1     -40.387  14.350  18.074  0.00  0.00     0.021 A 
ENDROOT
BRANCH   1  12
ATOM     12  O   UNL d   1     -41.327  13.914  20.789  0.00  0.00    -0.271 OA
BRANCH  12  13
ATOM     13  C   UNL d   1     -42.191  14.169  21.131  0.00  0.00     0.300 C 
ATOM     14  O   UNL d   1     -42.357  15.159  21.128  0.00  0.00    -0.259 OA
BRANCH  13  15
ATOM     15  C   UNL d   1     -42.730  13.606  21.397  0.00  0.00     0.068 A 
ATOM     16  C   UNL d   1     -43.522  13.816  21.530  0.00  0.00     0.032 A 
ATOM     17  C   UNL d   1     -44.071  13.249  21.800  0.00  0.00     0.118 A 
ATOM     18  C   UNL d   1     -43.825  12.469  21.937  0.00  0.00     0.138 A 
ATOM     19  C   UNL d   1     -43.028  12.258  21.803  0.00  0.00     0.118 A 
ATOM     20  C   UNL d   1     -42.480  12.825  21.534  0.00  0.00     0.032 A 
BRANCH  17  21
ATOM     21  O   UNL d   1     -44.858  13.734  21.863  0.00  0.00    -0.326 OA
ATOM     22  C   UNL d   1     -45.275  13.347  21.498  0.00  0.00     0.181 C 
ENDBRANCH  17  21
BRANCH  18  23
ATOM     23  O   UNL d   1     -44.195  12.040  22.130  0.00  0.00    -0.324 OA
ATOM     24  C   UNL d   1     -44.583  11.984  22.770  0.00  0.00     0.182 C 
ENDBRANCH  18  23
BRANCH  19  25
ATOM     25  O   UNL d   1     -42.690  11.499  21.914  0.00  0.00    -0.326 OA
ATOM     26  C   UNL d   1     -42.329  11.608  22.670  0.00  0.00     0.181 C 
ENDBRANCH  19  25
ENDBRANCH  13  15
ENDBRANCH  12  13
ENDBRANCH   1  12
BRANCH   2  27
ATOM     27  C   UNL d   1     -40.049  14.534  21.930  0.00  0.00     0.082 C 
BRANCH  27  28
ATOM     28  N   UNL d   1     -39.371  14.252  22.298  0.00  0.00    -0.299 N 
ATOM     29  C   UNL d   1     -38.871  14.773  22.679  0.00  0.00     0.107 A 
ATOM     30  C   UNL d   1     -38.185  14.503  23.054  0.00  0.00     0.142 A 
ATOM     31  O   UNL d   1     -38.013  13.706  23.039  0.00  0.00    -0.300 OA
ATOM     32  C   UNL d   1     -38.520  13.174  22.653  0.00  0.00     0.142 A 
ATOM     33  C   UNL d   1     -39.195  13.458  22.286  0.00  0.00     0.107 A 
ENDBRANCH  27  28
ENDBRANCH   2  27
TORSDOF 8
ENDMDL
MODEL 6
REMARK VINA RESULT:       0.3      6.932      9.288
REMARK  8 active torsions:
REMARK  status: ('A' for Active; 'I' for Inactive)
REMARK    1  A    between atoms: O_4  and  C_1 
REMARK    2  A    between atoms: C_15  and  C_2 
REMARK    3  A    between atoms: C_5  and  O_4 
REMARK    4  A    between atoms: C_7  and  C_5 
REMARK    5  A    between atoms: O_21  and  C_8 
REMARK    6  A    between atoms: O_22  and  C_10 
REMARK    7  A    between atoms: O_23  and  C_11 
REMARK    8  A    between atoms: N_16  and  C_15 
ROOT
ATOM      1  C   UNL d   1     -46.794  12.692  23.113  0.00  0.00     0.122 A 
ATOM      2  C   UNL d   1     -46.158  12.202  22.926  0.00  0.00     0.043 A 
ATOM      3  C   UNL d   1     -46.728  13.508  23.011  0.00  0.00     0.105 A 
ATOM      4  C   UNL d   1     -46.028  13.833  22.722  0.00  0.00     0.030 A 
ATOM      5  C   UNL d   1     -45.400  13.338  22.539  0.00  0.00     0.059 A 
ATOM      6  C   UNL d   1     -45.458  12.526  22.637  0.00  0.00     0.015 A 
ATOM      7  N   UNL d   1     -47.361  13.992  23.197  0.00  0.00    -0.242 NA
ATOM      8 CL   UNL d   1     -44.700  13.690  22.248  0.00  0.00    -0.082 Cl
ATOM      9  C   UNL d   1     -45.967  14.637  22.623  0.00  0.00     0.004 A 
ATOM     10  C   UNL d   1     -47.295  14.807  23.095  0.00  0.00     0.099 A 
ATOM     11  C   UNL d   1     -46.595  15.132  22.807  0.00  0.00     0.021 A 
ENDROOT
BRANCH   1  12
ATOM     12  O   UNL d   1     -47.433  12.408  23.375  0.00  0.00    -0.271 OA
BRANCH  12  13
ATOM     13  C   UNL d   1     -48.121  11.774  23.142  0.00  0.00     0.300 C 
ATOM     14  O   UNL d   1     -47.867  10.816  23.300  0.00  0.00    -0.259 OA
BRANCH  13  15
ATOM     15  C   UNL d   1     -48.847  12.021  22.842  0.00  0.00     0.068 A 
ATOM     16  C   UNL d   1     -48.929  12.195  22.034  0.00  0.00     0.032 A 
ATOM     17  C   UNL d   1     -49.662  12.445  21.726  0.00  0.00     0.118 A 
ATOM     18  C   UNL d   1     -50.317  12.521  22.229  0.00  0.00     0.138 A 
ATOM     19  C   UNL d   1     -50.236  12.346  23.042  0.00  0.00     0.118 A 
ATOM     20  C   UNL d   1     -49.502  12.096  23.350  0.00  0.00     0.032 A 
BRANCH  17  21
ATOM     21  O   UNL d   1     -49.480  12.568  20.827  0.00  0.00    -0.326 OA
ATOM     22  C   UNL d   1     -49.077  12.038  20.705  0.00  0.00     0.181 C 
ENDBRANCH  17  21
BRANCH  18  23
ATOM     23  O   UNL d   1     -50.856  12.698  22.039  0.00  0.00    -0.324 OA
ATOM     24  C   UNL d   1     -51.061  13.314  21.663  0.00  0.00     0.182 C 
ENDBRANCH  18  23
BRANCH  19  25
ATOM     25  O   UNL d   1     -50.837  12.394  23.623  0.00  0.00    -0.326 OA
ATOM     26  C   UNL d   1     -51.034  11.575  23.698  0.00  0.00     0.181 C 
ENDBRANCH  19  25
ENDBRANCH  13  15
ENDBRANCH  12  13
ENDBRANCH   1  12
BRANCH   2  27
ATOM     27  C   UNL d   1     -46.044  11.300  22.970  0.00  0.00     0.082 C 
BRANCH  27  28
ATOM     28  N   UNL d   1     -45.296  10.994  23.111  0.00  0.00    -0.299 N 
ATOM     29  C   UNL d   1     -44.638  11.383  22.824  0.00  0.00     0.107 A 
ATOM     30  C   UNL d   1     -43.878  11.087  22.958  0.00  0.00     0.142 A 
ATOM     31  O   UNL d   1     -43.793  10.396  23.384  0.00  0.00    -0.300 OA
ATOM     32  C   UNL d   1     -44.458   9.998  23.677  0.00  0.00     0.142 A 
ATOM     33  C   UNL d   1     -45.204  10.306  23.535  0.00  0.00     0.107 A 
ENDBRANCH  27  28
ENDBRANCH   2  27
TORSDOF 8
ENDMDL
MODEL 7
REMARK VINA RESULT:       0.7      6.461      9.045
REMARK  8 active torsions:
REMARK  status: ('A' for Active; 'I' for Inactive)
REMARK    1  A    between atoms: O_4  and  C_1 
REMARK    2  A    between atoms: C_15  and  C_2 
REMARK    3  A    between atoms: C_5  and  O_4 
REMARK    4  A    between atoms: C_7  and  C_5 
REMARK    5  A    between atoms: O_21  and  C_8 
REMARK    6  A    between atoms: O_22  and  C_10 
REMARK    7  A    between atoms: O_23  and  C_11 
REMARK    8  A    between atoms: N_16  and  C_15 
ROOT
ATOM      1  C   UNL d   1     -46.690  12.785  22.723  0.00  0.00     0.122 A 
ATOM      2  C   UNL d   1     -46.912  12.195  23.255  0.00  0.00     0.043 A 
ATOM      3  C   UNL d   1     -45.928  12.789  22.408  0.00  0.00     0.105 A 
ATOM      4  C   UNL d   1     -45.389  12.204  22.624  0.00  0.00     0.030 A 
ATOM      5  C   UNL d   1     -45.618  11.621  23.153  0.00  0.00     0.059 A 
ATOM      6  C   UNL d   1     -46.374  11.610  23.471  0.00  0.00     0.015 A 
ATOM      7  N   UNL d   1     -45.711  13.376  21.881  0.00  0.00    -0.242 NA
ATOM      8 CL   UNL d   1     -45.055  11.038  23.357  0.00  0.00    -0.082 Cl
ATOM      9  C   UNL d   1     -44.639  12.211  22.311  0.00  0.00     0.004 A 
ATOM     10  C   UNL d   1     -44.948  13.380  21.566  0.00  0.00     0.099 A 
ATOM     11  C   UNL d   1     -44.410  12.794  21.782  0.00  0.00     0.021 A 
ENDROOT
BRANCH   1  12
ATOM     12  O   UNL d   1     -47.171  13.320  22.521  0.00  0.00    -0.271 OA
BRANCH  12  13
ATOM     13  C   UNL d   1     -47.375  14.246  22.693  0.00  0.00     0.300 C 
ATOM     14  O   UNL d   1     -46.596  14.782  23.032  0.00  0.00    -0.259 OA
BRANCH  13  15
ATOM     15  C   UNL d   1     -48.130  14.549  22.566  0.00  0.00     0.068 A 
ATOM     16  C   UNL d   1     -48.510  14.432  21.838  0.00  0.00     0.032 A 
ATOM     17  C   UNL d   1     -49.274  14.737  21.705  0.00  0.00     0.118 A 
ATOM     18  C   UNL d   1     -49.660  15.162  22.304  0.00  0.00     0.138 A 
ATOM     19  C   UNL d   1     -49.277  15.280  23.037  0.00  0.00     0.118 A 
ATOM     20  C   UNL d   1     -48.513  14.975  23.170  0.00  0.00     0.032 A 
BRANCH  17  21
ATOM     21  O   UNL d   1     -49.458  14.471  20.837  0.00  0.00    -0.326 OA
ATOM     22  C   UNL d   1     -49.458  13.798  20.908  0.00  0.00     0.181 C 
ENDBRANCH  17  21
BRANCH  18  23
ATOM     23  O   UNL d   1     -50.208  15.393  22.240  0.00  0.00    -0.324 OA
ATOM     24  C   UNL d   1     -50.836  15.087  21.965  0.00  0.00     0.182 C 
ENDBRANCH  18  23
BRANCH  19  25
ATOM     25  O   UNL d   1     -49.586  15.693  23.698  0.00  0.00    -0.326 OA
ATOM     26  C   UNL d   1     -50.413  15.573  23.572  0.00  0.00     0.181 C 
ENDBRANCH  19  25
ENDBRANCH  13  15
ENDBRANCH  12  13
ENDBRANCH   1  12
BRANCH   2  27
ATOM     27  C   UNL d   1     -47.690  12.029  23.698  0.00  0.00     0.082 C 
BRANCH  27  28
ATOM     28  N   UNL d   1     -48.306  11.654  23.305  0.00  0.00    -0.299 N 
ATOM     29  C   UNL d   1     -49.014  11.526  23.692  0.00  0.00     0.107 A 
ATOM     30  C   UNL d   1     -49.643  11.150  23.309  0.00  0.00     0.142 A 
ATOM     31  O   UNL d   1     -49.548  10.908  22.535  0.00  0.00    -0.300 OA
ATOM     32  C   UNL d   1     -48.830  11.037  22.140  0.00  0.00     0.142 A 
ATOM     33  C   UNL d   1     -48.217  11.411  22.534  0.00  0.00     0.107 A 
ENDBRANCH  27  28
ENDBRANCH   2  27
TORSDOF 8
ENDMDL
MODEL 8
REMARK VINA RESULT:       1.0      1.458      4.866
REMARK  8 active torsions:
REMARK  status: ('A' for Active; 'I' for Inactive)
REMARK    1  A    between atoms: O_4  and  C_1 
REMARK    2  A    between atoms: C_15  and  C_2 
REMARK    3  A    between atoms: C_5  and  O_4 
REMARK    4  A    between atoms: C_7  and  C_5 
REMARK    5  A    between atoms: O_21  and  C_8 
REMARK    6  A    between atoms: O_22  and  C_10 
REMARK    7  A    between atoms: O_23  and  C_11 
REMARK    8  A    between atoms: N_16  and  C_15 
ROOT
ATOM      1  C   UNL d   1     -40.493  14.262  20.736  0.00  0.00     0.122 A 
ATOM      2  C   UNL d   1     -40.343  14.678  20.039  0.00  0.00     0.043 A 
ATOM      3  C   UNL d   1     -39.880  14.115  21.267  0.00  0.00     0.105 A 
ATOM      4  C   UNL d   1     -39.118  14.383  21.103  0.00  0.00     0.030 A 
ATOM      5  C   UNL d   1     -38.978  14.796  20.409  0.00  0.00     0.059 A 
ATOM      6  C   UNL d   1     -39.582  14.947  19.875  0.00  0.00     0.015 A 
ATOM      7  N   UNL d   1     -40.032  13.702  21.956  0.00  0.00    -0.242 NA
ATOM      8 CL   UNL d   1     -38.198  15.059  20.264  0.00  0.00    -0.082 Cl
ATOM      9  C   UNL d   1     -38.517  14.236  21.630  0.00  0.00     0.004 A 
ATOM     10  C   UNL d   1     -39.419  13.554  22.488  0.00  0.00     0.099 A 
ATOM     11  C   UNL d   1     -38.658  13.823  22.324  0.00  0.00     0.021 A 
ENDROOT
BRANCH   1  12
ATOM     12  O   UNL d   1     -41.180  14.014  20.894  0.00  0.00    -0.271 OA
BRANCH  12  13
ATOM     13  C   UNL d   1     -42.038  14.331  21.197  0.00  0.00     0.300 C 
ATOM     14  O   UNL d   1     -42.103  15.330  21.274  0.00  0.00    -0.259 OA
BRANCH  13  15
ATOM     15  C   UNL d   1     -42.651  13.809  21.372  0.00  0.00     0.068 A 
ATOM     16  C   UNL d   1     -43.427  14.090  21.462  0.00  0.00     0.032 A 
ATOM     17  C   UNL d   1     -44.049  13.565  21.639  0.00  0.00     0.118 A 
ATOM     18  C   UNL d   1     -43.894  12.754  21.727  0.00  0.00     0.138 A 
ATOM     19  C   UNL d   1     -43.113  12.472  21.637  0.00  0.00     0.118 A 
ATOM     20  C   UNL d   1     -42.491  12.998  21.460  0.00  0.00     0.032 A 
BRANCH  17  21
ATOM     21  O   UNL d   1     -44.787  14.122  21.683  0.00  0.00    -0.326 OA
ATOM     22  C   UNL d   1     -44.908  14.121  22.348  0.00  0.00     0.181 C 
ENDBRANCH  17  21
BRANCH  18  23
ATOM     23  O   UNL d   1     -44.319  12.353  21.854  0.00  0.00    -0.324 OA
ATOM     24  C   UNL d   1     -45.043  12.332  21.660  0.00  0.00     0.182 C 
ENDBRANCH  18  23
BRANCH  19  25
ATOM     25  O   UNL d   1     -42.862  11.676  21.708  0.00  0.00    -0.326 OA
ATOM     26  C   UNL d   1     -42.699  11.646  22.537  0.00  0.00     0.181 C 
ENDBRANCH  19  25
ENDBRANCH  13  15
ENDBRANCH  12  13
ENDBRANCH   1  12
BRANCH   2  27
ATOM     27  C   UNL d   1     -40.878  14.931  19.348  0.00  0.00     0.082 C 
BRANCH  27  28
ATOM     28  N   UNL d   1     -40.623  14.815  18.577  0.00  0.00    -0.299 N 
ATOM     29  C   UNL d   1     -40.476  15.459  18.097  0.00  0.00     0.107 A 
ATOM     30  C   UNL d   1     -40.219  15.356  17.317  0.00  0.00     0.142 A 
ATOM     31  O   UNL d   1     -40.112  14.599  17.032  0.00  0.00    -0.300 OA
ATOM     32  C   UNL d   1     -40.261  13.943  17.517  0.00  0.00     0.142 A 
ATOM     33  C   UNL d   1     -40.515  14.062  18.287  0.00  0.00     0.107 A 
ENDBRANCH  27  28
ENDBRANCH   2  27
TORSDOF 8
ENDMDL
