MODEL 1
REMARK VINA RESULT:      50.8      0.000      0.000
REMARK  4 active torsions:
REMARK  status: ('A' for Active; 'I' for Inactive)
REMARK    1  A    between atoms: S_3  and  N_1 
REMARK    2  A    between atoms: C_9  and  S_3 
REMARK    3  A    between atoms: C_10  and  N_5 
REMARK    4  A    between atoms: C_15  and  C_10 
ROOT
ATOM      1  N   UNL d   1      13.448  12.196  -2.433  0.00  0.00    -0.195 N 
ATOM      2  C   UNL d   1      13.602  12.959  -2.699  0.00  0.00     0.193 A 
ATOM      3  C   UNL d   1      13.370  13.015  -3.483  0.00  0.00     0.185 A 
ATOM      4  N   UNL d   1      13.068  12.283  -3.718  0.00  0.00    -0.269 N 
ATOM      5  C   UNL d   1      13.118  11.779  -3.062  0.00  0.00     0.179 A 
ATOM      6  N   UNL d   1      13.926  13.616  -2.325  0.00  0.00    -0.223 NA
ATOM      7  N   UNL d   1      13.460  13.724  -3.899  0.00  0.00    -0.224 NA
ATOM      8  C   UNL d   1      14.017  14.318  -2.728  0.00  0.00     0.101 A 
ATOM      9  C   UNL d   1      13.784  14.379  -3.520  0.00  0.00     0.101 A 
ATOM     10  C   UNL d   1      13.878  15.088  -3.922  0.00  0.00     0.021 A 
ATOM     11  C   UNL d   1      14.340  14.972  -2.352  0.00  0.00     0.021 A 
ATOM     12  C   UNL d   1      14.204  15.738  -3.534  0.00  0.00     0.002 A 
ATOM     13  C   UNL d   1      14.434  15.680  -2.754  0.00  0.00     0.002 A 
ENDROOT
BRANCH   1  14
ATOM     14  S   UNL d   1      13.713  12.172  -1.577  0.00  0.00     0.274 S 
ATOM     15  O   UNL d   1      13.123  11.883  -0.984  0.00  0.00    -0.200 OA
ATOM     16  O   UNL d   1      12.925  11.894  -1.580  0.00  0.00    -0.200 OA
BRANCH  14  17
ATOM     17  C   UNL d   1      14.418  12.370  -1.198  0.00  0.00     0.104 A 
ATOM     18  C   UNL d   1      14.407  12.867  -0.541  0.00  0.00     0.015 A 
ATOM     19  C   UNL d   1      15.118  13.068  -0.157  0.00  0.00     0.030 A 
ATOM     20  C   UNL d   1      15.831  12.766  -0.438  0.00  0.00     0.140 A 
ATOM     21  C   UNL d   1      15.841  12.262  -1.105  0.00  0.00     0.030 A 
ATOM     22  F   UNL d   1      16.504  13.001  -0.015  0.00  0.00    -0.204 F 
ATOM     23  C   UNL d   1      15.136  12.068  -1.479  0.00  0.00     0.015 A 
ENDBRANCH  14  17
ENDBRANCH   1  14
BRANCH   4  24
ATOM     24  C   UNL d   1      12.771  12.091  -4.464  0.00  0.00     0.108 C 
BRANCH  24  25
ATOM     25  C   UNL d   1      13.288  11.995  -5.106  0.00  0.00     0.118 A 
ATOM     26  O   UNL d   1      14.114  12.040  -5.074  0.00  0.00    -0.304 OA
ATOM     27  C   UNL d   1      14.416  11.909  -5.846  0.00  0.00     0.123 A 
ATOM     28  C   UNL d   1      13.767  11.783  -6.349  0.00  0.00     0.029 A 
ATOM     29  C   UNL d   1      13.074  11.837  -5.889  0.00  0.00     0.028 A 
ENDBRANCH  24  25
ENDBRANCH   4  24
TORSDOF 4
ENDMDL
