MODEL 1
REMARK VINA RESULT:      78.5      0.000      0.000
REMARK  6 active torsions:
REMARK  status: ('A' for Active; 'I' for Inactive)
REMARK    1  A    between atoms: C_11  and  C_3 
REMARK    2  A    between atoms: C_12  and  C_4 
REMARK    3  A    between atoms: C_13  and  C_7 
REMARK    4  A    between atoms: N_15  and  C_11 
REMARK    5  A    between atoms: N_14  and  C_12 
REMARK    6  A    between atoms: O_24  and  C_21 
ROOT
ATOM      1  C   UNL d   1     -54.733-101.056 -41.879  0.00  0.00     0.101 A 
ATOM      2  C   UNL d   1     -54.723-101.716 -42.376  0.00  0.00     0.111 A 
ATOM      3  C   UNL d   1     -54.722-101.617 -43.196  0.00  0.00     0.080 A 
ATOM      4  C   UNL d   1     -54.740-100.203 -43.013  0.00  0.00     0.096 A 
ATOM      5  C   UNL d   1     -54.734-101.163 -41.055  0.00  0.00     0.203 A 
ATOM      6  C   UNL d   1     -54.741-100.299 -42.203  0.00  0.00     0.205 A 
ATOM      7  C   UNL d   1     -54.726-101.924 -40.734  0.00  0.00     0.064 A 
ATOM      8  C   UNL d   1     -54.730-100.862 -43.510  0.00  0.00     0.203 A 
ATOM      9  O   UNL d   1     -54.714-102.486 -42.062  0.00  0.00    -0.305 OA
ATOM     10  C   UNL d   1     -54.716-102.591 -41.236  0.00  0.00     0.126 A 
ATOM     11  O   UNL d   1     -54.744-100.510 -40.563  0.00  0.00    -0.286 OA
ATOM     12  O   UNL d   1     -54.751 -99.639 -41.706  0.00  0.00    -0.286 OA
ATOM     13  O   UNL d   1     -54.729-100.758 -44.336  0.00  0.00    -0.286 OA
ENDROOT
BRANCH   7  14
ATOM     14  C   UNL d   1     -54.727-102.022 -39.914  0.00  0.00     0.005 A 
ATOM     15  C   UNL d   1     -54.712-101.353 -39.426  0.00  0.00     0.002 A 
ATOM     16  C   UNL d   1     -54.714-101.451 -38.607  0.00  0.00     0.024 A 
ATOM     17  C   UNL d   1     -54.729-102.209 -38.276  0.00  0.00     0.094 A 
ATOM     18  C   UNL d   1     -54.744-102.870 -38.769  0.00  0.00     0.024 A 
ATOM     19  C   UNL d   1     -54.742-102.781 -39.589  0.00  0.00     0.002 A 
BRANCH  17  20
ATOM     20  O   UNL d   1     -54.731-102.307 -37.457  0.00  0.00    -0.328 OA
ATOM     21  C   UNL d   1     -55.243-102.855 -37.111  0.00  0.00     0.181 C 
ENDBRANCH  17  20
ENDBRANCH   7  14
BRANCH   3  22
ATOM     22  C   UNL d   1     -54.712-102.282 -43.685  0.00  0.00     0.085 C 
BRANCH  22  23
ATOM     23  N   UNL d   1     -55.222-102.310 -44.344  0.00  0.00    -0.302 N 
ATOM     24  C   UNL d   1     -55.995-102.026 -44.276  0.00  0.00     0.080 A 
ATOM     25  C   UNL d   1     -56.495-102.054 -44.927  0.00  0.00     0.019 A 
ATOM     26  C   UNL d   1     -56.226-102.365 -45.648  0.00  0.00     0.003 A 
ATOM     27  C   UNL d   1     -55.456-102.646 -45.712  0.00  0.00     0.019 A 
ATOM     28  C   UNL d   1     -54.948-102.621 -45.062  0.00  0.00     0.080 A 
ENDBRANCH  22  23
ENDBRANCH   3  22
BRANCH   4  29
ATOM     29  C   UNL d   1     -54.748 -99.442 -43.334  0.00  0.00     0.087 C 
BRANCH  29  30
ATOM     30  N   UNL d   1     -55.308 -99.241 -43.908  0.00  0.00    -0.302 N 
ATOM     31  C   UNL d   1     -56.103 -99.162 -43.701  0.00  0.00     0.080 A 
ATOM     32  C   UNL d   1     -56.662 -98.961 -44.274  0.00  0.00     0.019 A 
ATOM     33  C   UNL d   1     -56.425 -98.838 -45.059  0.00  0.00     0.003 A 
ATOM     34  C   UNL d   1     -55.630 -98.917 -45.266  0.00  0.00     0.019 A 
ATOM     35  C   UNL d   1     -55.071 -99.118 -44.692  0.00  0.00     0.080 A 
ENDBRANCH  29  30
ENDBRANCH   4  29
TORSDOF 6
ENDMDL
