MODEL 1
REMARK VINA RESULT:      -4.4      0.000      0.000
REMARK  7 active torsions:
REMARK  status: ('A' for Active; 'I' for Inactive)
REMARK    1  A    between atoms: S_2  and  C_1 
REMARK    2  A    between atoms: N_7  and  S_2 
REMARK    3  A    between atoms: C_8  and  C_3 
REMARK    4  A    between atoms: C_10  and  C_6 
REMARK    5  A    between atoms: O_21  and  C_8 
REMARK    6  A    between atoms: C_17  and  N_9 
REMARK    7  A    between atoms: O_22  and  C_10 
ROOT
ATOM      1  S   UNL d   1      58.141  -0.531  29.944  0.00  0.00     0.277 S 
ATOM      2  O   UNL d   1      57.607   0.071  29.758  0.00  0.00    -0.199 OA
ATOM      3  O   UNL d   1      58.231  -0.347  29.168  0.00  0.00    -0.199 OA
ENDROOT
BRANCH   1   4
ATOM      4  C   UNL d   1      58.739  -1.019  29.628  0.00  0.00     0.139 A 
ATOM      5  C   UNL d   1      59.475  -0.715  29.498  0.00  0.00     0.082 A 
ATOM      6  C   UNL d   1      59.938  -1.314  29.190  0.00  0.00     0.018 A 
ATOM      7  C   UNL d   1      60.763  -1.273  28.959  0.00  0.00     0.001 C 
ATOM      8  C   UNL d   1      59.482  -1.990  29.133  0.00  0.00     0.093 A 
ATOM      9  S   UNL d   1      58.724  -1.819  29.405  0.00  0.00    -0.069 SA
BRANCH   5  10
ATOM     10  C   UNL d   1      59.773   0.091  29.639  0.00  0.00     0.297 C 
ATOM     11  O   UNL d   1      59.688   0.677  29.057  0.00  0.00    -0.259 OA
BRANCH  10  12
ATOM     12  O   UNL d   1      60.140   0.251  30.368  0.00  0.00    -0.296 OA
ATOM     13  C   UNL d   1      60.872   0.661  30.381  0.00  0.00     0.185 C 
ENDBRANCH  10  12
ENDBRANCH   5  10
BRANCH   8  14
ATOM     14  C   UNL d   1      59.753  -2.727  28.843  0.00  0.00     0.302 C 
ATOM     15  O   UNL d   1      60.475  -2.778  28.457  0.00  0.00    -0.259 OA
BRANCH  14  16
ATOM     16  O   UNL d   1      59.266  -3.403  28.959  0.00  0.00    -0.295 OA
ATOM     17  C   UNL d   1      59.425  -4.118  28.588  0.00  0.00     0.185 C 
ENDBRANCH  14  16
ENDBRANCH   8  14
ENDBRANCH   1   4
BRANCH   1  18
ATOM     18  N   UNL d   1      57.710  -0.346  30.644  0.00  0.00    -0.226 N 
ATOM     19  C   UNL d   1      57.417  -0.949  31.168  0.00  0.00     0.111 A 
ATOM     20  C   UNL d   1      56.997  -0.751  31.850  0.00  0.00     0.100 A 
ATOM     21  N   UNL d   1      56.849   0.032  32.044  0.00  0.00    -0.301 N 
ATOM     22  C   UNL d   1      57.133   0.616  31.537  0.00  0.00     0.100 A 
ATOM     23  C   UNL d   1      57.562   0.437  30.839  0.00  0.00     0.111 A 
BRANCH  21  24
ATOM     24  C   UNL d   1      56.445   0.243  32.699  0.00  0.00     0.064 A 
ATOM     25  C   UNL d   1      56.807   0.342  33.429  0.00  0.00     0.018 A 
ATOM     26  C   UNL d   1      56.380   0.560  34.101  0.00  0.00     0.002 A 
ATOM     27  C   UNL d   1      55.577   0.682  34.038  0.00  0.00     0.000 A 
ATOM     28  C   UNL d   1      55.203   0.586  33.311  0.00  0.00     0.002 A 
ATOM     29  C   UNL d   1      55.619   0.371  32.648  0.00  0.00     0.018 A 
ENDBRANCH  21  24
ENDBRANCH   1  18
TORSDOF 7
ENDMDL
