MODEL 1
REMARK VINA RESULT:      46.6      0.000      0.000
REMARK  4 active torsions:
REMARK  status: ('A' for Active; 'I' for Inactive)
REMARK    1  A    between atoms: C_4  and  C_3 
REMARK    2  A    between atoms: S_8  and  C_5 
REMARK    3  A    between atoms: C_13  and  S_8 
REMARK    4  A    between atoms: C_14  and  C_13 
ROOT
ATOM      1  N   UNL d   1      60.608  49.415  50.857  0.00  0.00    -0.146 NA
ATOM      2  N   UNL d   1      59.982  49.621  50.376  0.00  0.00    -0.141 NA
ATOM      3  C   UNL d   1      60.461  49.054  51.583  0.00  0.00     0.126 A 
ATOM      4  C   UNL d   1      59.212  49.474  50.603  0.00  0.00     0.132 A 
ATOM      5  C   UNL d   1      59.685  48.902  51.819  0.00  0.00     0.025 A 
ATOM      6  C   UNL d   1      59.067  49.110  51.336  0.00  0.00     0.029 A 
ENDROOT
BRANCH   4   7
ATOM      7  S   UNL d   1      58.582  49.683  50.114  0.00  0.00    -0.066 SA
BRANCH   7   8
ATOM      8  C   UNL d   1      57.817  49.694  50.406  0.00  0.00     0.037 C 
BRANCH   8   9
ATOM      9  C   UNL d   1      57.220  49.297  49.998  0.00  0.00     0.006 A 
ATOM     10  C   UNL d   1      57.010  49.541  49.243  0.00  0.00     0.001 A 
ATOM     11  C   UNL d   1      56.420  49.154  48.833  0.00  0.00     0.000 A 
ATOM     12  C   UNL d   1      56.035  48.510  49.187  0.00  0.00     0.000 A 
ATOM     13  C   UNL d   1      56.249  48.273  49.938  0.00  0.00     0.000 A 
ATOM     14  C   UNL d   1      56.847  48.672  50.344  0.00  0.00     0.001 A 
ENDBRANCH   8   9
ENDBRANCH   7   8
ENDBRANCH   4   7
BRANCH   3  15
ATOM     15  C   UNL d   1      61.086  48.844  52.072  0.00  0.00     0.119 A 
ATOM     16  O   UNL d   1      61.061  48.314  52.699  0.00  0.00    -0.304 OA
ATOM     17  C   UNL d   1      61.809  48.267  53.040  0.00  0.00     0.123 A 
ATOM     18  C   UNL d   1      62.310  48.780  52.613  0.00  0.00     0.029 A 
ATOM     19  C   UNL d   1      61.866  49.137  52.016  0.00  0.00     0.028 A 
ENDBRANCH   3  15
TORSDOF 4
ENDMDL
