MODEL 1
REMARK VINA RESULT:      -9.4      0.000      0.000
REMARK  4 active torsions:
REMARK  status: ('A' for Active; 'I' for Inactive)
REMARK    1  A    between atoms: C_7  and  N_2 
REMARK    2  A    between atoms: C_12  and  C_7 
REMARK    3  A    between atoms: C_9  and  O_11 
REMARK    4  A    between atoms: O_11  and  C_12 
ROOT
ATOM      1  C   UNL d   1      54.249  33.530  54.863  0.00  0.00     0.296 A 
ATOM      2  N   UNL d   1      53.958  33.320  54.123  0.00  0.00    -0.266 N 
ATOM      3  S   UNL d   1      53.892  34.258  55.078  0.00  0.00    -0.025 SA
ATOM      4  C   UNL d   1      53.426  33.907  53.878  0.00  0.00     0.074 A 
ATOM      5  C   UNL d   1      53.386  34.482  54.463  0.00  0.00     0.050 A 
ATOM      6  O   UNL d   1      54.791  33.109  55.314  0.00  0.00    -0.259 OA
ATOM      7  C   UNL d   1      52.976  33.981  53.187  0.00  0.00     0.018 A 
ATOM      8  C   UNL d   1      52.894  35.143  54.371  0.00  0.00     0.008 A 
ATOM      9  C   UNL d   1      52.485  34.640  53.093  0.00  0.00     0.002 A 
ATOM     10  C   UNL d   1      52.444  35.214  53.678  0.00  0.00     0.001 A 
ENDROOT
BRANCH   2  11
ATOM     11  C   UNL d   1      54.160  32.642  53.698  0.00  0.00     0.110 C 
BRANCH  11  12
ATOM     12  C   UNL d   1      53.786  31.927  53.855  0.00  0.00     0.142 C 
BRANCH  12  13
ATOM     13  O   UNL d   1      53.985  31.241  53.436  0.00  0.00    -0.304 OA
BRANCH  13  14
ATOM     14  C   UNL d   1      53.527  30.559  53.512  0.00  0.00     0.100 A 
ATOM     15  C   UNL d   1      53.698  30.013  54.107  0.00  0.00     0.025 A 
ATOM     16  C   UNL d   1      53.242  29.335  54.181  0.00  0.00     0.002 A 
ATOM     17  C   UNL d   1      53.413  28.790  54.776  0.00  0.00     0.000 C 
ATOM     18  C   UNL d   1      52.615  29.203  53.661  0.00  0.00     0.000 A 
ATOM     19  C   UNL d   1      52.447  29.753  53.066  0.00  0.00     0.002 A 
ATOM     20  C   UNL d   1      52.909  30.430  52.998  0.00  0.00     0.025 A 
ENDBRANCH  13  14
ENDBRANCH  12  13
ENDBRANCH  11  12
ENDBRANCH   2  11
TORSDOF 4
ENDMDL
MODEL 2
REMARK VINA RESULT:      -8.2      2.189      4.247
REMARK  4 active torsions:
REMARK  status: ('A' for Active; 'I' for Inactive)
REMARK    1  A    between atoms: C_7  and  N_2 
REMARK    2  A    between atoms: C_12  and  C_7 
REMARK    3  A    between atoms: C_9  and  O_11 
REMARK    4  A    between atoms: O_11  and  C_12 
ROOT
ATOM      1  C   UNL d   1      53.058  32.106  53.141  0.00  0.00     0.296 A 
ATOM      2  N   UNL d   1      53.093  32.924  53.207  0.00  0.00    -0.266 N 
ATOM      3  S   UNL d   1      53.471  31.780  53.793  0.00  0.00    -0.025 SA
ATOM      4  C   UNL d   1      53.522  33.110  53.892  0.00  0.00     0.074 A 
ATOM      5  C   UNL d   1      53.754  32.409  54.251  0.00  0.00     0.050 A 
ATOM      6  O   UNL d   1      52.687  31.678  52.546  0.00  0.00    -0.259 OA
ATOM      7  C   UNL d   1      53.726  33.838  54.227  0.00  0.00     0.018 A 
ATOM      8  C   UNL d   1      54.196  32.420  54.953  0.00  0.00     0.008 A 
ATOM      9  C   UNL d   1      54.167  33.853  54.927  0.00  0.00     0.002 A 
ATOM     10  C   UNL d   1      54.399  33.152  55.286  0.00  0.00     0.001 A 
ENDROOT
BRANCH   2  11
ATOM     11  C   UNL d   1      52.759  33.468  52.684  0.00  0.00     0.110 C 
BRANCH  11  12
ATOM     12  C   UNL d   1      51.951  33.623  52.706  0.00  0.00     0.142 C 
BRANCH  12  13
ATOM     13  O   UNL d   1      51.610  34.179  52.196  0.00  0.00    -0.304 OA
BRANCH  13  14
ATOM     14  C   UNL d   1      50.802  34.342  52.237  0.00  0.00     0.100 A 
ATOM     15  C   UNL d   1      50.336  34.285  51.559  0.00  0.00     0.025 A 
ATOM     16  C   UNL d   1      49.533  34.446  51.600  0.00  0.00     0.002 A 
ATOM     17  C   UNL d   1      49.068  34.389  50.922  0.00  0.00     0.000 C 
ATOM     18  C   UNL d   1      49.196  34.665  52.321  0.00  0.00     0.000 A 
ATOM     19  C   UNL d   1      49.667  34.721  52.999  0.00  0.00     0.002 A 
ATOM     20  C   UNL d   1      50.471  34.558  52.949  0.00  0.00     0.025 A 
ENDBRANCH  13  14
ENDBRANCH  12  13
ENDBRANCH  11  12
ENDBRANCH   2  11
TORSDOF 4
ENDMDL
MODEL 3
REMARK VINA RESULT:      -7.8      1.906      4.290
REMARK  4 active torsions:
REMARK  status: ('A' for Active; 'I' for Inactive)
REMARK    1  A    between atoms: C_7  and  N_2 
REMARK    2  A    between atoms: C_12  and  C_7 
REMARK    3  A    between atoms: C_9  and  O_11 
REMARK    4  A    between atoms: O_11  and  C_12 
ROOT
ATOM      1  C   UNL d   1      53.719  32.631  54.018  0.00  0.00     0.296 A 
ATOM      2  N   UNL d   1      53.275  32.475  53.344  0.00  0.00    -0.266 N 
ATOM      3  S   UNL d   1      53.904  31.896  54.376  0.00  0.00    -0.025 SA
ATOM      4  C   UNL d   1      53.183  31.653  53.279  0.00  0.00     0.074 A 
ATOM      5  C   UNL d   1      53.569  31.298  53.911  0.00  0.00     0.050 A 
ATOM      6  O   UNL d   1      53.943  33.370  54.297  0.00  0.00    -0.259 OA
ATOM      7  C   UNL d   1      52.792  31.191  52.715  0.00  0.00     0.018 A 
ATOM      8  C   UNL d   1      53.572  30.473  53.993  0.00  0.00     0.008 A 
ATOM      9  C   UNL d   1      52.794  30.368  52.794  0.00  0.00     0.002 A 
ATOM     10  C   UNL d   1      53.180  30.013  53.426  0.00  0.00     0.001 A 
ENDROOT
BRANCH   2  11
ATOM     11  C   UNL d   1      52.973  33.038  52.822  0.00  0.00     0.110 C 
BRANCH  11  12
ATOM     12  C   UNL d   1      52.257  33.410  52.982  0.00  0.00     0.142 C 
BRANCH  12  13
ATOM     13  O   UNL d   1      51.966  34.005  52.485  0.00  0.00    -0.304 OA
BRANCH  13  14
ATOM     14  C   UNL d   1      51.171  34.224  52.518  0.00  0.00     0.100 A 
ATOM     15  C   UNL d   1      50.701  34.172  51.841  0.00  0.00     0.025 A 
ATOM     16  C   UNL d   1      49.911  34.389  51.876  0.00  0.00     0.002 A 
ATOM     17  C   UNL d   1      49.442  34.336  51.199  0.00  0.00     0.000 C 
ATOM     18  C   UNL d   1      49.591  34.660  52.586  0.00  0.00     0.000 A 
ATOM     19  C   UNL d   1      50.065  34.711  53.263  0.00  0.00     0.002 A 
ATOM     20  C   UNL d   1      50.856  34.491  53.220  0.00  0.00     0.025 A 
ENDBRANCH  13  14
ENDBRANCH  12  13
ENDBRANCH  11  12
ENDBRANCH   2  11
TORSDOF 4
ENDMDL
MODEL 4
REMARK VINA RESULT:      -7.4      2.349      4.344
REMARK  4 active torsions:
REMARK  status: ('A' for Active; 'I' for Inactive)
REMARK    1  A    between atoms: C_7  and  N_2 
REMARK    2  A    between atoms: C_12  and  C_7 
REMARK    3  A    between atoms: C_9  and  O_11 
REMARK    4  A    between atoms: O_11  and  C_12 
ROOT
ATOM      1  C   UNL d   1      53.105  34.763  54.173  0.00  0.00     0.296 A 
ATOM      2  N   UNL d   1      52.939  34.185  53.612  0.00  0.00    -0.266 N 
ATOM      3  S   UNL d   1      53.563  34.406  54.777  0.00  0.00    -0.025 SA
ATOM      4  C   UNL d   1      53.289  33.475  53.860  0.00  0.00     0.074 A 
ATOM      5  C   UNL d   1      53.671  33.610  54.574  0.00  0.00     0.050 A 
ATOM      6  O   UNL d   1      52.867  35.548  54.151  0.00  0.00    -0.259 OA
ATOM      7  C   UNL d   1      53.301  32.723  53.515  0.00  0.00     0.018 A 
ATOM      8  C   UNL d   1      54.074  32.996  54.959  0.00  0.00     0.008 A 
ATOM      9  C   UNL d   1      53.702  32.109  53.897  0.00  0.00     0.002 A 
ATOM     10  C   UNL d   1      54.084  32.244  54.611  0.00  0.00     0.001 A 
ENDROOT
BRANCH   2  11
ATOM     11  C   UNL d   1      52.501  34.292  52.921  0.00  0.00     0.110 C 
BRANCH  11  12
ATOM     12  C   UNL d   1      51.681  34.350  52.954  0.00  0.00     0.142 C 
BRANCH  12  13
ATOM     13  O   UNL d   1      51.214  34.169  52.295  0.00  0.00    -0.304 OA
BRANCH  13  14
ATOM     14  C   UNL d   1      50.420  34.392  52.273  0.00  0.00     0.100 A 
ATOM     15  C   UNL d   1      50.005  34.366  51.560  0.00  0.00     0.025 A 
ATOM     16  C   UNL d   1      49.215  34.587  51.539  0.00  0.00     0.002 A 
ATOM     17  C   UNL d   1      48.801  34.560  50.827  0.00  0.00     0.000 C 
ATOM     18  C   UNL d   1      48.840  34.834  52.232  0.00  0.00     0.000 A 
ATOM     19  C   UNL d   1      49.261  34.859  52.945  0.00  0.00     0.002 A 
ATOM     20  C   UNL d   1      50.052  34.635  52.957  0.00  0.00     0.025 A 
ENDBRANCH  13  14
ENDBRANCH  12  13
ENDBRANCH  11  12
ENDBRANCH   2  11
TORSDOF 4
ENDMDL
MODEL 5
REMARK VINA RESULT:      -7.0      1.452      4.576
REMARK  4 active torsions:
REMARK  status: ('A' for Active; 'I' for Inactive)
REMARK    1  A    between atoms: C_7  and  N_2 
REMARK    2  A    between atoms: C_12  and  C_7 
REMARK    3  A    between atoms: C_9  and  O_11 
REMARK    4  A    between atoms: O_11  and  C_12 
ROOT
ATOM      1  C   UNL d   1      52.880  30.740  52.771  0.00  0.00     0.296 A 
ATOM      2  N   UNL d   1      53.447  30.808  53.362  0.00  0.00    -0.266 N 
ATOM      3  S   UNL d   1      52.486  30.008  52.879  0.00  0.00    -0.025 SA
ATOM      4  C   UNL d   1      53.410  30.128  53.836  0.00  0.00     0.074 A 
ATOM      5  C   UNL d   1      52.821  29.638  53.540  0.00  0.00     0.050 A 
ATOM      6  O   UNL d   1      52.724  31.286  52.178  0.00  0.00    -0.259 OA
ATOM      7  C   UNL d   1      53.846  29.902  54.501  0.00  0.00     0.018 A 
ATOM      8  C   UNL d   1      52.655  28.911  53.903  0.00  0.00     0.008 A 
ATOM      9  C   UNL d   1      53.682  29.178  54.866  0.00  0.00     0.002 A 
ATOM     10  C   UNL d   1      53.094  28.688  54.570  0.00  0.00     0.001 A 
ENDROOT
BRANCH   2  11
ATOM     11  C   UNL d   1      53.965  31.441  53.467  0.00  0.00     0.110 C 
BRANCH  11  12
ATOM     12  C   UNL d   1      53.688  32.161  53.756  0.00  0.00     0.142 C 
BRANCH  12  13
ATOM     13  O   UNL d   1      54.193  32.812  53.833  0.00  0.00    -0.304 OA
BRANCH  13  14
ATOM     14  C   UNL d   1      53.948  33.482  54.248  0.00  0.00     0.100 A 
ATOM     15  C   UNL d   1      53.473  34.045  53.876  0.00  0.00     0.025 A 
ATOM     16  C   UNL d   1      53.230  34.711  54.289  0.00  0.00     0.002 A 
ATOM     17  C   UNL d   1      52.755  35.273  53.917  0.00  0.00     0.000 C 
ATOM     18  C   UNL d   1      53.463  34.814  55.074  0.00  0.00     0.000 A 
ATOM     19  C   UNL d   1      53.940  34.246  55.443  0.00  0.00     0.002 A 
ATOM     20  C   UNL d   1      54.178  33.582  55.022  0.00  0.00     0.025 A 
ENDBRANCH  13  14
ENDBRANCH  12  13
ENDBRANCH  11  12
ENDBRANCH   2  11
TORSDOF 4
ENDMDL
