MODEL 1
REMARK VINA RESULT:      -7.7      0.000      0.000
REMARK  4 active torsions:
REMARK  status: ('A' for Active; 'I' for Inactive)
REMARK    1  A    between atoms: N_5  and  C_1 
REMARK    2  A    between atoms: C_8  and  C_2 
REMARK       I    between atoms: C_7  and  N_5 
REMARK    3  A    between atoms: C_10  and  C_7 
REMARK    4  A    between atoms: N_9  and  C_8 
ROOT
ATOM      1  C   UNL d   1     -48.923  12.404  22.882  0.00  0.00     0.115 A 
ATOM      2  C   UNL d   1     -49.633  12.761  22.670  0.00  0.00     0.042 A 
ATOM      3  S   UNL d   1     -49.104  11.699  23.296  0.00  0.00    -0.068 SA
ATOM      4  C   UNL d   1     -50.253  12.282  22.950  0.00  0.00     0.009 A 
ATOM      5  C   UNL d   1     -49.910  11.633  23.333  0.00  0.00     0.031 A 
ATOM      6  C   UNL d   1     -51.064  12.420  22.866  0.00  0.00     0.001 C 
ATOM      7  C   UNL d   1     -50.318  11.010  23.698  0.00  0.00     0.007 C 
ENDROOT
BRANCH   1   8
ATOM      8  N   UNL d   1     -48.206  12.757  22.676  0.00  0.00    -0.201 NA
ATOM      9  C   UNL d   1     -47.495  12.396  22.878  0.00  0.00     0.280 C 
ATOM     10  O   UNL d   1     -47.500  11.680  23.286  0.00  0.00    -0.265 OA
BRANCH   9  11
ATOM     11  C   UNL d   1     -46.778  12.749  22.673  0.00  0.00     0.058 A 
ATOM     12  C   UNL d   1     -46.291  13.062  23.257  0.00  0.00     0.007 A 
ATOM     13  C   UNL d   1     -45.566  13.419  23.049  0.00  0.00     0.030 A 
ATOM     14  C   UNL d   1     -45.338  13.459  22.260  0.00  0.00     0.140 A 
ATOM     15  C   UNL d   1     -45.825  13.145  21.675  0.00  0.00     0.030 A 
ATOM     16  F   UNL d   1     -44.621  13.812  22.054  0.00  0.00    -0.204 F 
ATOM     17  C   UNL d   1     -46.550  12.788  21.883  0.00  0.00     0.007 A 
ENDBRANCH   9  11
ENDBRANCH   1   8
BRANCH   2  18
ATOM     18  C   UNL d   1     -49.718  13.476  22.249  0.00  0.00     0.082 C 
BRANCH  18  19
ATOM     19  N   UNL d   1     -49.842  14.183  22.657  0.00  0.00    -0.302 N 
ATOM     20  C   UNL d   1     -49.291  14.760  22.442  0.00  0.00     0.080 A 
ATOM     21  C   UNL d   1     -49.223  15.529  22.715  0.00  0.00     0.019 A 
ATOM     22  C   UNL d   1     -49.687  15.922  23.274  0.00  0.00     0.002 A 
ATOM     23  C   UNL d   1     -50.336  15.640  23.697  0.00  0.00     0.002 A 
ATOM     24  C   UNL d   1     -50.681  14.887  23.663  0.00  0.00     0.019 A 
ATOM     25  C   UNL d   1     -50.463  14.242  23.203  0.00  0.00     0.080 A 
ENDBRANCH  18  19
ENDBRANCH   2  18
TORSDOF 4
ENDMDL
MODEL 2
REMARK VINA RESULT:      -6.9      1.548      2.744
REMARK  4 active torsions:
REMARK  status: ('A' for Active; 'I' for Inactive)
REMARK    1  A    between atoms: N_5  and  C_1 
REMARK    2  A    between atoms: C_8  and  C_2 
REMARK       I    between atoms: C_7  and  N_5 
REMARK    3  A    between atoms: C_10  and  C_7 
REMARK    4  A    between atoms: N_9  and  C_8 
ROOT
ATOM      1  C   UNL d   1     -47.845  13.737  22.652  0.00  0.00     0.115 A 
ATOM      2  C   UNL d   1     -48.594  13.690  22.315  0.00  0.00     0.042 A 
ATOM      3  S   UNL d   1     -47.671  14.547  22.776  0.00  0.00    -0.068 SA
ATOM      4  C   UNL d   1     -48.885  14.464  22.229  0.00  0.00     0.009 A 
ATOM      5  C   UNL d   1     -48.305  14.980  22.518  0.00  0.00     0.031 A 
ATOM      6  C   UNL d   1     -49.617  14.688  21.915  0.00  0.00     0.001 C 
ATOM      7  C   UNL d   1     -48.356  15.807  22.543  0.00  0.00     0.007 C 
ENDROOT
BRANCH   1   8
ATOM      8  N   UNL d   1     -47.416  13.049  22.804  0.00  0.00    -0.201 NA
ATOM      9  C   UNL d   1     -46.599  13.084  22.899  0.00  0.00     0.280 C 
ATOM     10  O   UNL d   1     -46.211  13.809  22.842  0.00  0.00    -0.265 OA
BRANCH   9  11
ATOM     11  C   UNL d   1     -46.170  12.396  23.051  0.00  0.00     0.058 A 
ATOM     12  C   UNL d   1     -45.413  12.307  22.744  0.00  0.00     0.007 A 
ATOM     13  C   UNL d   1     -44.979  11.611  22.897  0.00  0.00     0.030 A 
ATOM     14  C   UNL d   1     -45.308  11.014  23.357  0.00  0.00     0.140 A 
ATOM     15  C   UNL d   1     -46.066  11.103  23.665  0.00  0.00     0.030 A 
ATOM     16  F   UNL d   1     -44.879  10.326  23.509  0.00  0.00    -0.204 F 
ATOM     17  C   UNL d   1     -46.500  11.798  23.512  0.00  0.00     0.007 A 
ENDBRANCH   9  11
ENDBRANCH   1   8
BRANCH   2  18
ATOM     18  C   UNL d   1     -48.991  12.990  22.097  0.00  0.00     0.082 C 
BRANCH  18  19
ATOM     19  N   UNL d   1     -49.575  12.676  22.590  0.00  0.00    -0.302 N 
ATOM     20  C   UNL d   1     -49.451  11.873  22.738  0.00  0.00     0.080 A 
ATOM     21  C   UNL d   1     -49.899  11.362  23.195  0.00  0.00     0.019 A 
ATOM     22  C   UNL d   1     -50.587  11.519  23.622  0.00  0.00     0.002 A 
ATOM     23  C   UNL d   1     -50.998  12.230  23.697  0.00  0.00     0.002 A 
ATOM     24  C   UNL d   1     -50.816  12.964  23.359  0.00  0.00     0.019 A 
ATOM     25  C   UNL d   1     -50.187  13.162  22.869  0.00  0.00     0.080 A 
ENDBRANCH  18  19
ENDBRANCH   2  18
TORSDOF 4
ENDMDL
MODEL 3
REMARK VINA RESULT:      -6.7      9.110     10.600
REMARK  4 active torsions:
REMARK  status: ('A' for Active; 'I' for Inactive)
REMARK    1  A    between atoms: N_5  and  C_1 
REMARK    2  A    between atoms: C_8  and  C_2 
REMARK       I    between atoms: C_7  and  N_5 
REMARK    3  A    between atoms: C_10  and  C_7 
REMARK    4  A    between atoms: N_9  and  C_8 
ROOT
ATOM      1  C   UNL d   1     -40.235  15.340  18.540  0.00  0.00     0.115 A 
ATOM      2  C   UNL d   1     -39.759  15.333  17.869  0.00  0.00     0.042 A 
ATOM      3  S   UNL d   1     -41.006  15.564  18.305  0.00  0.00    -0.068 SA
ATOM      4  C   UNL d   1     -40.230  15.551  17.219  0.00  0.00     0.009 A 
ATOM      5  C   UNL d   1     -40.995  15.690  17.505  0.00  0.00     0.031 A 
ATOM      6  C   UNL d   1     -39.989  15.619  16.431  0.00  0.00     0.001 C 
ATOM      7  C   UNL d   1     -41.651  15.921  17.052  0.00  0.00     0.007 C 
ENDROOT
BRANCH   1   8
ATOM      8  N   UNL d   1     -39.915  15.145  19.275  0.00  0.00    -0.201 NA
ATOM      9  C   UNL d   1     -40.300  15.372  19.966  0.00  0.00     0.280 C 
ATOM     10  O   UNL d   1     -41.006  15.794  19.922  0.00  0.00    -0.265 OA
BRANCH   9  11
ATOM     11  C   UNL d   1     -39.980  15.177  20.701  0.00  0.00     0.058 A 
ATOM     12  C   UNL d   1     -40.099  14.426  21.016  0.00  0.00     0.007 A 
ATOM     13  C   UNL d   1     -39.775  14.229  21.759  0.00  0.00     0.030 A 
ATOM     14  C   UNL d   1     -39.338  14.785  22.179  0.00  0.00     0.140 A 
ATOM     15  C   UNL d   1     -39.219  15.536  21.864  0.00  0.00     0.030 A 
ATOM     16  F   UNL d   1     -39.018  14.590  22.914  0.00  0.00    -0.204 F 
ATOM     17  C   UNL d   1     -39.542  15.734  21.121  0.00  0.00     0.007 A 
ENDBRANCH   9  11
ENDBRANCH   1   8
BRANCH   2  18
ATOM     18  C   UNL d   1     -38.948  15.142  17.843  0.00  0.00     0.082 C 
BRANCH  18  19
ATOM     19  N   UNL d   1     -38.706  14.404  17.562  0.00  0.00    -0.302 N 
ATOM     20  C   UNL d   1     -38.275  14.470  16.860  0.00  0.00     0.080 A 
ATOM     21  C   UNL d   1     -37.940  13.876  16.407  0.00  0.00     0.019 A 
ATOM     22  C   UNL d   1     -37.948  13.061  16.537  0.00  0.00     0.002 A 
ATOM     23  C   UNL d   1     -38.294  12.639  17.156  0.00  0.00     0.002 A 
ATOM     24  C   UNL d   1     -38.722  12.936  17.800  0.00  0.00     0.019 A 
ATOM     25  C   UNL d   1     -38.905  13.716  17.980  0.00  0.00     0.080 A 
ENDBRANCH  18  19
ENDBRANCH   2  18
TORSDOF 4
ENDMDL
MODEL 4
REMARK VINA RESULT:      -5.5      1.295      1.648
REMARK  4 active torsions:
REMARK  status: ('A' for Active; 'I' for Inactive)
REMARK    1  A    between atoms: N_5  and  C_1 
REMARK    2  A    between atoms: C_8  and  C_2 
REMARK       I    between atoms: C_7  and  N_5 
REMARK    3  A    between atoms: C_10  and  C_7 
REMARK    4  A    between atoms: N_9  and  C_8 
ROOT
ATOM      1  C   UNL d   1     -49.017  12.246  23.494  0.00  0.00     0.115 A 
ATOM      2  C   UNL d   1     -49.394  12.973  23.567  0.00  0.00     0.042 A 
ATOM      3  S   UNL d   1     -49.606  11.650  23.499  0.00  0.00    -0.068 SA
ATOM      4  C   UNL d   1     -50.212  12.833  23.618  0.00  0.00     0.009 A 
ATOM      5  C   UNL d   1     -50.326  12.014  23.574  0.00  0.00     0.031 A 
ATOM      6  C   UNL d   1     -50.810  13.400  23.697  0.00  0.00     0.001 C 
ATOM      7  C   UNL d   1     -51.055  11.620  23.603  0.00  0.00     0.007 C 
ENDROOT
BRANCH   1   8
ATOM      8  N   UNL d   1     -48.195  12.211  23.432  0.00  0.00    -0.201 NA
ATOM      9  C   UNL d   1     -47.805  11.491  23.517  0.00  0.00     0.280 C 
ATOM     10  O   UNL d   1     -48.238  10.805  23.665  0.00  0.00    -0.265 OA
BRANCH   9  11
ATOM     11  C   UNL d   1     -46.983  11.456  23.455  0.00  0.00     0.058 A 
ATOM     12  C   UNL d   1     -46.580  10.781  23.698  0.00  0.00     0.007 A 
ATOM     13  C   UNL d   1     -45.749  10.746  23.635  0.00  0.00     0.030 A 
ATOM     14  C   UNL d   1     -45.331  11.385  23.330  0.00  0.00     0.140 A 
ATOM     15  C   UNL d   1     -45.734  12.061  23.087  0.00  0.00     0.030 A 
ATOM     16  F   UNL d   1     -44.509  11.350  23.268  0.00  0.00    -0.204 F 
ATOM     17  C   UNL d   1     -46.565  12.096  23.150  0.00  0.00     0.007 A 
ENDBRANCH   9  11
ENDBRANCH   1   8
BRANCH   2  18
ATOM     18  C   UNL d   1     -49.023  13.720  23.587  0.00  0.00     0.082 C 
BRANCH  18  19
ATOM     19  N   UNL d   1     -48.995  14.186  22.906  0.00  0.00    -0.302 N 
ATOM     20  C   UNL d   1     -48.582  14.890  23.033  0.00  0.00     0.080 A 
ATOM     21  C   UNL d   1     -48.431  15.497  22.506  0.00  0.00     0.019 A 
ATOM     22  C   UNL d   1     -48.654  15.560  21.713  0.00  0.00     0.002 A 
ATOM     23  C   UNL d   1     -49.084  15.028  21.253  0.00  0.00     0.002 A 
ATOM     24  C   UNL d   1     -49.398  14.296  21.478  0.00  0.00     0.019 A 
ATOM     25  C   UNL d   1     -49.360  13.922  22.209  0.00  0.00     0.080 A 
ENDBRANCH  18  19
ENDBRANCH   2  18
TORSDOF 4
ENDMDL
MODEL 5
REMARK VINA RESULT:      -4.9      8.646     10.399
REMARK  4 active torsions:
REMARK  status: ('A' for Active; 'I' for Inactive)
REMARK    1  A    between atoms: N_5  and  C_1 
REMARK    2  A    between atoms: C_8  and  C_2 
REMARK       I    between atoms: C_7  and  N_5 
REMARK    3  A    between atoms: C_10  and  C_7 
REMARK    4  A    between atoms: N_9  and  C_8 
ROOT
ATOM      1  C   UNL d   1     -38.387  13.992  20.260  0.00  0.00     0.115 A 
ATOM      2  C   UNL d   1     -38.613  14.642  20.710  0.00  0.00     0.042 A 
ATOM      3  S   UNL d   1     -38.146  13.387  20.788  0.00  0.00    -0.068 SA
ATOM      4  C   UNL d   1     -38.514  14.446  21.512  0.00  0.00     0.009 A 
ATOM      5  C   UNL d   1     -38.226  13.670  21.542  0.00  0.00     0.031 A 
ATOM      6  C   UNL d   1     -38.672  14.929  22.165  0.00  0.00     0.001 C 
ATOM      7  C   UNL d   1     -38.046  13.244  22.230  0.00  0.00     0.007 C 
ENDROOT
BRANCH   1   8
ATOM      8  N   UNL d   1     -38.426  14.024  19.437  0.00  0.00    -0.201 NA
ATOM      9  C   UNL d   1     -38.213  13.369  18.987  0.00  0.00     0.280 C 
ATOM     10  O   UNL d   1     -37.961  12.679  19.361  0.00  0.00    -0.265 OA
BRANCH   9  11
ATOM     11  C   UNL d   1     -38.252  13.402  18.164  0.00  0.00     0.058 A 
ATOM     12  C   UNL d   1     -38.602  12.788  17.743  0.00  0.00     0.007 A 
ATOM     13  C   UNL d   1     -38.642  12.821  16.911  0.00  0.00     0.030 A 
ATOM     14  C   UNL d   1     -38.330  13.467  16.509  0.00  0.00     0.140 A 
ATOM     15  C   UNL d   1     -37.979  14.082  16.929  0.00  0.00     0.030 A 
ATOM     16  F   UNL d   1     -38.369  13.500  15.685  0.00  0.00    -0.204 F 
ATOM     17  C   UNL d   1     -37.940  14.049  17.762  0.00  0.00     0.007 A 
ENDBRANCH   9  11
ENDBRANCH   1   8
BRANCH   2  18
ATOM     18  C   UNL d   1     -38.892  15.371  20.414  0.00  0.00     0.082 C 
BRANCH  18  19
ATOM     19  N   UNL d   1     -39.700  15.542  20.433  0.00  0.00    -0.302 N 
ATOM     20  C   UNL d   1     -40.014  15.623  19.674  0.00  0.00     0.080 A 
ATOM     21  C   UNL d   1     -40.784  15.791  19.454  0.00  0.00     0.019 A 
ATOM     22  C   UNL d   1     -41.442  15.922  19.935  0.00  0.00     0.002 A 
ATOM     23  C   UNL d   1     -41.490  15.917  20.759  0.00  0.00     0.002 A 
ATOM     24  C   UNL d   1     -40.883  15.778  21.304  0.00  0.00     0.019 A 
ATOM     25  C   UNL d   1     -40.091  15.612  21.162  0.00  0.00     0.080 A 
ENDBRANCH  18  19
ENDBRANCH   2  18
TORSDOF 4
ENDMDL
