MODEL 1
REMARK VINA RESULT:      -8.6      0.000      0.000
REMARK  5 active torsions:
REMARK  status: ('A' for Active; 'I' for Inactive)
REMARK    1  A    between atoms: S_2  and  C_1 
REMARK    2  A    between atoms: C_5  and  C_1 
REMARK    3  A    between atoms: C_10  and  S_2 
REMARK       I    between atoms: N_9  and  C_5 
REMARK    4  A    between atoms: C_19  and  N_9 
REMARK    5  A    between atoms: C_18  and  C_19 
ROOT
ATOM      1  C   UNL d   1     -48.860  11.977  22.935  0.00  0.00     0.277 C 
ATOM      2  N   UNL d   1     -48.030  12.019  23.012  0.00  0.00    -0.209 NA
ATOM      3  O   UNL d   1     -49.280  11.430  23.401  0.00  0.00    -0.268 OA
ENDROOT
BRANCH   1   4
ATOM      4  C   UNL d   1     -49.267  12.466  22.409  0.00  0.00     0.207 A 
ATOM      5  C   UNL d   1     -49.669  12.954  21.891  0.00  0.00    -0.001 A 
ATOM      6  C   UNL d   1     -49.463  12.190  21.648  0.00  0.00    -0.001 A 
BRANCH   4   7
ATOM      7  S   UNL d   1     -49.481  13.229  22.633  0.00  0.00     0.203 S 
ATOM      8  O   UNL d   1     -48.928  13.540  22.071  0.00  0.00    -0.221 OA
ATOM      9  O   UNL d   1     -50.012  12.918  23.172  0.00  0.00    -0.221 OA
BRANCH   7  10
ATOM     10  C   UNL d   1     -49.686  13.998  22.847  0.00  0.00     0.085 A 
ATOM     11  C   UNL d   1     -49.174  14.619  22.665  0.00  0.00     0.011 A 
ATOM     12  C   UNL d   1     -49.368  15.388  22.874  0.00  0.00     0.001 A 
ATOM     13  C   UNL d   1     -50.084  15.544  23.271  0.00  0.00     0.000 A 
ATOM     14  C   UNL d   1     -50.593  14.922  23.451  0.00  0.00     0.001 A 
ATOM     15  C   UNL d   1     -50.401  14.156  23.244  0.00  0.00     0.011 A 
ENDBRANCH   7  10
ENDBRANCH   4   7
ENDBRANCH   1   4
BRANCH   2  16
ATOM     16  C   UNL d   1     -47.618  11.515  23.553  0.00  0.00     0.102 C 
BRANCH  16  17
ATOM     17  C   UNL d   1     -46.778  11.442  23.497  0.00  0.00     0.021 A 
ATOM     18  C   UNL d   1     -46.421  10.718  23.647  0.00  0.00     0.028 A 
ATOM     19  C   UNL d   1     -45.594  10.660  23.589  0.00  0.00     0.119 A 
ATOM     20  O   UNL d   1     -45.075  10.044  23.698  0.00  0.00    -0.300 OA
ATOM     21  C   UNL d   1     -45.146  11.329  23.381  0.00  0.00     0.119 A 
ATOM     22  C   UNL d   1     -44.331  10.327  23.561  0.00  0.00     0.304 A 
ATOM     23  O   UNL d   1     -44.370  11.098  23.371  0.00  0.00    -0.300 OA
ATOM     24  C   UNL d   1     -45.532  12.046  23.235  0.00  0.00     0.026 A 
ATOM     25  C   UNL d   1     -46.350  12.081  23.298  0.00  0.00     0.004 A 
ENDBRANCH  16  17
ENDBRANCH   2  16
TORSDOF 5
ENDMDL
MODEL 2
REMARK VINA RESULT:      -7.7      8.793     10.267
REMARK  5 active torsions:
REMARK  status: ('A' for Active; 'I' for Inactive)
REMARK    1  A    between atoms: S_2  and  C_1 
REMARK    2  A    between atoms: C_5  and  C_1 
REMARK    3  A    between atoms: C_10  and  S_2 
REMARK       I    between atoms: N_9  and  C_5 
REMARK    4  A    between atoms: C_19  and  N_9 
REMARK    5  A    between atoms: C_18  and  C_19 
ROOT
ATOM      1  C   UNL d   1     -40.681  14.769  18.220  0.00  0.00     0.277 C 
ATOM      2  N   UNL d   1     -40.497  15.110  18.959  0.00  0.00    -0.209 NA
ATOM      3  O   UNL d   1     -40.940  13.979  18.194  0.00  0.00    -0.268 OA
ENDROOT
BRANCH   1   4
ATOM      4  C   UNL d   1     -40.609  15.201  17.520  0.00  0.00     0.207 A 
ATOM      5  C   UNL d   1     -40.534  15.627  16.826  0.00  0.00    -0.001 A 
ATOM      6  C   UNL d   1     -41.215  15.723  17.286  0.00  0.00    -0.001 A 
BRANCH   4   7
ATOM      7  S   UNL d   1     -39.938  15.120  17.048  0.00  0.00     0.203 S 
ATOM      8  O   UNL d   1     -40.279  14.426  16.701  0.00  0.00    -0.221 OA
ATOM      9  O   UNL d   1     -39.621  15.791  17.392  0.00  0.00    -0.221 OA
BRANCH   7  10
ATOM     10  C   UNL d   1     -39.274  15.027  16.571  0.00  0.00     0.085 A 
ATOM     11  C   UNL d   1     -38.890  15.696  16.277  0.00  0.00     0.011 A 
ATOM     12  C   UNL d   1     -38.228  15.615  15.801  0.00  0.00     0.001 A 
ATOM     13  C   UNL d   1     -37.940  14.856  15.613  0.00  0.00     0.000 A 
ATOM     14  C   UNL d   1     -38.324  14.190  15.908  0.00  0.00     0.001 A 
ATOM     15  C   UNL d   1     -38.984  14.270  16.382  0.00  0.00     0.011 A 
ENDBRANCH   7  10
ENDBRANCH   4   7
ENDBRANCH   1   4
BRANCH   2  16
ATOM     16  C   UNL d   1     -40.573  14.663  19.674  0.00  0.00     0.102 C 
BRANCH  16  17
ATOM     17  C   UNL d   1     -40.310  14.998  20.404  0.00  0.00     0.021 A 
ATOM     18  C   UNL d   1     -39.620  14.722  20.754  0.00  0.00     0.028 A 
ATOM     19  C   UNL d   1     -39.373  15.060  21.472  0.00  0.00     0.119 A 
ATOM     20  O   UNL d   1     -38.734  14.923  21.955  0.00  0.00    -0.300 OA
ATOM     21  C   UNL d   1     -39.824  15.664  21.822  0.00  0.00     0.119 A 
ATOM     22  C   UNL d   1     -38.792  15.428  22.582  0.00  0.00     0.304 A 
ATOM     23  O   UNL d   1     -39.445  15.875  22.506  0.00  0.00    -0.300 OA
ATOM     24  C   UNL d   1     -40.515  15.922  21.448  0.00  0.00     0.026 A 
ATOM     25  C   UNL d   1     -40.741  15.575  20.738  0.00  0.00     0.004 A 
ENDBRANCH  16  17
ENDBRANCH   2  16
TORSDOF 5
ENDMDL
MODEL 3
REMARK VINA RESULT:      -7.4      8.536     10.101
REMARK  5 active torsions:
REMARK  status: ('A' for Active; 'I' for Inactive)
REMARK    1  A    between atoms: S_2  and  C_1 
REMARK    2  A    between atoms: C_5  and  C_1 
REMARK    3  A    between atoms: C_10  and  S_2 
REMARK       I    between atoms: N_9  and  C_5 
REMARK    4  A    between atoms: C_19  and  N_9 
REMARK    5  A    between atoms: C_18  and  C_19 
ROOT
ATOM      1  C   UNL d   1     -40.521  14.578  20.069  0.00  0.00     0.277 C 
ATOM      2  N   UNL d   1     -40.164  14.735  19.331  0.00  0.00    -0.209 NA
ATOM      3  O   UNL d   1     -41.185  14.078  20.097  0.00  0.00    -0.268 OA
ENDROOT
BRANCH   1   4
ATOM      4  C   UNL d   1     -40.227  14.910  20.766  0.00  0.00     0.207 A 
ATOM      5  C   UNL d   1     -39.933  15.235  21.456  0.00  0.00    -0.001 A 
ATOM      6  C   UNL d   1     -40.446  15.683  20.986  0.00  0.00    -0.001 A 
BRANCH   4   7
ATOM      7  S   UNL d   1     -39.715  14.480  21.247  0.00  0.00     0.203 S 
ATOM      8  O   UNL d   1     -39.092  15.019  21.052  0.00  0.00    -0.221 OA
ATOM      9  O   UNL d   1     -40.326  13.966  21.428  0.00  0.00    -0.221 OA
BRANCH   7  10
ATOM     10  C   UNL d   1     -39.194  14.058  21.726  0.00  0.00     0.085 A 
ATOM     11  C   UNL d   1     -39.401  13.902  22.509  0.00  0.00     0.011 A 
ATOM     12  C   UNL d   1     -38.889  13.483  22.995  0.00  0.00     0.001 A 
ATOM     13  C   UNL d   1     -38.159  13.214  22.697  0.00  0.00     0.000 A 
ATOM     14  C   UNL d   1     -37.955  13.372  21.915  0.00  0.00     0.001 A 
ATOM     15  C   UNL d   1     -38.464  13.789  21.431  0.00  0.00     0.011 A 
ENDBRANCH   7  10
ENDBRANCH   4   7
ENDBRANCH   1   4
BRANCH   2  16
ATOM     16  C   UNL d   1     -40.469  14.392  18.620  0.00  0.00     0.102 C 
BRANCH  16  17
ATOM     17  C   UNL d   1     -40.051  14.498  17.894  0.00  0.00     0.021 A 
ATOM     18  C   UNL d   1     -39.475  13.956  17.672  0.00  0.00     0.028 A 
ATOM     19  C   UNL d   1     -39.071  14.072  16.955  0.00  0.00     0.119 A 
ATOM     20  O   UNL d   1     -38.485  13.654  16.579  0.00  0.00    -0.300 OA
ATOM     21  C   UNL d   1     -39.254  14.728  16.478  0.00  0.00     0.119 A 
ATOM     22  C   UNL d   1     -38.314  14.042  15.891  0.00  0.00     0.304 A 
ATOM     23  O   UNL d   1     -38.774  14.687  15.828  0.00  0.00    -0.300 OA
ATOM     24  C   UNL d   1     -39.839  15.258  16.726  0.00  0.00     0.026 A 
ATOM     25  C   UNL d   1     -40.226  15.125  17.438  0.00  0.00     0.004 A 
ENDBRANCH  16  17
ENDBRANCH   2  16
TORSDOF 5
ENDMDL
MODEL 4
REMARK VINA RESULT:      -7.3      1.470      2.375
REMARK  5 active torsions:
REMARK  status: ('A' for Active; 'I' for Inactive)
REMARK    1  A    between atoms: S_2  and  C_1 
REMARK    2  A    between atoms: C_5  and  C_1 
REMARK    3  A    between atoms: C_10  and  S_2 
REMARK       I    between atoms: N_9  and  C_5 
REMARK    4  A    between atoms: C_19  and  N_9 
REMARK    5  A    between atoms: C_18  and  C_19 
ROOT
ATOM      1  C   UNL d   1     -48.154  14.143  22.573  0.00  0.00     0.277 C 
ATOM      2  N   UNL d   1     -47.484  13.663  22.442  0.00  0.00    -0.209 NA
ATOM      3  O   UNL d   1     -48.078  14.819  23.052  0.00  0.00    -0.268 OA
ENDROOT
BRANCH   1   4
ATOM      4  C   UNL d   1     -48.885  13.958  22.237  0.00  0.00     0.207 A 
ATOM      5  C   UNL d   1     -49.610  13.771  21.908  0.00  0.00    -0.001 A 
ATOM      6  C   UNL d   1     -49.132  14.335  21.537  0.00  0.00    -0.001 A 
BRANCH   4   7
ATOM      7  S   UNL d   1     -49.376  13.399  22.592  0.00  0.00     0.203 S 
ATOM      8  O   UNL d   1     -49.361  13.853  23.307  0.00  0.00    -0.221 OA
ATOM      9  O   UNL d   1     -49.382  12.969  21.896  0.00  0.00    -0.221 OA
BRANCH   7  10
ATOM     10  C   UNL d   1     -49.866  12.848  22.959  0.00  0.00     0.085 A 
ATOM     11  C   UNL d   1     -50.569  13.102  23.309  0.00  0.00     0.011 A 
ATOM     12  C   UNL d   1     -51.065  12.562  23.677  0.00  0.00     0.001 A 
ATOM     13  C   UNL d   1     -50.859  11.754  23.698  0.00  0.00     0.000 A 
ATOM     14  C   UNL d   1     -50.156  11.504  23.348  0.00  0.00     0.001 A 
ATOM     15  C   UNL d   1     -49.663  12.041  22.982  0.00  0.00     0.011 A 
ENDBRANCH   7  10
ENDBRANCH   4   7
ENDBRANCH   1   4
BRANCH   2  16
ATOM     16  C   UNL d   1     -46.736  13.857  22.788  0.00  0.00     0.102 C 
BRANCH  16  17
ATOM     17  C   UNL d   1     -46.078  13.339  22.677  0.00  0.00     0.021 A 
ATOM     18  C   UNL d   1     -45.444  13.579  22.214  0.00  0.00     0.028 A 
ATOM     19  C   UNL d   1     -44.804  13.060  22.113  0.00  0.00     0.119 A 
ATOM     20  O   UNL d   1     -44.106  13.118  21.701  0.00  0.00    -0.300 OA
ATOM     21  C   UNL d   1     -44.815  12.313  22.479  0.00  0.00     0.119 A 
ATOM     22  C   UNL d   1     -43.700  12.428  21.812  0.00  0.00     0.304 A 
ATOM     23  O   UNL d   1     -44.123  11.942  22.279  0.00  0.00    -0.300 OA
ATOM     24  C   UNL d   1     -45.466  12.098  22.941  0.00  0.00     0.026 A 
ATOM     25  C   UNL d   1     -46.089  12.626  23.027  0.00  0.00     0.004 A 
ENDBRANCH  16  17
ENDBRANCH   2  16
TORSDOF 5
ENDMDL
MODEL 5
REMARK VINA RESULT:      -7.3      1.389      1.836
REMARK  5 active torsions:
REMARK  status: ('A' for Active; 'I' for Inactive)
REMARK    1  A    between atoms: S_2  and  C_1 
REMARK    2  A    between atoms: C_5  and  C_1 
REMARK    3  A    between atoms: C_10  and  S_2 
REMARK       I    between atoms: N_9  and  C_5 
REMARK    4  A    between atoms: C_19  and  N_9 
REMARK    5  A    between atoms: C_18  and  C_19 
ROOT
ATOM      1  C   UNL d   1     -49.722  12.192  22.471  0.00  0.00     0.277 C 
ATOM      2  N   UNL d   1     -48.979  12.119  22.845  0.00  0.00    -0.209 NA
ATOM      3  O   UNL d   1     -49.798  11.955  21.677  0.00  0.00    -0.268 OA
ENDROOT
BRANCH   1   4
ATOM      4  C   UNL d   1     -50.376  12.495  22.874  0.00  0.00     0.207 A 
ATOM      5  C   UNL d   1     -51.022  12.798  23.272  0.00  0.00    -0.001 A 
ATOM      6  C   UNL d   1     -50.908  11.978  23.254  0.00  0.00    -0.001 A 
BRANCH   4   7
ATOM      7  S   UNL d   1     -50.507  13.307  22.903  0.00  0.00     0.203 S 
ATOM      8  O   UNL d   1     -50.207  13.318  23.696  0.00  0.00    -0.221 OA
ATOM      9  O   UNL d   1     -50.794  13.284  22.138  0.00  0.00    -0.221 OA
BRANCH   7  10
ATOM     10  C   UNL d   1     -50.632  14.120  22.946  0.00  0.00     0.085 A 
ATOM     11  C   UNL d   1     -50.935  14.517  22.288  0.00  0.00     0.011 A 
ATOM     12  C   UNL d   1     -51.064  15.326  22.319  0.00  0.00     0.001 A 
ATOM     13  C   UNL d   1     -50.890  15.750  23.015  0.00  0.00     0.000 A 
ATOM     14  C   UNL d   1     -50.588  15.351  23.669  0.00  0.00     0.001 A 
ATOM     15  C   UNL d   1     -50.459  14.546  23.639  0.00  0.00     0.011 A 
ENDBRANCH   7  10
ENDBRANCH   4   7
ENDBRANCH   1   4
BRANCH   2  16
ATOM     16  C   UNL d   1     -48.312  11.808  22.428  0.00  0.00     0.102 C 
BRANCH  16  17
ATOM     17  C   UNL d   1     -47.537  12.092  22.611  0.00  0.00     0.021 A 
ATOM     18  C   UNL d   1     -47.157  12.602  22.090  0.00  0.00     0.028 A 
ATOM     19  C   UNL d   1     -46.396  12.874  22.281  0.00  0.00     0.119 A 
ATOM     20  O   UNL d   1     -45.876  13.369  21.901  0.00  0.00    -0.300 OA
ATOM     21  C   UNL d   1     -46.034  12.629  22.989  0.00  0.00     0.119 A 
ATOM     22  C   UNL d   1     -45.215  13.426  22.363  0.00  0.00     0.304 A 
ATOM     23  O   UNL d   1     -45.307  12.983  23.016  0.00  0.00    -0.300 OA
ATOM     24  C   UNL d   1     -46.441  12.116  23.495  0.00  0.00     0.026 A 
ATOM     25  C   UNL d   1     -47.192  11.859  23.286  0.00  0.00     0.004 A 
ENDBRANCH  16  17
ENDBRANCH   2  16
TORSDOF 5
ENDMDL
MODEL 6
REMARK VINA RESULT:      -7.2      8.995     10.176
REMARK  5 active torsions:
REMARK  status: ('A' for Active; 'I' for Inactive)
REMARK    1  A    between atoms: S_2  and  C_1 
REMARK    2  A    between atoms: C_5  and  C_1 
REMARK    3  A    between atoms: C_10  and  S_2 
REMARK       I    between atoms: N_9  and  C_5 
REMARK    4  A    between atoms: C_19  and  N_9 
REMARK    5  A    between atoms: C_18  and  C_19 
ROOT
ATOM      1  C   UNL d   1     -39.759  14.933  19.268  0.00  0.00     0.277 C 
ATOM      2  N   UNL d   1     -39.507  14.437  19.890  0.00  0.00    -0.209 NA
ATOM      3  O   UNL d   1     -39.651  15.755  19.340  0.00  0.00    -0.268 OA
ENDROOT
BRANCH   1   4
ATOM      4  C   UNL d   1     -40.112  14.623  18.589  0.00  0.00     0.207 A 
ATOM      5  C   UNL d   1     -40.458  14.316  17.916  0.00  0.00    -0.001 A 
ATOM      6  C   UNL d   1     -40.938  14.521  18.557  0.00  0.00    -0.001 A 
BRANCH   4   7
ATOM      7  S   UNL d   1     -39.650  14.412  17.941  0.00  0.00     0.203 S 
ATOM      8  O   UNL d   1     -39.889  13.606  18.044  0.00  0.00    -0.221 OA
ATOM      9  O   UNL d   1     -39.428  15.194  17.851  0.00  0.00    -0.221 OA
BRANCH   7  10
ATOM     10  C   UNL d   1     -39.193  14.188  17.294  0.00  0.00     0.085 A 
ATOM     11  C   UNL d   1     -39.164  14.679  16.630  0.00  0.00     0.011 A 
ATOM     12  C   UNL d   1     -38.711  14.466  15.980  0.00  0.00     0.001 A 
ATOM     13  C   UNL d   1     -38.279  13.753  15.988  0.00  0.00     0.000 A 
ATOM     14  C   UNL d   1     -38.311  13.266  16.652  0.00  0.00     0.001 A 
ATOM     15  C   UNL d   1     -38.761  13.477  17.299  0.00  0.00     0.011 A 
ENDBRANCH   7  10
ENDBRANCH   4   7
ENDBRANCH   1   4
BRANCH   2  16
ATOM     16  C   UNL d   1     -39.145  14.760  20.584  0.00  0.00     0.102 C 
BRANCH  16  17
ATOM     17  C   UNL d   1     -38.862  14.240  21.186  0.00  0.00     0.021 A 
ATOM     18  C   UNL d   1     -39.229  14.229  21.921  0.00  0.00     0.028 A 
ATOM     19  C   UNL d   1     -38.940  13.713  22.505  0.00  0.00     0.119 A 
ATOM     20  O   UNL d   1     -39.167  13.565  23.271  0.00  0.00    -0.300 OA
ATOM     21  C   UNL d   1     -38.291  13.221  22.338  0.00  0.00     0.119 A 
ATOM     22  C   UNL d   1     -38.671  12.999  23.565  0.00  0.00     0.304 A 
ATOM     23  O   UNL d   1     -38.143  12.790  23.007  0.00  0.00    -0.300 OA
ATOM     24  C   UNL d   1     -37.940  13.253  21.589  0.00  0.00     0.026 A 
ATOM     25  C   UNL d   1     -38.242  13.770  21.027  0.00  0.00     0.004 A 
ENDBRANCH  16  17
ENDBRANCH   2  16
TORSDOF 5
ENDMDL
