MODEL 1
REMARK VINA RESULT:      75.9      0.000      0.000
REMARK  5 active torsions:
REMARK  status: ('A' for Active; 'I' for Inactive)
REMARK    1  A    between atoms: C_14  and  N_3 
REMARK    2  A    between atoms: C_13  and  N_7 
REMARK    3  A    between atoms: C_10  and  C_13 
REMARK       I    between atoms: N_11  and  C_10 
REMARK    4  A    between atoms: C_21  and  N_12 
REMARK    5  A    between atoms: C_22  and  C_14 
ROOT
ATOM      1  C   UNL d   1     -50.652  25.970  33.651  0.00  0.00     0.191 A 
ATOM      2  C   UNL d   1     -50.863  26.765  33.520  0.00  0.00     0.196 A 
ATOM      3  N   UNL d   1     -51.330  25.509  33.519  0.00  0.00    -0.191 N 
ATOM      4  N   UNL d   1     -49.887  25.785  33.868  0.00  0.00    -0.204 NA
ATOM      5  N   UNL d   1     -51.666  26.776  33.310  0.00  0.00    -0.122 NA
ATOM      6  N   UNL d   1     -51.938  26.014  33.312  0.00  0.00    -0.058 NA
ATOM      7  N   UNL d   1     -49.530  27.170  33.828  0.00  0.00    -0.249 N 
ATOM      8  C   UNL d   1     -50.303  27.352  33.610  0.00  0.00     0.289 A 
ATOM      9  C   UNL d   1     -49.319  26.375  33.959  0.00  0.00     0.187 A 
ATOM     10  O   UNL d   1     -50.514  28.147  33.479  0.00  0.00    -0.265 OA
ENDROOT
BRANCH   7  11
ATOM     11  C   UNL d   1     -48.955  27.761  33.921  0.00  0.00     0.146 C 
BRANCH  11  12
ATOM     12  C   UNL d   1     -48.666  27.954  34.677  0.00  0.00     0.283 C 
ATOM     13  N   UNL d   1     -48.357  28.702  34.812  0.00  0.00    -0.268 N 
ATOM     14  C   UNL d   1     -48.339  29.246  34.192  0.00  0.00     0.102 A 
ATOM     15  C   UNL d   1     -48.075  28.889  35.551  0.00  0.00     0.102 A 
ATOM     16  C   UNL d   1     -48.026  29.999  34.332  0.00  0.00     0.100 A 
ATOM     17  N   UNL d   1     -47.737  30.198  35.082  0.00  0.00    -0.301 N 
ATOM     18  C   UNL d   1     -47.761  29.643  35.692  0.00  0.00     0.100 A 
ATOM     19  O   UNL d   1     -48.694  27.394  35.282  0.00  0.00    -0.265 OA
BRANCH  17  20
ATOM     20  C   UNL d   1     -47.428  30.945  35.217  0.00  0.00     0.064 A 
ATOM     21  C   UNL d   1     -47.465  31.505  34.628  0.00  0.00     0.018 A 
ATOM     22  C   UNL d   1     -47.154  32.260  34.760  0.00  0.00     0.002 A 
ATOM     23  C   UNL d   1     -46.808  32.440  35.487  0.00  0.00     0.000 A 
ATOM     24  C   UNL d   1     -46.774  31.865  36.081  0.00  0.00     0.002 A 
ATOM     25  C   UNL d   1     -47.085  31.110  35.949  0.00  0.00     0.018 A 
ENDBRANCH  17  20
ENDBRANCH  11  12
ENDBRANCH   7  11
BRANCH   3  26
ATOM     26  C   UNL d   1     -51.383  24.676  33.584  0.00  0.00     0.104 C 
BRANCH  26  27
ATOM     27  C   UNL d   1     -52.129  24.308  33.576  0.00  0.00     0.019 A 
ATOM     28  C   UNL d   1     -52.209  23.533  33.306  0.00  0.00     0.002 A 
ATOM     29  C   UNL d   1     -52.944  23.192  33.306  0.00  0.00     0.000 A 
ATOM     30  C   UNL d   1     -53.604  23.591  33.566  0.00  0.00     0.000 A 
ATOM     31  C   UNL d   1     -53.519  24.387  33.844  0.00  0.00     0.000 A 
ATOM     32  C   UNL d   1     -52.778  24.733  33.844  0.00  0.00     0.002 A 
ENDBRANCH  26  27
ENDBRANCH   3  26
TORSDOF 5
ENDMDL
MODEL 2
REMARK VINA RESULT:      77.0      1.099      1.886
REMARK  5 active torsions:
REMARK  status: ('A' for Active; 'I' for Inactive)
REMARK    1  A    between atoms: C_14  and  N_3 
REMARK    2  A    between atoms: C_13  and  N_7 
REMARK    3  A    between atoms: C_10  and  C_13 
REMARK       I    between atoms: N_11  and  C_10 
REMARK    4  A    between atoms: C_21  and  N_12 
REMARK    5  A    between atoms: C_22  and  C_14 
ROOT
ATOM      1  C   UNL d   1     -51.294  24.881  33.311  0.00  0.00     0.191 A 
ATOM      2  C   UNL d   1     -50.477  24.719  33.316  0.00  0.00     0.196 A 
ATOM      3  N   UNL d   1     -51.691  24.153  33.312  0.00  0.00    -0.191 N 
ATOM      4  N   UNL d   1     -51.552  25.656  33.306  0.00  0.00    -0.204 NA
ATOM      5  N   UNL d   1     -50.389  23.894  33.321  0.00  0.00    -0.122 NA
ATOM      6  N   UNL d   1     -51.127  23.561  33.318  0.00  0.00    -0.058 NA
ATOM      7  N   UNL d   1     -50.198  26.118  33.312  0.00  0.00    -0.249 N 
ATOM      8  C   UNL d   1     -49.942  25.335  33.317  0.00  0.00     0.289 A 
ATOM      9  C   UNL d   1     -51.015  26.281  33.306  0.00  0.00     0.187 A 
ATOM     10  O   UNL d   1     -49.125  25.173  33.322  0.00  0.00    -0.265 OA
ENDROOT
BRANCH   7  11
ATOM     11  C   UNL d   1     -49.661  26.751  33.312  0.00  0.00     0.146 C 
BRANCH  11  12
ATOM     12  C   UNL d   1     -49.904  27.512  33.541  0.00  0.00     0.283 C 
ATOM     13  N   UNL d   1     -49.385  27.995  33.953  0.00  0.00    -0.268 N 
ATOM     14  C   UNL d   1     -48.631  27.713  34.132  0.00  0.00     0.102 A 
ATOM     15  C   UNL d   1     -49.624  28.740  34.176  0.00  0.00     0.102 A 
ATOM     16  C   UNL d   1     -48.110  28.202  34.548  0.00  0.00     0.100 A 
ATOM     17  N   UNL d   1     -48.346  28.962  34.779  0.00  0.00    -0.301 N 
ATOM     18  C   UNL d   1     -49.104  29.230  34.592  0.00  0.00     0.100 A 
ATOM     19  O   UNL d   1     -50.663  27.774  33.351  0.00  0.00    -0.265 OA
BRANCH  17  20
ATOM     20  C   UNL d   1     -47.827  29.445  35.191  0.00  0.00     0.064 A 
ATOM     21  C   UNL d   1     -47.465  30.062  34.806  0.00  0.00     0.018 A 
ATOM     22  C   UNL d   1     -46.941  30.552  35.218  0.00  0.00     0.002 A 
ATOM     23  C   UNL d   1     -46.789  30.411  36.017  0.00  0.00     0.000 A 
ATOM     24  C   UNL d   1     -47.162  29.780  36.402  0.00  0.00     0.002 A 
ATOM     25  C   UNL d   1     -47.686  29.291  35.989  0.00  0.00     0.018 A 
ENDBRANCH  17  20
ENDBRANCH  11  12
ENDBRANCH   7  11
BRANCH   3  26
ATOM     26  C   UNL d   1     -52.520  24.041  33.308  0.00  0.00     0.104 C 
BRANCH  26  27
ATOM     27  C   UNL d   1     -52.920  23.878  34.019  0.00  0.00     0.019 A 
ATOM     28  C   UNL d   1     -53.541  23.337  34.035  0.00  0.00     0.002 A 
ATOM     29  C   UNL d   1     -53.918  23.192  34.738  0.00  0.00     0.000 A 
ATOM     30  C   UNL d   1     -53.699  23.566  35.428  0.00  0.00     0.000 A 
ATOM     31  C   UNL d   1     -53.060  24.121  35.409  0.00  0.00     0.000 A 
ATOM     32  C   UNL d   1     -52.679  24.269  34.700  0.00  0.00     0.002 A 
ENDBRANCH  26  27
ENDBRANCH   3  26
TORSDOF 5
ENDMDL
MODEL 3
REMARK VINA RESULT:      77.7      0.900      6.823
REMARK  5 active torsions:
REMARK  status: ('A' for Active; 'I' for Inactive)
REMARK    1  A    between atoms: C_14  and  N_3 
REMARK    2  A    between atoms: C_13  and  N_7 
REMARK    3  A    between atoms: C_10  and  C_13 
REMARK       I    between atoms: N_11  and  C_10 
REMARK    4  A    between atoms: C_21  and  N_12 
REMARK    5  A    between atoms: C_22  and  C_14 
ROOT
ATOM      1  C   UNL d   1     -47.942  29.491  35.022  0.00  0.00     0.191 A 
ATOM      2  C   UNL d   1     -48.194  29.135  35.732  0.00  0.00     0.196 A 
ATOM      3  N   UNL d   1     -47.493  30.158  35.226  0.00  0.00    -0.191 N 
ATOM      4  N   UNL d   1     -48.155  29.161  34.307  0.00  0.00    -0.204 NA
ATOM      5  N   UNL d   1     -47.894  29.592  36.357  0.00  0.00    -0.122 NA
ATOM      6  N   UNL d   1     -47.473  30.206  36.041  0.00  0.00    -0.058 NA
ATOM      7  N   UNL d   1     -48.869  28.123  34.986  0.00  0.00    -0.249 N 
ATOM      8  C   UNL d   1     -48.651  28.460  35.706  0.00  0.00     0.289 A 
ATOM      9  C   UNL d   1     -48.617  28.479  34.276  0.00  0.00     0.187 A 
ATOM     10  O   UNL d   1     -48.903  28.104  36.416  0.00  0.00    -0.265 OA
ENDROOT
BRANCH   7  11
ATOM     11  C   UNL d   1     -49.333  27.436  34.951  0.00  0.00     0.146 C 
BRANCH  11  12
ATOM     12  C   UNL d   1     -49.293  26.932  34.291  0.00  0.00     0.283 C 
ATOM     13  N   UNL d   1     -49.922  26.431  34.127  0.00  0.00    -0.268 N 
ATOM     14  C   UNL d   1     -50.581  26.440  34.623  0.00  0.00     0.102 A 
ATOM     15  C   UNL d   1     -49.881  25.938  33.481  0.00  0.00     0.102 A 
ATOM     16  C   UNL d   1     -51.213  25.933  34.454  0.00  0.00     0.100 A 
ATOM     17  N   UNL d   1     -51.179  25.429  33.799  0.00  0.00    -0.301 N 
ATOM     18  C   UNL d   1     -50.513  25.431  33.312  0.00  0.00     0.100 A 
ATOM     19  O   UNL d   1     -48.624  26.940  33.809  0.00  0.00    -0.265 OA
BRANCH  17  20
ATOM     20  C   UNL d   1     -51.807  24.928  33.634  0.00  0.00     0.064 A 
ATOM     21  C   UNL d   1     -51.680  24.126  33.600  0.00  0.00     0.018 A 
ATOM     22  C   UNL d   1     -52.311  23.617  33.434  0.00  0.00     0.002 A 
ATOM     23  C   UNL d   1     -53.065  23.926  33.306  0.00  0.00     0.000 A 
ATOM     24  C   UNL d   1     -53.187  24.744  33.343  0.00  0.00     0.002 A 
ATOM     25  C   UNL d   1     -52.556  25.252  33.508  0.00  0.00     0.018 A 
ENDBRANCH  17  20
ENDBRANCH  11  12
ENDBRANCH   7  11
BRANCH   3  26
ATOM     26  C   UNL d   1     -47.125  30.689  34.693  0.00  0.00     0.104 C 
BRANCH  26  27
ATOM     27  C   UNL d   1     -47.429  31.458  34.599  0.00  0.00     0.019 A 
ATOM     28  C   UNL d   1     -47.091  32.093  35.001  0.00  0.00     0.002 A 
ATOM     29  C   UNL d   1     -47.402  32.834  34.896  0.00  0.00     0.000 A 
ATOM     30  C   UNL d   1     -48.037  32.969  34.406  0.00  0.00     0.000 A 
ATOM     31  C   UNL d   1     -48.384  32.315  33.993  0.00  0.00     0.000 A 
ATOM     32  C   UNL d   1     -48.071  31.566  34.098  0.00  0.00     0.002 A 
ENDBRANCH  26  27
ENDBRANCH   3  26
TORSDOF 5
ENDMDL
