MODEL 1
REMARK VINA RESULT:      72.3      0.000      0.000
REMARK  3 active torsions:
REMARK  status: ('A' for Active; 'I' for Inactive)
REMARK    1  A    between atoms: N_10  and  C_7 
REMARK       I    between atoms: C_9  and  N_10 
REMARK    2  A    between atoms: C_12  and  C_9 
REMARK    3  A    between atoms: O_20  and  C_17 
ROOT
ATOM      1  C   UNL d   1     -50.619  25.253  33.447  0.00  0.00     0.081 A 
ATOM      2  C   UNL d   1     -50.923  24.497  33.361  0.00  0.00     0.301 A 
ATOM      3  C   UNL d   1     -51.110  25.911  33.487  0.00  0.00     0.090 A 
ATOM      4  O   UNL d   1     -51.748  24.395  33.314  0.00  0.00    -0.273 OA
ATOM      5  N   UNL d   1     -50.792  26.669  33.574  0.00  0.00    -0.226 NA
ATOM      6  C   UNL d   1     -51.928  25.805  33.440  0.00  0.00     0.041 A 
ATOM      7  C   UNL d   1     -49.966  26.763  33.620  0.00  0.00     0.166 A 
ATOM      8  C   UNL d   1     -49.796  25.353  33.493  0.00  0.00     0.010 A 
ATOM      9  C   UNL d   1     -52.250  25.048  33.353  0.00  0.00     0.105 A 
ATOM     10  C   UNL d   1     -49.469  26.108  33.580  0.00  0.00     0.039 A 
ATOM     11  O   UNL d   1     -50.424  23.837  33.320  0.00  0.00    -0.259 OA
ATOM     12  C   UNL d   1     -52.429  26.462  33.481  0.00  0.00     0.004 A 
ATOM     13  C   UNL d   1     -49.306  24.691  33.452  0.00  0.00     0.000 C 
ATOM     14  C   UNL d   1     -53.058  24.942  33.307  0.00  0.00     0.025 A 
ATOM     15  C   UNL d   1     -53.243  26.351  33.433  0.00  0.00     0.000 A 
ATOM     16  C   UNL d   1     -53.558  25.590  33.346  0.00  0.00     0.002 A 
ENDROOT
BRANCH   7  17
ATOM     17  N   UNL d   1     -49.641  27.528  33.708  0.00  0.00    -0.189 NA
ATOM     18  C   UNL d   1     -49.260  27.731  34.409  0.00  0.00     0.281 C 
ATOM     19  O   UNL d   1     -49.200  27.177  35.026  0.00  0.00    -0.265 OA
BRANCH  18  20
ATOM     20  C   UNL d   1     -48.942  28.475  34.499  0.00  0.00     0.060 A 
ATOM     21  C   UNL d   1     -48.465  28.637  35.126  0.00  0.00     0.029 A 
ATOM     22  C   UNL d   1     -48.140  29.397  35.217  0.00  0.00     0.094 A 
ATOM     23  C   UNL d   1     -48.298  29.985  34.677  0.00  0.00     0.024 A 
ATOM     24  C   UNL d   1     -48.794  29.811  34.027  0.00  0.00     0.002 A 
ATOM     25  C   UNL d   1     -49.113  29.061  33.940  0.00  0.00     0.005 A 
BRANCH  22  26
ATOM     26  O   UNL d   1     -47.649  29.560  35.867  0.00  0.00    -0.328 OA
ATOM     27  C   UNL d   1     -46.823  29.655  35.752  0.00  0.00     0.181 C 
ENDBRANCH  22  26
ENDBRANCH  18  20
ENDBRANCH   7  17
TORSDOF 3
ENDMDL
