MODEL 1
REMARK VINA RESULT:      -3.3      0.000      0.000
REMARK  3 active torsions:
REMARK  status: ('A' for Active; 'I' for Inactive)
REMARK    1  A    between atoms: S_3  and  N_1 
REMARK    2  A    between atoms: C_8  and  C_4 
REMARK    3  A    between atoms: C_7  and  C_5 
ROOT
ATOM      1  N   UNL d   1      56.261  -0.812  32.660  0.00  0.00    -0.155 N 
ATOM      2  N   UNL d   1      56.787  -0.818  32.012  0.00  0.00    -0.155 NA
ATOM      3  C   UNL d   1      56.206  -0.051  32.929  0.00  0.00     0.096 A 
ATOM      4  C   UNL d   1      57.042  -0.045  31.902  0.00  0.00     0.110 A 
ATOM      5  C   UNL d   1      56.677   0.447  32.481  0.00  0.00     0.041 A 
ENDROOT
BRANCH   3   6
ATOM      6  C   UNL d   1      55.741   0.193  33.566  0.00  0.00     0.018 A 
ATOM      7  C   UNL d   1      56.092   0.438  34.262  0.00  0.00     0.002 A 
ATOM      8  C   UNL d   1      56.913   0.440  34.327  0.00  0.00     0.000 C 
ATOM      9  C   UNL d   1      55.627   0.682  34.898  0.00  0.00     0.000 A 
ATOM     10  C   UNL d   1      54.812   0.682  34.839  0.00  0.00     0.000 A 
ATOM     11  C   UNL d   1      54.451   0.435  34.134  0.00  0.00     0.000 A 
ATOM     12  C   UNL d   1      54.915   0.191  33.498  0.00  0.00     0.002 A 
ENDBRANCH   3   6
BRANCH   1  13
ATOM     13  S   UNL d   1      55.885  -1.466  32.951  0.00  0.00     0.266 S 
ATOM     14  O   UNL d   1      55.234  -1.286  32.501  0.00  0.00    -0.203 OA
ATOM     15  O   UNL d   1      56.552  -1.667  33.425  0.00  0.00    -0.203 OA
ATOM     16  C   UNL d   1      55.492  -2.165  33.267  0.00  0.00     0.165 C 
ENDBRANCH   1  13
BRANCH   4  17
ATOM     17  C   UNL d   1      57.567   0.223  31.325  0.00  0.00     0.049 A 
ATOM     18  S   UNL d   1      57.341   0.452  30.576  0.00  0.00    -0.085 SA
ATOM     19  C   UNL d   1      58.025   0.681  30.174  0.00  0.00     0.035 A 
ATOM     20  C   UNL d   1      58.678   0.593  30.678  0.00  0.00     0.007 A 
ATOM     21  C   UNL d   1      58.391   0.314  31.376  0.00  0.00     0.009 A 
ENDBRANCH   4  17
TORSDOF 3
ENDMDL
MODEL 2
REMARK VINA RESULT:      -3.2      2.688      5.059
REMARK  3 active torsions:
REMARK  status: ('A' for Active; 'I' for Inactive)
REMARK    1  A    between atoms: S_3  and  N_1 
REMARK    2  A    between atoms: C_8  and  C_4 
REMARK    3  A    between atoms: C_7  and  C_5 
ROOT
ATOM      1  N   UNL d   1      58.331  -0.206  29.759  0.00  0.00    -0.155 N 
ATOM      2  N   UNL d   1      57.755   0.057  30.303  0.00  0.00    -0.155 NA
ATOM      3  C   UNL d   1      58.564  -0.948  29.984  0.00  0.00     0.096 A 
ATOM      4  C   UNL d   1      57.653  -0.542  30.855  0.00  0.00     0.110 A 
ATOM      5  C   UNL d   1      58.163  -1.183  30.658  0.00  0.00     0.041 A 
ENDROOT
BRANCH   3   6
ATOM      6  C   UNL d   1      59.128  -1.406  29.591  0.00  0.00     0.018 A 
ATOM      7  C   UNL d   1      58.921  -2.128  29.271  0.00  0.00     0.002 A 
ATOM      8  C   UNL d   1      58.146  -2.399  29.341  0.00  0.00     0.000 C 
ATOM      9  C   UNL d   1      59.484  -2.585  28.878  0.00  0.00     0.000 A 
ATOM     10  C   UNL d   1      60.254  -2.321  28.806  0.00  0.00     0.000 A 
ATOM     11  C   UNL d   1      60.470  -1.588  29.129  0.00  0.00     0.000 A 
ATOM     12  C   UNL d   1      59.906  -1.131  29.522  0.00  0.00     0.002 A 
ENDBRANCH   3   6
BRANCH   1  13
ATOM     13  S   UNL d   1      58.593   0.222  29.125  0.00  0.00     0.266 S 
ATOM     14  O   UNL d   1      57.998  -0.092  28.672  0.00  0.00    -0.203 OA
ATOM     15  O   UNL d   1      59.217   0.557  29.581  0.00  0.00    -0.203 OA
ATOM     16  C   UNL d   1      58.880   0.682  28.455  0.00  0.00     0.165 C 
ENDBRANCH   1  13
BRANCH   4  17
ATOM     17  C   UNL d   1      57.140  -0.536  31.500  0.00  0.00     0.049 A 
ATOM     18  S   UNL d   1      57.035   0.108  31.990  0.00  0.00    -0.085 SA
ATOM     19  C   UNL d   1      56.480  -0.109  32.563  0.00  0.00     0.035 A 
ATOM     20  C   UNL d   1      56.242  -0.891  32.426  0.00  0.00     0.007 A 
ATOM     21  C   UNL d   1      56.647  -1.143  31.779  0.00  0.00     0.009 A 
ENDBRANCH   4  17
TORSDOF 3
ENDMDL
MODEL 3
REMARK VINA RESULT:      -3.0      2.278      4.797
REMARK  3 active torsions:
REMARK  status: ('A' for Active; 'I' for Inactive)
REMARK    1  A    between atoms: S_3  and  N_1 
REMARK    2  A    between atoms: C_8  and  C_4 
REMARK    3  A    between atoms: C_7  and  C_5 
ROOT
ATOM      1  N   UNL d   1      58.432  -0.809  29.782  0.00  0.00    -0.155 N 
ATOM      2  N   UNL d   1      57.771  -0.879  30.287  0.00  0.00    -0.155 NA
ATOM      3  C   UNL d   1      58.833  -0.136  29.988  0.00  0.00     0.096 A 
ATOM      4  C   UNL d   1      57.787  -0.235  30.796  0.00  0.00     0.110 A 
ATOM      5  C   UNL d   1      58.459   0.241  30.611  0.00  0.00     0.041 A 
ENDROOT
BRANCH   3   6
ATOM      6  C   UNL d   1      59.521   0.135  29.623  0.00  0.00     0.018 A 
ATOM      7  C   UNL d   1      60.215   0.199  30.049  0.00  0.00     0.002 A 
ATOM      8  C   UNL d   1      60.225  -0.007  30.847  0.00  0.00     0.000 C 
ATOM      9  C   UNL d   1      60.903   0.470  29.684  0.00  0.00     0.000 A 
ATOM     10  C   UNL d   1      60.898   0.676  28.893  0.00  0.00     0.000 A 
ATOM     11  C   UNL d   1      60.197   0.613  28.456  0.00  0.00     0.000 A 
ATOM     12  C   UNL d   1      59.508   0.342  28.821  0.00  0.00     0.002 A 
ENDBRANCH   3   6
BRANCH   1  13
ATOM     13  S   UNL d   1      58.620  -1.334  29.196  0.00  0.00     0.266 S 
ATOM     14  O   UNL d   1      58.277  -0.841  28.650  0.00  0.00    -0.203 OA
ATOM     15  O   UNL d   1      58.979  -1.857  29.749  0.00  0.00    -0.203 OA
ATOM     16  C   UNL d   1      58.823  -1.899  28.578  0.00  0.00     0.165 C 
ENDBRANCH   1  13
BRANCH   4  17
ATOM     17  C   UNL d   1      57.245  -0.065  31.394  0.00  0.00     0.049 A 
ATOM     18  S   UNL d   1      56.954   0.682  31.544  0.00  0.00    -0.085 SA
ATOM     19  C   UNL d   1      56.432   0.616  32.180  0.00  0.00     0.035 A 
ATOM     20  C   UNL d   1      56.400  -0.175  32.425  0.00  0.00     0.007 A 
ATOM     21  C   UNL d   1      56.897  -0.583  31.942  0.00  0.00     0.009 A 
ENDBRANCH   4  17
TORSDOF 3
ENDMDL
MODEL 4
REMARK VINA RESULT:      -1.1      4.128      5.495
REMARK  3 active torsions:
REMARK  status: ('A' for Active; 'I' for Inactive)
REMARK    1  A    between atoms: S_3  and  N_1 
REMARK    2  A    between atoms: C_8  and  C_4 
REMARK    3  A    between atoms: C_7  and  C_5 
ROOT
ATOM      1  N   UNL d   1      58.662  -0.962  29.230  0.00  0.00    -0.155 N 
ATOM      2  N   UNL d   1      58.345  -1.691  28.976  0.00  0.00    -0.155 NA
ATOM      3  C   UNL d   1      59.447  -1.074  29.388  0.00  0.00     0.096 A 
ATOM      4  C   UNL d   1      58.958  -2.238  28.987  0.00  0.00     0.110 A 
ATOM      5  C   UNL d   1      59.661  -1.852  29.247  0.00  0.00     0.041 A 
ENDROOT
BRANCH   3   6
ATOM      6  C   UNL d   1      59.964  -0.489  29.655  0.00  0.00     0.018 A 
ATOM      7  C   UNL d   1      60.596  -0.256  29.192  0.00  0.00     0.002 A 
ATOM      8  C   UNL d   1      60.716  -0.608  28.457  0.00  0.00     0.000 C 
ATOM      9  C   UNL d   1      61.113   0.330  29.459  0.00  0.00     0.000 A 
ATOM     10  C   UNL d   1      60.998   0.682  30.187  0.00  0.00     0.000 A 
ATOM     11  C   UNL d   1      60.359   0.449  30.660  0.00  0.00     0.000 A 
ATOM     12  C   UNL d   1      59.842  -0.136  30.394  0.00  0.00     0.002 A 
ENDBRANCH   3   6
BRANCH   1  13
ATOM     13  S   UNL d   1      58.238  -0.277  29.299  0.00  0.00     0.266 S 
ATOM     14  O   UNL d   1      58.331  -0.145  28.503  0.00  0.00    -0.203 OA
ATOM     15  O   UNL d   1      58.132  -0.398  30.125  0.00  0.00    -0.203 OA
ATOM     16  C   UNL d   1      57.786   0.452  29.381  0.00  0.00     0.165 C 
ENDBRANCH   1  13
BRANCH   4  17
ATOM     17  C   UNL d   1      58.911  -3.034  28.780  0.00  0.00     0.049 A 
ATOM     18  S   UNL d   1      58.210  -3.429  28.647  0.00  0.00    -0.085 SA
ATOM     19  C   UNL d   1      58.402  -4.209  28.455  0.00  0.00     0.035 A 
ATOM     20  C   UNL d   1      59.226  -4.297  28.469  0.00  0.00     0.007 A 
ATOM     21  C   UNL d   1      59.529  -3.578  28.667  0.00  0.00     0.009 A 
ENDBRANCH   4  17
TORSDOF 3
ENDMDL
