MODEL 1
REMARK VINA RESULT:      -2.0      0.000      0.000
REMARK  5 active torsions:
REMARK  status: ('A' for Active; 'I' for Inactive)
REMARK    1  A    between atoms: C_15  and  N_5 
REMARK    2  A    between atoms: S_10  and  C_6 
REMARK    3  A    between atoms: C_14  and  S_10 
REMARK    4  A    between atoms: C_11  and  C_14 
REMARK       I    between atoms: N_13  and  C_11 
REMARK    5  A    between atoms: C_17  and  C_15 
ROOT
ATOM      1  C   UNL d   1      56.999  -0.084  32.592  0.00  0.00     0.081 A 
ATOM      2  C   UNL d   1      56.668  -0.474  31.945  0.00  0.00     0.117 A 
ATOM      3  N   UNL d   1      57.072  -0.504  31.262  0.00  0.00    -0.215 NA
ATOM      4  C   UNL d   1      57.715   0.262  32.539  0.00  0.00     0.268 A 
ATOM      5  N   UNL d   1      58.118   0.232  31.855  0.00  0.00    -0.253 N 
ATOM      6  C   UNL d   1      57.800  -0.148  31.219  0.00  0.00     0.182 A 
ATOM      7  S   UNL d   1      55.964  -0.764  32.145  0.00  0.00    -0.068 SA
ATOM      8  C   UNL d   1      56.448  -0.152  33.210  0.00  0.00     0.013 A 
ATOM      9  C   UNL d   1      55.812  -0.581  32.903  0.00  0.00     0.031 A 
ATOM     10  O   UNL d   1      58.081   0.682  33.220  0.00  0.00    -0.267 OA
ATOM     11  C   UNL d   1      56.302   0.031  33.961  0.00  0.00     0.001 A 
ATOM     12  C   UNL d   1      55.260  -0.649  33.520  0.00  0.00     0.006 A 
ATOM     13  C   UNL d   1      55.557  -0.288  34.133  0.00  0.00     0.001 A 
ENDROOT
BRANCH   6  14
ATOM     14  S   UNL d   1      58.235  -0.179  30.487  0.00  0.00    -0.044 SA
BRANCH  14  15
ATOM     15  C   UNL d   1      58.165  -0.886  30.026  0.00  0.00     0.099 C 
BRANCH  15  16
ATOM     16  C   UNL d   1      58.702  -0.976  29.370  0.00  0.00     0.272 C 
ATOM     17  N   UNL d   1      58.962  -1.710  29.109  0.00  0.00    -0.269 N 
ATOM     18  C   UNL d   1      59.493  -1.753  28.455  0.00  0.00     0.102 C 
ATOM     19  C   UNL d   1      58.699  -2.409  29.492  0.00  0.00     0.102 C 
ATOM     20  O   UNL d   1      58.964  -0.268  28.987  0.00  0.00    -0.266 OA
ENDBRANCH  15  16
ENDBRANCH  14  15
ENDBRANCH   6  14
BRANCH   5  21
ATOM     21  C   UNL d   1      58.883   0.609  31.821  0.00  0.00     0.085 C 
BRANCH  21  22
ATOM     22  C   UNL d   1      59.448   0.520  32.411  0.00  0.00     0.019 C 
ATOM     23  C   UNL d   1      60.231   0.682  32.261  0.00  0.00     0.002 C 
ENDBRANCH  21  22
ENDBRANCH   5  21
TORSDOF 5
ENDMDL
MODEL 2
REMARK VINA RESULT:      -1.4      1.578      2.218
REMARK  5 active torsions:
REMARK  status: ('A' for Active; 'I' for Inactive)
REMARK    1  A    between atoms: C_15  and  N_5 
REMARK    2  A    between atoms: S_10  and  C_6 
REMARK    3  A    between atoms: C_14  and  S_10 
REMARK    4  A    between atoms: C_11  and  C_14 
REMARK       I    between atoms: N_13  and  C_11 
REMARK    5  A    between atoms: C_17  and  C_15 
ROOT
ATOM      1  C   UNL d   1      57.811  -0.429  30.903  0.00  0.00     0.081 A 
ATOM      2  C   UNL d   1      57.555  -1.207  30.801  0.00  0.00     0.117 A 
ATOM      3  N   UNL d   1      57.949  -1.684  30.304  0.00  0.00    -0.215 NA
ATOM      4  C   UNL d   1      58.446  -0.153  30.509  0.00  0.00     0.268 A 
ATOM      5  N   UNL d   1      58.841  -0.630  30.011  0.00  0.00    -0.253 N 
ATOM      6  C   UNL d   1      58.595  -1.391  29.908  0.00  0.00     0.182 A 
ATOM      7  S   UNL d   1      56.922  -1.336  31.251  0.00  0.00    -0.068 SA
ATOM      8  C   UNL d   1      57.289  -0.084  31.449  0.00  0.00     0.013 A 
ATOM      9  C   UNL d   1      56.745  -0.672  31.649  0.00  0.00     0.031 A 
ATOM     10  O   UNL d   1      58.731   0.674  30.606  0.00  0.00    -0.267 OA
ATOM     11  C   UNL d   1      57.118   0.576  31.842  0.00  0.00     0.001 A 
ATOM     12  C   UNL d   1      56.223  -0.327  32.196  0.00  0.00     0.006 A 
ATOM     13  C   UNL d   1      56.450   0.402  32.301  0.00  0.00     0.001 A 
ENDROOT
BRANCH   6  14
ATOM     14  S   UNL d   1      59.021  -1.900  29.373  0.00  0.00    -0.044 SA
BRANCH  14  15
ATOM     15  C   UNL d   1      58.679  -2.658  29.208  0.00  0.00     0.099 C 
BRANCH  15  16
ATOM     16  C   UNL d   1      59.212  -3.284  28.984  0.00  0.00     0.272 C 
ATOM     17  N   UNL d   1      58.950  -3.997  28.670  0.00  0.00    -0.269 N 
ATOM     18  C   UNL d   1      59.513  -4.589  28.461  0.00  0.00     0.102 C 
ATOM     19  C   UNL d   1      58.129  -4.130  28.560  0.00  0.00     0.102 C 
ATOM     20  O   UNL d   1      60.039  -3.144  29.097  0.00  0.00    -0.266 OA
ENDBRANCH  15  16
ENDBRANCH  14  15
ENDBRANCH   6  14
BRANCH   5  21
ATOM     21  C   UNL d   1      59.518  -0.313  29.600  0.00  0.00     0.085 C 
BRANCH  21  22
ATOM     22  C   UNL d   1      60.248  -0.212  29.961  0.00  0.00     0.019 C 
ATOM     23  C   UNL d   1      60.760   0.367  29.706  0.00  0.00     0.002 C 
ENDBRANCH  21  22
ENDBRANCH   5  21
TORSDOF 5
ENDMDL
MODEL 3
REMARK VINA RESULT:      -0.0      1.125      4.015
REMARK  5 active torsions:
REMARK  status: ('A' for Active; 'I' for Inactive)
REMARK    1  A    between atoms: C_15  and  N_5 
REMARK    2  A    between atoms: S_10  and  C_6 
REMARK    3  A    between atoms: C_14  and  S_10 
REMARK    4  A    between atoms: C_11  and  C_14 
REMARK       I    between atoms: N_13  and  C_11 
REMARK    5  A    between atoms: C_17  and  C_15 
ROOT
ATOM      1  C   UNL d   1      58.844  -0.804  30.127  0.00  0.00     0.081 A 
ATOM      2  C   UNL d   1      58.097  -1.152  30.178  0.00  0.00     0.117 A 
ATOM      3  N   UNL d   1      57.584  -0.892  30.726  0.00  0.00    -0.215 NA
ATOM      4  C   UNL d   1      59.053  -0.213  30.618  0.00  0.00     0.268 A 
ATOM      5  N   UNL d   1      58.541   0.047  31.165  0.00  0.00    -0.253 N 
ATOM      6  C   UNL d   1      57.810  -0.289  31.221  0.00  0.00     0.182 A 
ATOM      7  S   UNL d   1      58.033  -1.717  29.634  0.00  0.00    -0.068 SA
ATOM      8  C   UNL d   1      59.239  -1.195  29.509  0.00  0.00     0.013 A 
ATOM      9  C   UNL d   1      58.710  -1.759  29.220  0.00  0.00     0.031 A 
ATOM     10  O   UNL d   1      59.846   0.168  30.575  0.00  0.00    -0.267 OA
ATOM     11  C   UNL d   1      59.911  -1.234  29.102  0.00  0.00     0.001 A 
ATOM     12  C   UNL d   1      59.105  -2.151  28.603  0.00  0.00     0.006 A 
ATOM     13  C   UNL d   1      59.806  -1.836  28.543  0.00  0.00     0.001 A 
ENDROOT
BRANCH   6  14
ATOM     14  S   UNL d   1      57.261  -0.008  31.809  0.00  0.00    -0.044 SA
BRANCH  14  15
ATOM     15  C   UNL d   1      56.577  -0.485  31.958  0.00  0.00     0.099 C 
BRANCH  15  16
ATOM     16  C   UNL d   1      55.996  -0.172  32.497  0.00  0.00     0.272 C 
ATOM     17  N   UNL d   1      55.580  -0.647  33.024  0.00  0.00    -0.269 N 
ATOM     18  C   UNL d   1      55.014  -0.295  33.540  0.00  0.00     0.102 C 
ATOM     19  C   UNL d   1      55.722  -1.474  33.044  0.00  0.00     0.102 C 
ATOM     20  O   UNL d   1      55.858   0.663  32.472  0.00  0.00    -0.266 OA
ENDBRANCH  15  16
ENDBRANCH  14  15
ENDBRANCH   6  14
BRANCH   5  21
ATOM     21  C   UNL d   1      58.787   0.681  31.680  0.00  0.00     0.085 C 
BRANCH  21  22
ATOM     22  C   UNL d   1      59.488   0.658  32.108  0.00  0.00     0.019 C 
ATOM     23  C   UNL d   1      59.477   0.678  32.922  0.00  0.00     0.002 C 
ENDBRANCH  21  22
ENDBRANCH   5  21
TORSDOF 5
ENDMDL
