MODEL 1
REMARK VINA RESULT:     125.0      0.000      0.000
REMARK  4 active torsions:
REMARK  status: ('A' for Active; 'I' for Inactive)
REMARK    1  A    between atoms: C_2  and  C_1 
REMARK    2  A    between atoms: C_3  and  C_1 
REMARK    3  A    between atoms: C_9  and  C_1 
REMARK    4  A    between atoms: N_4  and  C_10 
ROOT
ATOM      1  C   UNL d   1      57.913  39.024  54.731  0.00  0.00     0.012 C 
ENDROOT
BRANCH   1   2
ATOM      2  C   UNL d   1      57.796  38.211  54.618  0.00  0.00     0.077 A 
ATOM      3  C   UNL d   1      58.367  37.763  54.221  0.00  0.00     0.195 A 
ATOM      4  C   UNL d   1      58.253  36.952  54.106  0.00  0.00     0.019 A 
ATOM      5  O   UNL d   1      59.056  38.132  53.938  0.00  0.00    -0.287 OA
ATOM      6  C   UNL d   1      57.561  36.586  54.392  0.00  0.00     0.043 A 
ATOM      7  C   UNL d   1      56.998  37.041  54.786  0.00  0.00     0.019 A 
ATOM      8  C   UNL d   1      56.991  36.029  54.572  0.00  0.00     0.009 C 
ATOM      9  C   UNL d   1      58.021  36.013  54.026  0.00  0.00     0.009 C 
ATOM     10  C   UNL d   1      57.103  37.847  54.904  0.00  0.00     0.195 A 
ATOM     11  O   UNL d   1      56.524  38.295  55.306  0.00  0.00    -0.287 OA
ENDBRANCH   1   2
BRANCH   1  12
ATOM     12  C   UNL d   1      58.547  39.460  55.021  0.00  0.00     0.077 A 
ATOM     13  C   UNL d   1      58.598  39.647  55.821  0.00  0.00     0.195 A 
ATOM     14  C   UNL d   1      59.219  40.077  56.121  0.00  0.00     0.019 A 
ATOM     15  O   UNL d   1      58.006  39.391  56.327  0.00  0.00    -0.287 OA
ATOM     16  C   UNL d   1      59.814  40.333  55.605  0.00  0.00     0.043 A 
ATOM     17  C   UNL d   1      59.785  40.157  54.793  0.00  0.00     0.019 A 
ATOM     18  C   UNL d   1      60.062  40.622  56.328  0.00  0.00     0.009 C 
ATOM     19  C   UNL d   1      60.490  40.666  55.241  0.00  0.00     0.009 C 
ATOM     20  C   UNL d   1      59.140  39.715  54.507  0.00  0.00     0.195 A 
ATOM     21  O   UNL d   1      59.117  39.543  53.696  0.00  0.00    -0.287 OA
ENDBRANCH   1  12
BRANCH   1  22
ATOM     22  C   UNL d   1      57.287  39.509  54.522  0.00  0.00     0.002 A 
ATOM     23  C   UNL d   1      57.127  39.641  53.716  0.00  0.00     0.024 A 
ATOM     24  C   UNL d   1      56.501  40.126  53.506  0.00  0.00     0.127 A 
ATOM     25  C   UNL d   1      56.034  40.479  54.102  0.00  0.00     0.024 A 
ATOM     26  C   UNL d   1      56.194  40.346  54.882  0.00  0.00     0.002 A 
ATOM     27  C   UNL d   1      56.829  39.854  55.095  0.00  0.00     0.000 A 
BRANCH  24  28
ATOM     28  N   UNL d   1      56.348  40.254  52.696  0.00  0.00    -0.114 N 
ATOM     29  O   UNL d   1      56.292  39.625  52.178  0.00  0.00    -0.532 OA
ATOM     30  O   UNL d   1      56.248  41.024  52.397  0.00  0.00    -0.532 OA
ENDBRANCH  24  28
ENDBRANCH   1  22
TORSDOF 4
ENDMDL
MODEL 2
REMARK VINA RESULT:     126.9      0.152      2.974
REMARK  4 active torsions:
REMARK  status: ('A' for Active; 'I' for Inactive)
REMARK    1  A    between atoms: C_2  and  C_1 
REMARK    2  A    between atoms: C_3  and  C_1 
REMARK    3  A    between atoms: C_9  and  C_1 
REMARK    4  A    between atoms: N_4  and  C_10 
ROOT
ATOM      1  C   UNL d   1      57.936  39.057  54.676  0.00  0.00     0.012 C 
ENDROOT
BRANCH   1   2
ATOM      2  C   UNL d   1      58.587  39.470  54.980  0.00  0.00     0.077 A 
ATOM      3  C   UNL d   1      59.126  39.830  54.467  0.00  0.00     0.195 A 
ATOM      4  C   UNL d   1      59.776  40.243  54.768  0.00  0.00     0.019 A 
ATOM      5  O   UNL d   1      59.012  39.774  53.645  0.00  0.00    -0.287 OA
ATOM      6  C   UNL d   1      59.887  40.297  55.592  0.00  0.00     0.043 A 
ATOM      7  C   UNL d   1      59.344  39.935  56.097  0.00  0.00     0.019 A 
ATOM      8  C   UNL d   1      60.193  40.479  56.328  0.00  0.00     0.009 C 
ATOM      9  C   UNL d   1      60.500  40.700  55.225  0.00  0.00     0.009 C 
ATOM     10  C   UNL d   1      58.695  39.523  55.805  0.00  0.00     0.195 A 
ATOM     11  O   UNL d   1      58.154  39.162  56.328  0.00  0.00    -0.287 OA
ENDBRANCH   1   2
BRANCH   1  12
ATOM     12  C   UNL d   1      57.789  38.255  54.563  0.00  0.00     0.077 A 
ATOM     13  C   UNL d   1      57.105  37.909  54.862  0.00  0.00     0.195 A 
ATOM     14  C   UNL d   1      56.946  37.117  54.759  0.00  0.00     0.019 A 
ATOM     15  O   UNL d   1      56.571  38.374  55.275  0.00  0.00    -0.287 OA
ATOM     16  C   UNL d   1      57.490  36.653  54.342  0.00  0.00     0.043 A 
ATOM     17  C   UNL d   1      58.188  36.980  54.030  0.00  0.00     0.019 A 
ATOM     18  C   UNL d   1      56.905  36.117  54.539  0.00  0.00     0.009 C 
ATOM     19  C   UNL d   1      57.915  36.043  53.956  0.00  0.00     0.009 C 
ATOM     20  C   UNL d   1      58.330  37.791  54.148  0.00  0.00     0.195 A 
ATOM     21  O   UNL d   1      59.027  38.112  53.835  0.00  0.00    -0.287 OA
ENDBRANCH   1  12
BRANCH   1  22
ATOM     22  C   UNL d   1      57.302  39.515  54.432  0.00  0.00     0.002 A 
ATOM     23  C   UNL d   1      57.168  39.624  53.618  0.00  0.00     0.024 A 
ATOM     24  C   UNL d   1      56.534  40.081  53.374  0.00  0.00     0.127 A 
ATOM     25  C   UNL d   1      56.034  40.431  53.944  0.00  0.00     0.024 A 
ATOM     26  C   UNL d   1      56.169  40.321  54.733  0.00  0.00     0.002 A 
ATOM     27  C   UNL d   1      56.813  39.857  54.980  0.00  0.00     0.000 A 
BRANCH  24  28
ATOM     28  N   UNL d   1      56.407  40.185  52.556  0.00  0.00    -0.114 N 
ATOM     29  O   UNL d   1      56.139  39.568  52.095  0.00  0.00    -0.532 OA
ATOM     30  O   UNL d   1      56.551  40.920  52.193  0.00  0.00    -0.532 OA
ENDBRANCH  24  28
ENDBRANCH   1  22
TORSDOF 4
ENDMDL
