MODEL 1
REMARK VINA RESULT:      50.2      0.000      0.000
REMARK  6 active torsions:
REMARK  status: ('A' for Active; 'I' for Inactive)
REMARK       I    between atoms: C_2  and  N_1 
REMARK    1  A    between atoms: C_15  and  C_2 
REMARK    2  A    between atoms: C_3  and  C_4 
REMARK    3  A    between atoms: C_9  and  O_14 
REMARK    4  A    between atoms: O_14  and  C_21 
REMARK    5  A    between atoms: C_22  and  C_15 
REMARK    6  A    between atoms: C_21  and  C_22 
ROOT
ATOM      1  O   UNL d   1      60.997  48.790  50.806  0.00  0.00    -0.305 OA
ENDROOT
BRANCH   1   2
ATOM      2  C   UNL d   1      61.108  48.000  50.609  0.00  0.00     0.100 A 
ATOM      3  C   UNL d   1      61.367  47.789  49.851  0.00  0.00     0.024 A 
ATOM      4  C   UNL d   1      61.481  47.005  49.643  0.00  0.00    -0.002 A 
ATOM      5  C   UNL d   1      61.334  46.404  50.206  0.00  0.00    -0.023 A 
ATOM      6  C   UNL d   1      61.078  46.604  50.960  0.00  0.00    -0.002 A 
ATOM      7  C   UNL d   1      60.961  47.399  51.172  0.00  0.00     0.024 A 
BRANCH   5   8
ATOM      8  C   UNL d   1      61.448  45.616  50.001  0.00  0.00     0.019 C 
ATOM      9  C   UNL d   1      61.710  45.417  49.250  0.00  0.00     0.004 C 
ATOM     10  C   UNL d   1      61.296  45.020  50.557  0.00  0.00     0.004 C 
ATOM     11  C   UNL d   1      61.649  46.044  49.323  0.00  0.00     0.004 C 
ENDBRANCH   5   8
ENDBRANCH   1   2
BRANCH   1  12
ATOM     12  C   UNL d   1      60.277  49.030  51.138  0.00  0.00     0.123 C 
BRANCH  12  13
ATOM     13  C   UNL d   1      59.882  49.684  50.827  0.00  0.00     0.032 C 
BRANCH  13  14
ATOM     14  C   UNL d   1      59.060  49.697  50.818  0.00  0.00     0.063 C 
BRANCH  14  15
ATOM     15  C   UNL d   1      58.661  49.700  50.094  0.00  0.00     0.265 C 
ATOM     16  N   UNL d   1      57.833  49.701  50.078  0.00  0.00    -0.268 N 
ATOM     17  C   UNL d   1      57.425  49.703  49.362  0.00  0.00     0.110 A 
ATOM     18  C   UNL d   1      57.406  49.699  50.798  0.00  0.00     0.110 A 
ATOM     19  C   UNL d   1      56.608  49.704  49.353  0.00  0.00     0.142 A 
ATOM     20  O   UNL d   1      56.181  49.702  50.073  0.00  0.00    -0.300 OA
ATOM     21  C   UNL d   1      56.587  49.700  50.778  0.00  0.00     0.142 A 
ATOM     22  O   UNL d   1      59.083  49.701  49.381  0.00  0.00    -0.267 OA
ENDBRANCH  14  15
ENDBRANCH  13  14
ENDBRANCH  12  13
ENDBRANCH   1  12
TORSDOF 6
ENDMDL
MODEL 2
REMARK VINA RESULT:      50.9      1.458      4.895
REMARK  6 active torsions:
REMARK  status: ('A' for Active; 'I' for Inactive)
REMARK       I    between atoms: C_2  and  N_1 
REMARK    1  A    between atoms: C_15  and  C_2 
REMARK    2  A    between atoms: C_3  and  C_4 
REMARK    3  A    between atoms: C_9  and  O_14 
REMARK    4  A    between atoms: O_14  and  C_21 
REMARK    5  A    between atoms: C_22  and  C_15 
REMARK    6  A    between atoms: C_21  and  C_22 
ROOT
ATOM      1  O   UNL d   1      59.952  49.683  50.488  0.00  0.00    -0.305 OA
ENDROOT
BRANCH   1   2
ATOM      2  C   UNL d   1      59.136  49.661  50.401  0.00  0.00     0.100 A 
ATOM      3  C   UNL d   1      58.793  49.706  49.647  0.00  0.00     0.024 A 
ATOM      4  C   UNL d   1      57.981  49.685  49.548  0.00  0.00    -0.002 A 
ATOM      5  C   UNL d   1      57.485  49.616  50.218  0.00  0.00    -0.023 A 
ATOM      6  C   UNL d   1      57.815  49.570  50.968  0.00  0.00    -0.002 A 
ATOM      7  C   UNL d   1      58.640  49.592  51.071  0.00  0.00     0.024 A 
BRANCH   5   8
ATOM      8  C   UNL d   1      56.669  49.594  50.121  0.00  0.00     0.019 C 
ATOM      9  C   UNL d   1      56.172  49.670  50.770  0.00  0.00     0.004 C 
ATOM     10  C   UNL d   1      56.347  49.494  49.364  0.00  0.00     0.004 C 
ATOM     11  C   UNL d   1      56.784  49.698  50.933  0.00  0.00     0.004 C 
ENDBRANCH   5   8
ENDBRANCH   1   2
BRANCH   1  12
ATOM     12  C   UNL d   1      60.426  49.189  50.020  0.00  0.00     0.123 C 
BRANCH  12  13
ATOM     13  C   UNL d   1      61.006  48.724  50.378  0.00  0.00     0.032 C 
BRANCH  13  14
ATOM     14  C   UNL d   1      61.140  47.960  50.104  0.00  0.00     0.063 C 
BRANCH  14  15
ATOM     15  C   UNL d   1      60.903  47.316  50.566  0.00  0.00     0.265 C 
ATOM     16  N   UNL d   1      61.211  46.562  50.413  0.00  0.00    -0.268 N 
ATOM     17  C   UNL d   1      60.982  45.913  50.867  0.00  0.00     0.110 A 
ATOM     18  C   UNL d   1      61.761  46.460  49.791  0.00  0.00     0.110 A 
ATOM     19  C   UNL d   1      61.289  45.172  50.712  0.00  0.00     0.142 A 
ATOM     20  O   UNL d   1      61.839  45.070  50.089  0.00  0.00    -0.300 OA
ATOM     21  C   UNL d   1      62.063  45.712  49.643  0.00  0.00     0.142 A 
ATOM     22  O   UNL d   1      60.358  47.418  51.182  0.00  0.00    -0.267 OA
ENDBRANCH  14  15
ENDBRANCH  13  14
ENDBRANCH  12  13
ENDBRANCH   1  12
TORSDOF 6
ENDMDL
