MODEL 1
REMARK VINA RESULT:     -10.6      0.000      0.000
REMARK  4 active torsions:
REMARK  status: ('A' for Active; 'I' for Inactive)
REMARK    1  A    between atoms: C_3  and  C_1 
REMARK    2  A    between atoms: N_5  and  C_3 
REMARK    3  A    between atoms: C_10  and  C_3 
REMARK    4  A    between atoms: C_7  and  N_5 
ROOT
ATOM      1  C   UNL d   1      53.366  32.576  53.479  0.00  0.00     0.086 C 
ENDROOT
BRANCH   1   2
ATOM      2  C   UNL d   1      52.610  32.927  53.370  0.00  0.00     0.058 A 
ATOM      3  C   UNL d   1      52.476  33.333  52.655  0.00  0.00     0.214 A 
ATOM      4  C   UNL d   1      51.731  33.674  52.557  0.00  0.00     0.120 A 
ATOM      5  O   UNL d   1      53.060  33.390  52.076  0.00  0.00    -0.285 OA
ATOM      6  N   UNL d   1      51.585  34.090  51.831  0.00  0.00    -0.241 NA
ATOM      7  C   UNL d   1      51.146  33.617  53.136  0.00  0.00     0.021 A 
ATOM      8  C   UNL d   1      50.840  34.431  51.733  0.00  0.00     0.099 A 
ATOM      9  C   UNL d   1      50.256  34.374  52.312  0.00  0.00     0.021 A 
ATOM     10  C   UNL d   1      50.416  33.976  52.990  0.00  0.00     0.003 A 
ATOM     11  C   UNL d   1      51.306  33.219  53.814  0.00  0.00     0.002 A 
ATOM     12  C   UNL d   1      52.025  32.870  53.949  0.00  0.00     0.005 A 
ENDBRANCH   1   2
BRANCH   1  13
ATOM     13  N   UNL d   1      53.588  31.913  53.030  0.00  0.00    -0.227 NA
BRANCH  13  14
ATOM     14  C   UNL d   1      53.377  31.165  53.246  0.00  0.00     0.162 A 
ATOM     15  N   UNL d   1      53.713  30.824  53.918  0.00  0.00    -0.225 NA
ATOM     16  C   UNL d   1      53.508  30.057  54.154  0.00  0.00     0.101 A 
ATOM     17  C   UNL d   1      52.960  29.650  53.699  0.00  0.00     0.021 A 
ATOM     18  C   UNL d   1      52.624  29.991  53.027  0.00  0.00     0.005 A 
ATOM     19  C   UNL d   1      52.835  30.740  52.811  0.00  0.00     0.039 A 
ENDBRANCH  13  14
ENDBRANCH   1  13
BRANCH   1  20
ATOM     20  C   UNL d   1      53.892  32.873  54.021  0.00  0.00     0.018 A 
ATOM     21  C   UNL d   1      53.681  32.929  54.800  0.00  0.00     0.002 A 
ATOM     22  C   UNL d   1      54.216  33.232  55.350  0.00  0.00     0.000 A 
ATOM     23  C   UNL d   1      54.962  33.477  55.122  0.00  0.00     0.000 A 
ATOM     24  C   UNL d   1      55.168  33.416  54.325  0.00  0.00     0.000 A 
ATOM     25  C   UNL d   1      54.633  33.114  53.774  0.00  0.00     0.002 A 
ENDBRANCH   1  20
TORSDOF 4
ENDMDL
MODEL 2
REMARK VINA RESULT:      -9.7      0.959      3.590
REMARK  4 active torsions:
REMARK  status: ('A' for Active; 'I' for Inactive)
REMARK    1  A    between atoms: C_3  and  C_1 
REMARK    2  A    between atoms: N_5  and  C_3 
REMARK    3  A    between atoms: C_10  and  C_3 
REMARK    4  A    between atoms: C_7  and  N_5 
ROOT
ATOM      1  C   UNL d   1      53.165  32.084  53.287  0.00  0.00     0.086 C 
ENDROOT
BRANCH   1   2
ATOM      2  C   UNL d   1      53.609  32.487  53.877  0.00  0.00     0.058 A 
ATOM      3  C   UNL d   1      54.338  32.818  53.648  0.00  0.00     0.214 A 
ATOM      4  C   UNL d   1      54.766  33.212  54.233  0.00  0.00     0.120 A 
ATOM      5  O   UNL d   1      54.615  32.755  52.874  0.00  0.00    -0.285 OA
ATOM      6  N   UNL d   1      55.510  33.553  54.009  0.00  0.00    -0.241 NA
ATOM      7  C   UNL d   1      54.488  33.275  55.007  0.00  0.00     0.021 A 
ATOM      8  C   UNL d   1      55.939  33.946  54.594  0.00  0.00     0.099 A 
ATOM      9  C   UNL d   1      55.661  34.009  55.368  0.00  0.00     0.021 A 
ATOM     10  C   UNL d   1      54.955  33.679  55.557  0.00  0.00     0.003 A 
ATOM     11  C   UNL d   1      53.782  32.945  55.196  0.00  0.00     0.002 A 
ATOM     12  C   UNL d   1      53.331  32.550  54.651  0.00  0.00     0.005 A 
ENDBRANCH   1   2
BRANCH   1  13
ATOM     13  N   UNL d   1      52.799  32.510  52.675  0.00  0.00    -0.227 NA
BRANCH  13  14
ATOM     14  C   UNL d   1      52.119  32.926  52.797  0.00  0.00     0.162 A 
ATOM     15  N   UNL d   1      51.478  32.562  53.169  0.00  0.00    -0.225 NA
ATOM     16  C   UNL d   1      50.773  32.973  53.302  0.00  0.00     0.101 A 
ATOM     17  C   UNL d   1      50.732  33.755  53.053  0.00  0.00     0.021 A 
ATOM     18  C   UNL d   1      51.372  34.120  52.682  0.00  0.00     0.005 A 
ATOM     19  C   UNL d   1      52.053  33.703  52.560  0.00  0.00     0.039 A 
ENDBRANCH  13  14
ENDBRANCH   1  13
BRANCH   1  20
ATOM     20  C   UNL d   1      53.084  31.277  53.301  0.00  0.00     0.018 A 
ATOM     21  C   UNL d   1      52.961  30.895  54.004  0.00  0.00     0.002 A 
ATOM     22  C   UNL d   1      52.879  30.075  54.019  0.00  0.00     0.000 A 
ATOM     23  C   UNL d   1      52.920  29.635  53.330  0.00  0.00     0.000 A 
ATOM     24  C   UNL d   1      53.046  30.033  52.618  0.00  0.00     0.000 A 
ATOM     25  C   UNL d   1      53.128  30.854  52.604  0.00  0.00     0.002 A 
ENDBRANCH   1  20
TORSDOF 4
ENDMDL
MODEL 3
REMARK VINA RESULT:      -9.5      0.882      3.122
REMARK  4 active torsions:
REMARK  status: ('A' for Active; 'I' for Inactive)
REMARK    1  A    between atoms: C_3  and  C_1 
REMARK    2  A    between atoms: N_5  and  C_3 
REMARK    3  A    between atoms: C_10  and  C_3 
REMARK    4  A    between atoms: C_7  and  N_5 
ROOT
ATOM      1  C   UNL d   1      52.789  32.701  53.147  0.00  0.00     0.086 C 
ENDROOT
BRANCH   1   2
ATOM      2  C   UNL d   1      53.298  32.915  53.781  0.00  0.00     0.058 A 
ATOM      3  C   UNL d   1      54.051  33.210  53.585  0.00  0.00     0.214 A 
ATOM      4  C   UNL d   1      54.543  33.418  54.214  0.00  0.00     0.120 A 
ATOM      5  O   UNL d   1      54.292  33.291  52.800  0.00  0.00    -0.285 OA
ATOM      6  N   UNL d   1      55.313  33.720  54.024  0.00  0.00    -0.241 NA
ATOM      7  C   UNL d   1      54.303  33.337  54.999  0.00  0.00     0.021 A 
ATOM      8  C   UNL d   1      55.805  33.927  54.653  0.00  0.00     0.099 A 
ATOM      9  C   UNL d   1      55.565  33.847  55.438  0.00  0.00     0.021 A 
ATOM     10  C   UNL d   1      54.833  33.559  55.594  0.00  0.00     0.003 A 
ATOM     11  C   UNL d   1      53.571  33.049  55.155  0.00  0.00     0.002 A 
ATOM     12  C   UNL d   1      53.058  32.834  54.566  0.00  0.00     0.005 A 
ENDBRANCH   1   2
BRANCH   1  13
ATOM     13  N   UNL d   1      52.968  32.042  52.672  0.00  0.00    -0.227 NA
BRANCH  13  14
ATOM     14  C   UNL d   1      52.846  31.288  52.932  0.00  0.00     0.162 A 
ATOM     15  N   UNL d   1      52.080  31.034  53.102  0.00  0.00    -0.225 NA
ATOM     16  C   UNL d   1      51.936  30.263  53.369  0.00  0.00     0.101 A 
ATOM     17  C   UNL d   1      52.581  29.763  53.458  0.00  0.00     0.021 A 
ATOM     18  C   UNL d   1      53.347  30.017  53.288  0.00  0.00     0.005 A 
ATOM     19  C   UNL d   1      53.469  30.772  53.029  0.00  0.00     0.039 A 
ENDBRANCH  13  14
ENDBRANCH   1  13
BRANCH   1  20
ATOM     20  C   UNL d   1      52.119  33.128  52.984  0.00  0.00     0.018 A 
ATOM     21  C   UNL d   1      51.497  33.114  53.500  0.00  0.00     0.002 A 
ATOM     22  C   UNL d   1      50.815  33.549  53.335  0.00  0.00     0.000 A 
ATOM     23  C   UNL d   1      50.756  33.996  52.653  0.00  0.00     0.000 A 
ATOM     24  C   UNL d   1      51.397  34.003  52.132  0.00  0.00     0.000 A 
ATOM     25  C   UNL d   1      52.078  33.569  52.298  0.00  0.00     0.002 A 
ENDBRANCH   1  20
TORSDOF 4
ENDMDL
MODEL 4
REMARK VINA RESULT:      -9.4      1.182      3.514
REMARK  4 active torsions:
REMARK  status: ('A' for Active; 'I' for Inactive)
REMARK    1  A    between atoms: C_3  and  C_1 
REMARK    2  A    between atoms: N_5  and  C_3 
REMARK    3  A    between atoms: C_10  and  C_3 
REMARK    4  A    between atoms: C_7  and  N_5 
ROOT
ATOM      1  C   UNL d   1      53.528  32.794  54.203  0.00  0.00     0.086 C 
ENDROOT
BRANCH   1   2
ATOM      2  C   UNL d   1      53.459  32.016  53.892  0.00  0.00     0.058 A 
ATOM      3  C   UNL d   1      53.378  31.391  54.437  0.00  0.00     0.214 A 
ATOM      4  C   UNL d   1      53.312  30.631  54.123  0.00  0.00     0.120 A 
ATOM      5  O   UNL d   1      53.364  31.529  55.250  0.00  0.00    -0.285 OA
ATOM      6  N   UNL d   1      53.228  29.989  54.671  0.00  0.00    -0.241 NA
ATOM      7  C   UNL d   1      53.325  30.494  53.309  0.00  0.00     0.021 A 
ATOM      8  C   UNL d   1      53.162  29.229  54.357  0.00  0.00     0.099 A 
ATOM      9  C   UNL d   1      53.175  29.091  53.543  0.00  0.00     0.021 A 
ATOM     10  C   UNL d   1      53.255  29.714  53.044  0.00  0.00     0.003 A 
ATOM     11  C   UNL d   1      53.405  31.117  52.810  0.00  0.00     0.002 A 
ATOM     12  C   UNL d   1      53.473  31.878  53.078  0.00  0.00     0.005 A 
ENDBRANCH   1   2
BRANCH   1  13
ATOM     13  N   UNL d   1      52.846  33.224  54.406  0.00  0.00    -0.227 NA
BRANCH  13  14
ATOM     14  C   UNL d   1      52.421  33.630  53.853  0.00  0.00     0.162 A 
ATOM     15  N   UNL d   1      52.746  34.302  53.502  0.00  0.00    -0.225 NA
ATOM     16  C   UNL d   1      52.325  34.731  52.933  0.00  0.00     0.101 A 
ATOM     17  C   UNL d   1      51.575  34.466  52.731  0.00  0.00     0.021 A 
ATOM     18  C   UNL d   1      51.250  33.794  53.082  0.00  0.00     0.005 A 
ATOM     19  C   UNL d   1      51.675  33.387  53.635  0.00  0.00     0.039 A 
ENDBRANCH  13  14
ENDBRANCH   1  13
BRANCH   1  20
ATOM     20  C   UNL d   1      54.253  33.140  54.311  0.00  0.00     0.018 A 
ATOM     21  C   UNL d   1      54.781  33.172  53.699  0.00  0.00     0.002 A 
ATOM     22  C   UNL d   1      55.519  33.524  53.808  0.00  0.00     0.000 A 
ATOM     23  C   UNL d   1      55.729  33.845  54.531  0.00  0.00     0.000 A 
ATOM     24  C   UNL d   1      55.183  33.808  55.149  0.00  0.00     0.000 A 
ATOM     25  C   UNL d   1      54.446  33.456  55.039  0.00  0.00     0.002 A 
ENDBRANCH   1  20
TORSDOF 4
ENDMDL
MODEL 5
REMARK VINA RESULT:      -8.6      0.731      2.384
REMARK  4 active torsions:
REMARK  status: ('A' for Active; 'I' for Inactive)
REMARK    1  A    between atoms: C_3  and  C_1 
REMARK    2  A    between atoms: N_5  and  C_3 
REMARK    3  A    between atoms: C_10  and  C_3 
REMARK    4  A    between atoms: C_7  and  N_5 
ROOT
ATOM      1  C   UNL d   1      52.995  32.592  53.232  0.00  0.00     0.086 C 
ENDROOT
BRANCH   1   2
ATOM      2  C   UNL d   1      52.245  32.970  53.183  0.00  0.00     0.058 A 
ATOM      3  C   UNL d   1      52.072  33.388  52.483  0.00  0.00     0.214 A 
ATOM      4  C   UNL d   1      51.335  33.756  52.444  0.00  0.00     0.120 A 
ATOM      5  O   UNL d   1      52.613  33.431  51.862  0.00  0.00    -0.285 OA
ATOM      6  N   UNL d   1      51.150  34.184  51.735  0.00  0.00    -0.241 NA
ATOM      7  C   UNL d   1      50.794  33.713  53.065  0.00  0.00     0.021 A 
ATOM      8  C   UNL d   1      50.412  34.552  51.695  0.00  0.00     0.099 A 
ATOM      9  C   UNL d   1      49.871  34.509  52.317  0.00  0.00     0.021 A 
ATOM     10  C   UNL d   1      50.068  34.098  52.977  0.00  0.00     0.003 A 
ATOM     11  C   UNL d   1      50.990  33.302  53.726  0.00  0.00     0.002 A 
ATOM     12  C   UNL d   1      51.704  32.927  53.804  0.00  0.00     0.005 A 
ENDBRANCH   1   2
BRANCH   1  13
ATOM     13  N   UNL d   1      53.692  33.043  53.213  0.00  0.00    -0.227 NA
BRANCH  13  14
ATOM     14  C   UNL d   1      54.063  33.278  53.890  0.00  0.00     0.162 A 
ATOM     15  N   UNL d   1      53.653  33.733  54.443  0.00  0.00    -0.225 NA
ATOM     16  C   UNL d   1      54.017  33.983  55.143  0.00  0.00     0.101 A 
ATOM     17  C   UNL d   1      54.799  33.763  55.268  0.00  0.00     0.021 A 
ATOM     18  C   UNL d   1      55.209  33.309  54.714  0.00  0.00     0.005 A 
ATOM     19  C   UNL d   1      54.837  33.074  54.037  0.00  0.00     0.039 A 
ENDBRANCH  13  14
ENDBRANCH   1  13
BRANCH   1  20
ATOM     20  C   UNL d   1      53.054  31.786  53.298  0.00  0.00     0.018 A 
ATOM     21  C   UNL d   1      52.892  31.426  54.004  0.00  0.00     0.002 A 
ATOM     22  C   UNL d   1      52.952  30.606  54.072  0.00  0.00     0.000 A 
ATOM     23  C   UNL d   1      53.175  30.146  53.433  0.00  0.00     0.000 A 
ATOM     24  C   UNL d   1      53.339  30.523  52.717  0.00  0.00     0.000 A 
ATOM     25  C   UNL d   1      53.278  31.343  52.650  0.00  0.00     0.002 A 
ENDBRANCH   1  20
TORSDOF 4
ENDMDL
