MODEL 1
REMARK VINA RESULT:      24.3      0.000      0.000
REMARK  4 active torsions:
REMARK  status: ('A' for Active; 'I' for Inactive)
REMARK    1  A    between atoms: C_6  and  C_1 
REMARK    2  A    between atoms: C_8  and  C_5 
REMARK    3  A    between atoms: C_9  and  C_8 
REMARK    4  A    between atoms: C_13  and  C_9 
ROOT
ATOM      1  C   UNL d   1      13.203  13.492  -4.488  0.00  0.00     0.210 A 
ATOM      2  N   UNL d   1      12.786  12.909  -4.900  0.00  0.00    -0.120 NA
ATOM      3  O   UNL d   1      13.490  13.183  -3.811  0.00  0.00    -0.268 OA
ATOM      4  N   UNL d   1      12.835  12.225  -4.437  0.00  0.00    -0.121 NA
ATOM      5  C   UNL d   1      13.254  12.351  -3.767  0.00  0.00     0.205 A 
ENDROOT
BRANCH   5   6
ATOM      6  C   UNL d   1      13.403  11.784  -3.192  0.00  0.00     0.046 C 
BRANCH   6   7
ATOM      7  C   UNL d   1      13.191  11.927  -2.416  0.00  0.00     0.004 C 
BRANCH   7   8
ATOM      8  C   UNL d   1      13.763  11.926  -1.818  0.00  0.00     0.000 A 
ATOM      9  C   UNL d   1      13.531  11.926  -1.008  0.00  0.00     0.002 A 
ATOM     10  C   UNL d   1      14.105  11.925  -0.409  0.00  0.00     0.030 A 
ATOM     11  C   UNL d   1      14.901  11.924  -0.614  0.00  0.00     0.140 A 
ATOM     12  C   UNL d   1      15.138  11.925  -1.423  0.00  0.00     0.030 A 
ATOM     13  F   UNL d   1      15.478  11.923  -0.014  0.00  0.00    -0.204 F 
ATOM     14  C   UNL d   1      14.560  11.925  -2.003  0.00  0.00     0.002 A 
ENDBRANCH   7   8
ENDBRANCH   6   7
ENDBRANCH   5   6
BRANCH   1  15
ATOM     15  C   UNL d   1      13.310  14.278  -4.734  0.00  0.00     0.072 A 
ATOM     16  S   UNL d   1      13.910  14.569  -5.224  0.00  0.00    -0.083 SA
ATOM     17  C   UNL d   1      13.795  15.382  -5.317  0.00  0.00     0.035 A 
ATOM     18  C   UNL d   1      13.125  15.595  -4.887  0.00  0.00     0.008 A 
ATOM     19  C   UNL d   1      12.824  14.907  -4.525  0.00  0.00     0.011 A 
ENDBRANCH   1  15
TORSDOF 4
ENDMDL
