MODEL 1
REMARK VINA RESULT:      -6.4      0.000      0.000
REMARK  7 active torsions:
REMARK  status: ('A' for Active; 'I' for Inactive)
REMARK    1  A    between atoms: N_2  and  C_1 
REMARK    2  A    between atoms: N_4  and  C_3 
REMARK       I    between atoms: C_6  and  N_4 
REMARK    3  A    between atoms: C_7  and  C_6 
REMARK    4  A    between atoms: C_10  and  C_7 
REMARK    5  A    between atoms: C_14  and  C_10 
REMARK    6  A    between atoms: O_16  and  C_13 
REMARK    7  A    between atoms: C_17  and  O_16 
ROOT
ATOM      1  C   UNL d   1     -48.628  12.595  22.926  0.00  0.00     0.146 A 
ATOM      2  C   UNL d   1     -47.876  12.759  23.120  0.00  0.00     0.107 A 
ATOM      3  C   UNL d   1     -49.160  13.201  22.766  0.00  0.00     0.050 A 
ATOM      4  C   UNL d   1     -47.625  13.555  23.162  0.00  0.00     0.023 A 
ATOM      5  C   UNL d   1     -48.939  13.984  22.800  0.00  0.00     0.102 A 
ATOM      6  C   UNL d   1     -48.149  14.158  23.004  0.00  0.00     0.026 A 
ENDROOT
BRANCH   2   7
ATOM      7  N   UNL d   1     -47.303  12.158  23.291  0.00  0.00    -0.206 NA
ATOM      8  C   UNL d   1     -46.565  12.398  23.402  0.00  0.00     0.279 C 
ATOM      9  O   UNL d   1     -46.329  12.972  23.385  0.00  0.00    -0.265 OA
BRANCH   8  10
ATOM     10  C   UNL d   1     -46.000  11.802  23.571  0.00  0.00     0.062 C 
BRANCH  10  11
ATOM     11  C   UNL d   1     -45.432  11.579  23.013  0.00  0.00     0.005 C 
BRANCH  11  12
ATOM     12  C   UNL d   1     -44.877  10.990  23.211  0.00  0.00     0.000 A 
ATOM     13  C   UNL d   1     -45.105  10.317  23.516  0.00  0.00     0.000 A 
ATOM     14  C   UNL d   1     -44.515   9.756  23.698  0.00  0.00     0.000 A 
ATOM     15  C   UNL d   1     -43.735   9.927  23.554  0.00  0.00     0.000 A 
ATOM     16  C   UNL d   1     -43.510  10.607  23.246  0.00  0.00     0.000 A 
ATOM     17  C   UNL d   1     -44.083  11.167  23.063  0.00  0.00     0.000 A 
ENDBRANCH  11  12
ENDBRANCH  10  11
ENDBRANCH   8  10
ENDBRANCH   2   7
BRANCH   1  18
ATOM     18  N   UNL d   1     -48.850  11.785  22.892  0.00  0.00    -0.112 N 
ATOM     19  O   UNL d   1     -48.792  11.352  22.203  0.00  0.00    -0.532 OA
ATOM     20  O   UNL d   1     -49.144  11.399  23.599  0.00  0.00    -0.532 OA
ENDBRANCH   1  18
BRANCH   5  21
ATOM     21  O   UNL d   1     -49.492  14.590  22.635  0.00  0.00    -0.305 OA
BRANCH  21  22
ATOM     22  C   UNL d   1     -50.109  14.740  23.112  0.00  0.00     0.123 C 
ATOM     23  C   UNL d   1     -50.459  15.521  23.131  0.00  0.00     0.029 C 
ENDBRANCH  21  22
ENDBRANCH   5  21
TORSDOF 7
ENDMDL
MODEL 2
REMARK VINA RESULT:      -6.3      1.215      1.601
REMARK  7 active torsions:
REMARK  status: ('A' for Active; 'I' for Inactive)
REMARK    1  A    between atoms: N_2  and  C_1 
REMARK    2  A    between atoms: N_4  and  C_3 
REMARK       I    between atoms: C_6  and  N_4 
REMARK    3  A    between atoms: C_7  and  C_6 
REMARK    4  A    between atoms: C_10  and  C_7 
REMARK    5  A    between atoms: C_14  and  C_10 
REMARK    6  A    between atoms: O_16  and  C_13 
REMARK    7  A    between atoms: C_17  and  O_16 
ROOT
ATOM      1  C   UNL d   1     -48.830  12.933  22.889  0.00  0.00     0.146 A 
ATOM      2  C   UNL d   1     -48.142  13.327  22.858  0.00  0.00     0.107 A 
ATOM      3  C   UNL d   1     -49.541  13.339  22.976  0.00  0.00     0.050 A 
ATOM      4  C   UNL d   1     -48.142  14.162  22.914  0.00  0.00     0.023 A 
ATOM      5  C   UNL d   1     -49.565  14.151  23.033  0.00  0.00     0.102 A 
ATOM      6  C   UNL d   1     -48.843  14.566  23.000  0.00  0.00     0.026 A 
ENDROOT
BRANCH   2   7
ATOM      7  N   UNL d   1     -47.393  12.941  22.769  0.00  0.00    -0.206 NA
ATOM      8  C   UNL d   1     -46.760  13.402  22.749  0.00  0.00     0.279 C 
ATOM      9  O   UNL d   1     -46.719  14.019  22.788  0.00  0.00    -0.265 OA
BRANCH   8  10
ATOM     10  C   UNL d   1     -46.020  13.016  22.660  0.00  0.00     0.062 C 
BRANCH  10  11
ATOM     11  C   UNL d   1     -45.434  13.322  22.164  0.00  0.00     0.005 C 
BRANCH  11  12
ATOM     12  C   UNL d   1     -44.720  12.903  22.072  0.00  0.00     0.000 A 
ATOM     13  C   UNL d   1     -44.583  12.259  22.478  0.00  0.00     0.000 A 
ATOM     14  C   UNL d   1     -43.855  11.871  22.353  0.00  0.00     0.000 A 
ATOM     15  C   UNL d   1     -43.321  12.173  21.821  0.00  0.00     0.000 A 
ATOM     16  C   UNL d   1     -43.463  12.822  21.415  0.00  0.00     0.000 A 
ATOM     17  C   UNL d   1     -44.178  13.213  21.529  0.00  0.00     0.000 A 
ENDBRANCH  11  12
ENDBRANCH  10  11
ENDBRANCH   8  10
ENDBRANCH   2   7
BRANCH   1  18
ATOM     18  N   UNL d   1     -48.798  12.095  22.830  0.00  0.00    -0.112 N 
ATOM     19  O   UNL d   1     -48.718  11.621  23.489  0.00  0.00    -0.532 OA
ATOM     20  O   UNL d   1     -48.850  11.725  22.059  0.00  0.00    -0.532 OA
ENDBRANCH   1  18
BRANCH   5  21
ATOM     21  O   UNL d   1     -50.296  14.548  23.121  0.00  0.00    -0.305 OA
BRANCH  21  22
ATOM     22  C   UNL d   1     -50.340  15.308  23.350  0.00  0.00     0.123 C 
ATOM     23  C   UNL d   1     -51.060  15.613  23.695  0.00  0.00     0.029 C 
ENDBRANCH  21  22
ENDBRANCH   5  21
TORSDOF 7
ENDMDL
MODEL 3
REMARK VINA RESULT:      -6.2      1.699      5.128
REMARK  7 active torsions:
REMARK  status: ('A' for Active; 'I' for Inactive)
REMARK    1  A    between atoms: N_2  and  C_1 
REMARK    2  A    between atoms: N_4  and  C_3 
REMARK       I    between atoms: C_6  and  N_4 
REMARK    3  A    between atoms: C_7  and  C_6 
REMARK    4  A    between atoms: C_10  and  C_7 
REMARK    5  A    between atoms: C_14  and  C_10 
REMARK    6  A    between atoms: O_16  and  C_13 
REMARK    7  A    between atoms: C_17  and  O_16 
ROOT
ATOM      1  C   UNL d   1     -46.353  12.426  22.767  0.00  0.00     0.146 A 
ATOM      2  C   UNL d   1     -46.614  13.175  22.733  0.00  0.00     0.107 A 
ATOM      3  C   UNL d   1     -45.590  12.238  22.525  0.00  0.00     0.050 A 
ATOM      4  C   UNL d   1     -46.106  13.776  22.449  0.00  0.00     0.023 A 
ATOM      5  C   UNL d   1     -45.078  12.806  22.245  0.00  0.00     0.102 A 
ATOM      6  C   UNL d   1     -45.350  13.593  22.209  0.00  0.00     0.026 A 
ENDROOT
BRANCH   2   7
ATOM      7  N   UNL d   1     -47.394  13.403  22.974  0.00  0.00    -0.206 NA
ATOM      8  C   UNL d   1     -47.543  14.172  23.000  0.00  0.00     0.279 C 
ATOM      9  O   UNL d   1     -47.172  14.651  22.868  0.00  0.00    -0.265 OA
BRANCH   8  10
ATOM     10  C   UNL d   1     -48.316  14.394  23.239  0.00  0.00     0.062 C 
BRANCH  10  11
ATOM     11  C   UNL d   1     -48.855  14.717  22.701  0.00  0.00     0.005 C 
BRANCH  11  12
ATOM     12  C   UNL d   1     -49.611  14.939  22.968  0.00  0.00     0.000 A 
ATOM     13  C   UNL d   1     -50.233  14.511  22.803  0.00  0.00     0.000 A 
ATOM     14  C   UNL d   1     -50.971  14.772  23.091  0.00  0.00     0.000 A 
ATOM     15  C   UNL d   1     -51.016  15.454  23.528  0.00  0.00     0.000 A 
ATOM     16  C   UNL d   1     -50.388  15.883  23.693  0.00  0.00     0.000 A 
ATOM     17  C   UNL d   1     -49.655  15.636  23.414  0.00  0.00     0.000 A 
ENDBRANCH  11  12
ENDBRANCH  10  11
ENDBRANCH   8  10
ENDBRANCH   2   7
BRANCH   1  18
ATOM     18  N   UNL d   1     -46.887  11.845  23.057  0.00  0.00    -0.112 N 
ATOM     19  O   UNL d   1     -47.635  11.755  22.745  0.00  0.00    -0.532 OA
ATOM     20  O   UNL d   1     -46.641  11.331  23.698  0.00  0.00    -0.532 OA
ENDBRANCH   1  18
BRANCH   5  21
ATOM     21  O   UNL d   1     -44.304  12.598  22.002  0.00  0.00    -0.305 OA
BRANCH  21  22
ATOM     22  C   UNL d   1     -43.881  13.051  21.505  0.00  0.00     0.123 C 
ATOM     23  C   UNL d   1     -43.075  12.841  21.313  0.00  0.00     0.029 C 
ENDBRANCH  21  22
ENDBRANCH   5  21
TORSDOF 7
ENDMDL
MODEL 4
REMARK VINA RESULT:      -5.8      8.560      9.953
REMARK  7 active torsions:
REMARK  status: ('A' for Active; 'I' for Inactive)
REMARK    1  A    between atoms: N_2  and  C_1 
REMARK    2  A    between atoms: N_4  and  C_3 
REMARK       I    between atoms: C_6  and  N_4 
REMARK    3  A    between atoms: C_7  and  C_6 
REMARK    4  A    between atoms: C_10  and  C_7 
REMARK    5  A    between atoms: C_14  and  C_10 
REMARK    6  A    between atoms: O_16  and  C_13 
REMARK    7  A    between atoms: C_17  and  O_16 
ROOT
ATOM      1  C   UNL d   1     -39.661  14.147  17.740  0.00  0.00     0.146 A 
ATOM      2  C   UNL d   1     -39.082  13.989  18.259  0.00  0.00     0.107 A 
ATOM      3  C   UNL d   1     -39.531  14.065  16.931  0.00  0.00     0.050 A 
ATOM      4  C   UNL d   1     -38.335  13.737  17.980  0.00  0.00     0.023 A 
ATOM      5  C   UNL d   1     -38.812  13.821  16.636  0.00  0.00     0.102 A 
ATOM      6  C   UNL d   1     -38.203  13.655  17.181  0.00  0.00     0.026 A 
ENDROOT
BRANCH   2   7
ATOM      7  N   UNL d   1     -39.183  14.062  19.097  0.00  0.00    -0.206 NA
ATOM      8  C   UNL d   1     -38.559  13.897  19.542  0.00  0.00     0.279 C 
ATOM      9  O   UNL d   1     -37.990  13.716  19.374  0.00  0.00    -0.265 OA
BRANCH   8  10
ATOM     10  C   UNL d   1     -38.661  13.971  20.371  0.00  0.00     0.062 C 
BRANCH  10  11
ATOM     11  C   UNL d   1     -38.314  13.434  20.896  0.00  0.00     0.005 C 
BRANCH  11  12
ATOM     12  C   UNL d   1     -38.465  13.507  21.711  0.00  0.00     0.000 A 
ATOM     13  C   UNL d   1     -39.021  13.977  21.972  0.00  0.00     0.000 A 
ATOM     14  C   UNL d   1     -39.136  14.020  22.797  0.00  0.00     0.000 A 
ATOM     15  C   UNL d   1     -38.672  13.577  23.294  0.00  0.00     0.000 A 
ATOM     16  C   UNL d   1     -38.113  13.105  23.028  0.00  0.00     0.000 A 
ATOM     17  C   UNL d   1     -37.990  13.055  22.216  0.00  0.00     0.000 A 
ENDBRANCH  11  12
ENDBRANCH  10  11
ENDBRANCH   8  10
ENDBRANCH   2   7
BRANCH   1  18
ATOM     18  N   UNL d   1     -40.400  14.398  18.051  0.00  0.00    -0.112 N 
ATOM     19  O   UNL d   1     -40.986  13.865  18.247  0.00  0.00    -0.532 OA
ATOM     20  O   UNL d   1     -40.546  15.234  18.166  0.00  0.00    -0.532 OA
ENDBRANCH   1  18
BRANCH   5  21
ATOM     21  O   UNL d   1     -38.696  13.743  15.811  0.00  0.00    -0.305 OA
BRANCH  21  22
ATOM     22  C   UNL d   1     -38.019  13.962  15.457  0.00  0.00     0.123 C 
ATOM     23  C   UNL d   1     -37.944  13.917  14.607  0.00  0.00     0.029 C 
ENDBRANCH  21  22
ENDBRANCH   5  21
TORSDOF 7
ENDMDL
MODEL 5
REMARK VINA RESULT:      -5.3      8.741     10.639
REMARK  7 active torsions:
REMARK  status: ('A' for Active; 'I' for Inactive)
REMARK    1  A    between atoms: N_2  and  C_1 
REMARK    2  A    between atoms: N_4  and  C_3 
REMARK       I    between atoms: C_6  and  N_4 
REMARK    3  A    between atoms: C_7  and  C_6 
REMARK    4  A    between atoms: C_10  and  C_7 
REMARK    5  A    between atoms: C_14  and  C_10 
REMARK    6  A    between atoms: O_16  and  C_13 
REMARK    7  A    between atoms: C_17  and  O_16 
ROOT
ATOM      1  C   UNL d   1     -38.671  13.473  16.960  0.00  0.00     0.146 A 
ATOM      2  C   UNL d   1     -39.095  14.126  17.113  0.00  0.00     0.107 A 
ATOM      3  C   UNL d   1     -38.290  13.383  16.236  0.00  0.00     0.050 A 
ATOM      4  C   UNL d   1     -39.155  14.725  16.533  0.00  0.00     0.023 A 
ATOM      5  C   UNL d   1     -38.334  13.953  15.656  0.00  0.00     0.102 A 
ATOM      6  C   UNL d   1     -38.779  14.639  15.816  0.00  0.00     0.026 A 
ENDROOT
BRANCH   2   7
ATOM      7  N   UNL d   1     -39.499  14.251  17.848  0.00  0.00    -0.206 NA
ATOM      8  C   UNL d   1     -39.758  14.977  17.987  0.00  0.00     0.279 C 
ATOM      9  O   UNL d   1     -39.714  15.487  17.637  0.00  0.00    -0.265 OA
BRANCH   8  10
ATOM     10  C   UNL d   1     -40.158  15.098  18.715  0.00  0.00     0.062 C 
BRANCH  10  11
ATOM     11  C   UNL d   1     -40.005  15.762  19.183  0.00  0.00     0.005 C 
BRANCH  11  12
ATOM     12  C   UNL d   1     -40.120  15.714  20.007  0.00  0.00     0.000 A 
ATOM     13  C   UNL d   1     -40.803  15.500  20.301  0.00  0.00     0.000 A 
ATOM     14  C   UNL d   1     -40.872  15.466  21.132  0.00  0.00     0.000 A 
ATOM     15  C   UNL d   1     -40.235  15.653  21.599  0.00  0.00     0.000 A 
ATOM     16  C   UNL d   1     -39.549  15.867  21.299  0.00  0.00     0.000 A 
ATOM     17  C   UNL d   1     -39.469  15.905  20.481  0.00  0.00     0.000 A 
ENDBRANCH  11  12
ENDBRANCH  10  11
ENDBRANCH   8  10
ENDBRANCH   2   7
BRANCH   1  18
ATOM     18  N   UNL d   1     -38.630  12.889  17.563  0.00  0.00    -0.112 N 
ATOM     19  O   UNL d   1     -38.041  12.896  18.128  0.00  0.00    -0.532 OA
ATOM     20  O   UNL d   1     -39.220  12.268  17.588  0.00  0.00    -0.532 OA
ENDBRANCH   1  18
BRANCH   5  21
ATOM     21  O   UNL d   1     -37.941  13.845  14.925  0.00  0.00    -0.305 OA
BRANCH  21  22
ATOM     22  C   UNL d   1     -38.118  13.247  14.434  0.00  0.00     0.123 C 
ATOM     23  C   UNL d   1     -37.943  13.309  13.599  0.00  0.00     0.029 C 
ENDBRANCH  21  22
ENDBRANCH   5  21
TORSDOF 7
ENDMDL
MODEL 6
REMARK VINA RESULT:      -5.3      8.520      9.048
REMARK  7 active torsions:
REMARK  status: ('A' for Active; 'I' for Inactive)
REMARK    1  A    between atoms: N_2  and  C_1 
REMARK    2  A    between atoms: N_4  and  C_3 
REMARK       I    between atoms: C_6  and  N_4 
REMARK    3  A    between atoms: C_7  and  C_6 
REMARK    4  A    between atoms: C_10  and  C_7 
REMARK    5  A    between atoms: C_14  and  C_10 
REMARK    6  A    between atoms: O_16  and  C_13 
REMARK    7  A    between atoms: C_17  and  O_16 
ROOT
ATOM      1  C   UNL d   1     -39.690  14.518  17.948  0.00  0.00     0.146 A 
ATOM      2  C   UNL d   1     -39.787  14.817  18.677  0.00  0.00     0.107 A 
ATOM      3  C   UNL d   1     -40.090  14.843  17.307  0.00  0.00     0.050 A 
ATOM      4  C   UNL d   1     -40.301  15.468  18.791  0.00  0.00     0.023 A 
ATOM      5  C   UNL d   1     -40.595  15.476  17.393  0.00  0.00     0.102 A 
ATOM      6  C   UNL d   1     -40.698  15.791  18.158  0.00  0.00     0.026 A 
ENDROOT
BRANCH   2   7
ATOM      7  N   UNL d   1     -39.391  14.507  19.359  0.00  0.00    -0.206 NA
ATOM      8  C   UNL d   1     -39.619  14.785  20.055  0.00  0.00     0.279 C 
ATOM      9  O   UNL d   1     -40.054  15.207  20.189  0.00  0.00    -0.265 OA
BRANCH   8  10
ATOM     10  C   UNL d   1     -39.225  14.476  20.728  0.00  0.00     0.062 C 
BRANCH  10  11
ATOM     11  C   UNL d   1     -39.570  14.508  21.479  0.00  0.00     0.005 C 
BRANCH  11  12
ATOM     12  C   UNL d   1     -39.137  14.239  22.137  0.00  0.00     0.000 A 
ATOM     13  C   UNL d   1     -38.922  13.498  22.195  0.00  0.00     0.000 A 
ATOM     14  C   UNL d   1     -38.489  13.273  22.871  0.00  0.00     0.000 A 
ATOM     15  C   UNL d   1     -38.308  13.824  23.439  0.00  0.00     0.000 A 
ATOM     16  C   UNL d   1     -38.526  14.569  23.377  0.00  0.00     0.000 A 
ATOM     17  C   UNL d   1     -38.954  14.803  22.714  0.00  0.00     0.000 A 
ENDBRANCH  11  12
ENDBRANCH  10  11
ENDBRANCH   8  10
ENDBRANCH   2   7
BRANCH   1  18
ATOM     18  N   UNL d   1     -39.167  13.865  17.866  0.00  0.00    -0.112 N 
ATOM     19  O   UNL d   1     -38.361  13.967  17.794  0.00  0.00    -0.532 OA
ATOM     20  O   UNL d   1     -39.486  13.070  17.856  0.00  0.00    -0.532 OA
ENDBRANCH   1  18
BRANCH   5  21
ATOM     21  O   UNL d   1     -40.994  15.795  16.730  0.00  0.00    -0.305 OA
BRANCH  21  22
ATOM     22  C   UNL d   1     -41.739  15.589  16.546  0.00  0.00     0.123 C 
ATOM     23  C   UNL d   1     -42.119  15.922  15.857  0.00  0.00     0.029 C 
ENDBRANCH  21  22
ENDBRANCH   5  21
TORSDOF 7
ENDMDL
MODEL 7
REMARK VINA RESULT:      -5.0      1.027      1.763
REMARK  7 active torsions:
REMARK  status: ('A' for Active; 'I' for Inactive)
REMARK    1  A    between atoms: N_2  and  C_1 
REMARK    2  A    between atoms: N_4  and  C_3 
REMARK       I    between atoms: C_6  and  N_4 
REMARK    3  A    between atoms: C_7  and  C_6 
REMARK    4  A    between atoms: C_10  and  C_7 
REMARK    5  A    between atoms: C_14  and  C_10 
REMARK    6  A    between atoms: O_16  and  C_13 
REMARK    7  A    between atoms: C_17  and  O_16 
ROOT
ATOM      1  C   UNL d   1     -47.448  13.917  22.752  0.00  0.00     0.146 A 
ATOM      2  C   UNL d   1     -47.314  13.200  23.066  0.00  0.00     0.107 A 
ATOM      3  C   UNL d   1     -48.216  14.201  22.673  0.00  0.00     0.050 A 
ATOM      4  C   UNL d   1     -47.960  12.732  23.318  0.00  0.00     0.023 A 
ATOM      5  C   UNL d   1     -48.861  13.764  22.911  0.00  0.00     0.102 A 
ATOM      6  C   UNL d   1     -48.721  13.011  23.241  0.00  0.00     0.026 A 
ENDROOT
BRANCH   2   7
ATOM      7  N   UNL d   1     -46.536  12.877  23.161  0.00  0.00    -0.206 NA
ATOM      8  C   UNL d   1     -46.484  12.097  23.216  0.00  0.00     0.279 C 
ATOM      9  O   UNL d   1     -46.931  11.668  23.200  0.00  0.00    -0.265 OA
BRANCH   8  10
ATOM     10  C   UNL d   1     -45.712  11.780  23.310  0.00  0.00     0.062 C 
BRANCH  10  11
ATOM     11  C   UNL d   1     -45.588  10.965  23.366  0.00  0.00     0.005 C 
BRANCH  11  12
ATOM     12  C   UNL d   1     -44.809  10.671  23.344  0.00  0.00     0.000 A 
ATOM     13  C   UNL d   1     -44.238  11.082  23.024  0.00  0.00     0.000 A 
ATOM     14  C   UNL d   1     -43.474  10.748  23.023  0.00  0.00     0.000 A 
ATOM     15  C   UNL d   1     -43.352  10.016  23.351  0.00  0.00     0.000 A 
ATOM     16  C   UNL d   1     -43.930   9.605  23.673  0.00  0.00     0.000 A 
ATOM     17  C   UNL d   1     -44.687   9.924  23.679  0.00  0.00     0.000 A 
ENDBRANCH  11  12
ENDBRANCH  10  11
ENDBRANCH   8  10
ENDBRANCH   2   7
BRANCH   1  18
ATOM     18  N   UNL d   1     -46.779  14.363  22.508  0.00  0.00    -0.112 N 
ATOM     19  O   UNL d   1     -46.413  14.895  23.007  0.00  0.00    -0.532 OA
ATOM     20  O   UNL d   1     -46.469  14.258  21.716  0.00  0.00    -0.532 OA
ENDBRANCH   1  18
BRANCH   5  21
ATOM     21  O   UNL d   1     -49.636  14.067  22.824  0.00  0.00    -0.305 OA
BRANCH  21  22
ATOM     22  C   UNL d   1     -50.146  14.104  23.432  0.00  0.00     0.123 C 
ATOM     23  C   UNL d   1     -50.944  14.386  23.308  0.00  0.00     0.029 C 
ENDBRANCH  21  22
ENDBRANCH   5  21
TORSDOF 7
ENDMDL
MODEL 8
REMARK VINA RESULT:      -4.6      8.071     10.027
REMARK  7 active torsions:
REMARK  status: ('A' for Active; 'I' for Inactive)
REMARK    1  A    between atoms: N_2  and  C_1 
REMARK    2  A    between atoms: N_4  and  C_3 
REMARK       I    between atoms: C_6  and  N_4 
REMARK    3  A    between atoms: C_7  and  C_6 
REMARK    4  A    between atoms: C_10  and  C_7 
REMARK    5  A    between atoms: C_14  and  C_10 
REMARK    6  A    between atoms: O_16  and  C_13 
REMARK    7  A    between atoms: C_17  and  O_16 
ROOT
ATOM      1  C   UNL d   1     -39.998  14.455  20.220  0.00  0.00     0.146 A 
ATOM      2  C   UNL d   1     -39.333  14.460  19.787  0.00  0.00     0.107 A 
ATOM      3  C   UNL d   1     -39.960  14.435  21.042  0.00  0.00     0.050 A 
ATOM      4  C   UNL d   1     -38.590  14.445  20.171  0.00  0.00     0.023 A 
ATOM      5  C   UNL d   1     -39.249  14.420  21.438  0.00  0.00     0.102 A 
ATOM      6  C   UNL d   1     -38.549  14.426  20.984  0.00  0.00     0.026 A 
ENDROOT
BRANCH   2   7
ATOM      7  N   UNL d   1     -39.336  14.480  18.940  0.00  0.00    -0.206 NA
ATOM      8  C   UNL d   1     -38.636  14.463  18.586  0.00  0.00     0.279 C 
ATOM      9  O   UNL d   1     -38.068  14.436  18.833  0.00  0.00    -0.265 OA
BRANCH   8  10
ATOM     10  C   UNL d   1     -38.642  14.483  17.747  0.00  0.00     0.062 C 
BRANCH  10  11
ATOM     11  C   UNL d   1     -37.949  14.373  17.311  0.00  0.00     0.005 C 
BRANCH  11  12
ATOM     12  C   UNL d   1     -37.996  14.306  16.482  0.00  0.00     0.000 A 
ATOM     13  C   UNL d   1     -37.949  14.931  16.030  0.00  0.00     0.000 A 
ATOM     14  C   UNL d   1     -38.001  14.817  15.205  0.00  0.00     0.000 A 
ATOM     15  C   UNL d   1     -38.098  14.069  14.905  0.00  0.00     0.000 A 
ATOM     16  C   UNL d   1     -38.145  13.442  15.364  0.00  0.00     0.000 A 
ATOM     17  C   UNL d   1     -38.095  13.542  16.179  0.00  0.00     0.000 A 
ENDBRANCH  11  12
ENDBRANCH  10  11
ENDBRANCH   8  10
ENDBRANCH   2   7
BRANCH   1  18
ATOM     18  N   UNL d   1     -40.729  14.470  19.806  0.00  0.00    -0.112 N 
ATOM     19  O   UNL d   1     -41.092  15.172  19.603  0.00  0.00    -0.532 OA
ATOM     20  O   UNL d   1     -41.105  13.731  19.589  0.00  0.00    -0.532 OA
ENDBRANCH   1  18
BRANCH   5  21
ATOM     21  O   UNL d   1     -39.228  14.400  22.274  0.00  0.00    -0.305 OA
BRANCH  21  22
ATOM     22  C   UNL d   1     -38.825  13.844  22.674  0.00  0.00     0.123 C 
ATOM     23  C   UNL d   1     -38.783  13.873  23.527  0.00  0.00     0.029 C 
ENDBRANCH  21  22
ENDBRANCH   5  21
TORSDOF 7
ENDMDL
MODEL 9
REMARK VINA RESULT:      -4.4      1.808      2.603
REMARK  7 active torsions:
REMARK  status: ('A' for Active; 'I' for Inactive)
REMARK    1  A    between atoms: N_2  and  C_1 
REMARK    2  A    between atoms: N_4  and  C_3 
REMARK       I    between atoms: C_6  and  N_4 
REMARK    3  A    between atoms: C_7  and  C_6 
REMARK    4  A    between atoms: C_10  and  C_7 
REMARK    5  A    between atoms: C_14  and  C_10 
REMARK    6  A    between atoms: O_16  and  C_13 
REMARK    7  A    between atoms: C_17  and  O_16 
ROOT
ATOM      1  C   UNL d   1     -47.849  13.383  22.802  0.00  0.00     0.146 A 
ATOM      2  C   UNL d   1     -47.197  12.942  22.906  0.00  0.00     0.107 A 
ATOM      3  C   UNL d   1     -48.581  13.114  23.064  0.00  0.00     0.050 A 
ATOM      4  C   UNL d   1     -47.258  12.198  23.285  0.00  0.00     0.023 A 
ATOM      5  C   UNL d   1     -48.665  12.394  23.435  0.00  0.00     0.102 A 
ATOM      6  C   UNL d   1     -47.981  11.929  23.545  0.00  0.00     0.026 A 
ENDROOT
BRANCH   2   7
ATOM      7  N   UNL d   1     -46.428  13.188  22.649  0.00  0.00    -0.206 NA
ATOM      8  C   UNL d   1     -45.852  12.660  22.707  0.00  0.00     0.279 C 
ATOM      9  O   UNL d   1     -45.870  12.076  22.915  0.00  0.00    -0.265 OA
BRANCH   8  10
ATOM     10  C   UNL d   1     -45.092  12.907  22.451  0.00  0.00     0.062 C 
BRANCH  10  11
ATOM     11  C   UNL d   1     -44.729  12.564  21.793  0.00  0.00     0.005 C 
BRANCH  11  12
ATOM     12  C   UNL d   1     -43.931  12.741  21.631  0.00  0.00     0.000 A 
ATOM     13  C   UNL d   1     -43.739  13.369  21.222  0.00  0.00     0.000 A 
ATOM     14  C   UNL d   1     -42.928  13.507  21.084  0.00  0.00     0.000 A 
ATOM     15  C   UNL d   1     -42.374  12.990  21.375  0.00  0.00     0.000 A 
ATOM     16  C   UNL d   1     -42.572  12.358  21.785  0.00  0.00     0.000 A 
ATOM     17  C   UNL d   1     -43.368  12.212  21.928  0.00  0.00     0.000 A 
ENDBRANCH  11  12
ENDBRANCH  10  11
ENDBRANCH   8  10
ENDBRANCH   2   7
BRANCH   1  18
ATOM     18  N   UNL d   1     -47.755  14.125  22.419  0.00  0.00    -0.112 N 
ATOM     19  O   UNL d   1     -47.910  14.219  21.623  0.00  0.00    -0.532 OA
ATOM     20  O   UNL d   1     -47.491  14.802  22.872  0.00  0.00    -0.532 OA
ENDBRANCH   1  18
BRANCH   5  21
ATOM     21  O   UNL d   1     -49.417  12.135  23.695  0.00  0.00    -0.305 OA
BRANCH  21  22
ATOM     22  C   UNL d   1     -49.992  11.928  23.187  0.00  0.00     0.123 C 
ATOM     23  C   UNL d   1     -50.749  11.661  23.480  0.00  0.00     0.029 C 
ENDBRANCH  21  22
ENDBRANCH   5  21
TORSDOF 7
ENDMDL
