MODEL 1
REMARK VINA RESULT:      26.3      0.000      0.000
REMARK  3 active torsions:
REMARK  status: ('A' for Active; 'I' for Inactive)
REMARK    1  A    between atoms: C_11  and  C_4 
REMARK       I    between atoms: C_6  and  N_8 
REMARK    2  A    between atoms: C_9  and  C_6 
REMARK    3  A    between atoms: N_8  and  C_19 
ROOT
ATOM      1  C   UNL d   1      46.300 -18.480  43.338  0.00  0.00     0.021 A 
ATOM      2  C   UNL d   1      46.197 -17.371  44.247  0.00  0.00     0.085 A 
ATOM      3  C   UNL d   1      46.258 -17.664  43.478  0.00  0.00     0.021 A 
ATOM      4  C   UNL d   1      46.281 -19.010  43.982  0.00  0.00     0.002 A 
ATOM      5  C   UNL d   1      46.221 -18.721  44.752  0.00  0.00     0.002 A 
ATOM      6  C   UNL d   1      46.178 -17.901  44.891  0.00  0.00     0.019 A 
ENDROOT
BRANCH   2   7
ATOM      7  N   UNL d   1      46.155 -16.559  44.377  0.00  0.00    -0.208 NA
ATOM      8  C   UNL d   1      45.534 -16.110  44.059  0.00  0.00     0.279 C 
ATOM      9  O   UNL d   1      44.949 -16.491  43.604  0.00  0.00    -0.265 OA
BRANCH   8  10
ATOM     10  C   UNL d   1      45.491 -15.298  44.188  0.00  0.00     0.060 A 
ATOM     11  C   UNL d   1      45.889 -14.779  43.691  0.00  0.00     0.031 A 
ATOM     12  C   UNL d   1      45.843 -13.979  43.824  0.00  0.00     0.119 A 
ATOM     13  O   UNL d   1      46.176 -13.326  43.426  0.00  0.00    -0.300 OA
ATOM     14  C   UNL d   1      45.399 -13.685  44.454  0.00  0.00     0.119 A 
ATOM     15  C   UNL d   1      45.934 -12.639  43.817  0.00  0.00     0.304 A 
ATOM     16  O   UNL d   1      45.454 -12.860  44.451  0.00  0.00    -0.300 OA
ATOM     17  C   UNL d   1      44.999 -14.201  44.955  0.00  0.00     0.026 A 
ATOM     18  C   UNL d   1      45.045 -15.015  44.822  0.00  0.00     0.007 A 
ENDBRANCH   8  10
ENDBRANCH   2   7
BRANCH   1  19
ATOM     19  C   UNL d   1      46.361 -18.774  42.570  0.00  0.00     0.118 A 
ATOM     20  N   UNL d   1      46.288 -18.340  41.874  0.00  0.00    -0.059 NA
ATOM     21  C   UNL d   1      46.389 -18.861  41.237  0.00  0.00     0.735 A 
ATOM     22  N   UNL d   1      46.525 -19.614  41.544  0.00  0.00    -0.136 N 
ATOM     23  N   UNL d   1      46.373 -18.732  40.421  0.00  0.00    -0.059 NA
ATOM     24  C   UNL d   1      46.508 -19.563  42.368  0.00  0.00     0.118 A 
ATOM     25  C   UNL d   1      46.646 -20.249  41.022  0.00  0.00     0.100 A 
ATOM     26  C   UNL d   1      46.632 -20.132  40.212  0.00  0.00     0.041 A 
ATOM     27  C   UNL d   1      46.494 -19.368  39.909  0.00  0.00     0.119 A 
ENDBRANCH   1  19
TORSDOF 3
ENDMDL
