MODEL 1
REMARK VINA RESULT:      37.6      0.000      0.000
REMARK  1 active torsions:
REMARK  status: ('A' for Active; 'I' for Inactive)
REMARK    1  A    between atoms: C_11  and  C_4 
ROOT
ATOM      1  N   UNL d   1     -54.741-101.230 -41.249  0.00  0.00    -0.242 NA
ATOM      2  C   UNL d   1     -54.736-101.641 -40.546  0.00  0.00     0.099 A 
ATOM      3  N   UNL d   1     -54.741-102.878 -41.245  0.00  0.00    -0.241 NA
ATOM      4  C   UNL d   1     -54.746-101.645 -41.947  0.00  0.00     0.101 A 
ATOM      5  C   UNL d   1     -54.736-102.466 -40.544  0.00  0.00     0.099 A 
ATOM      6  C   UNL d   1     -54.731-101.226 -39.841  0.00  0.00     0.021 A 
ATOM      7  C   UNL d   1     -54.726-101.637 -39.109  0.00  0.00     0.002 A 
ATOM      8  C   UNL d   1     -54.726-102.462 -39.107  0.00  0.00     0.002 A 
ATOM      9  C   UNL d   1     -54.731-102.874 -39.837  0.00  0.00     0.021 A 
ATOM     10  C   UNL d   1     -54.746-102.470 -41.945  0.00  0.00     0.118 A 
ATOM     11  C   UNL d   1     -54.721-101.222 -38.384  0.00  0.00     0.000 C 
ATOM     12  C   UNL d   1     -54.721-102.870 -38.380  0.00  0.00     0.000 C 
ENDROOT
BRANCH   4  13
ATOM     13  C   UNL d   1     -54.751-101.234 -42.652  0.00  0.00     0.019 A 
ATOM     14  C   UNL d   1     -54.790-100.415 -42.655  0.00  0.00     0.002 A 
ATOM     15  C   UNL d   1     -54.796 -99.975 -43.383  0.00  0.00     0.000 A 
ATOM     16  C   UNL d   1     -54.760-100.418 -44.082  0.00  0.00     0.000 A 
ATOM     17  C   UNL d   1     -54.720-101.237 -44.080  0.00  0.00     0.000 A 
ATOM     18  C   UNL d   1     -54.715-101.648 -43.378  0.00  0.00     0.002 A 
ENDBRANCH   4  13
TORSDOF 1
ENDMDL
