MODEL 1
REMARK VINA RESULT:      31.4      0.000      0.000
REMARK  2 active torsions:
REMARK  status: ('A' for Active; 'I' for Inactive)
REMARK    1  A    between atoms: N_10  and  C_6 
REMARK    2  A    between atoms: C_12  and  N_10 
ROOT
ATOM      1  N   UNL d   1      13.626  13.014  -2.949  0.00  0.00    -0.169 N 
ATOM      2  C   UNL d   1      13.552  12.191  -2.940  0.00  0.00     0.201 A 
ATOM      3  C   UNL d   1      13.501  13.424  -3.643  0.00  0.00     0.283 A 
ATOM      4  S   UNL d   1      13.707  11.927  -2.175  0.00  0.00    -0.008 SA
ATOM      5  N   UNL d   1      13.828  13.256  -2.183  0.00  0.00    -0.134 NA
ATOM      6  C   UNL d   1      13.878  12.591  -1.711  0.00  0.00     0.216 A 
ATOM      7  N   UNL d   1      13.356  11.779  -3.613  0.00  0.00    -0.221 NA
ATOM      8  C   UNL d   1      13.301  13.017  -4.334  0.00  0.00     0.076 A 
ATOM      9  C   UNL d   1      13.229  12.194  -4.319  0.00  0.00     0.088 A 
ATOM     10  O   UNL d   1      13.573  14.246  -3.658  0.00  0.00    -0.265 OA
ATOM     11  C   UNL d   1      13.173  13.427  -5.041  0.00  0.00     0.006 A 
ATOM     12  C   UNL d   1      13.028  11.782  -5.011  0.00  0.00     0.019 A 
ATOM     13  C   UNL d   1      12.972  13.007  -5.734  0.00  0.00     0.000 A 
ATOM     14  C   UNL d   1      12.900  12.197  -5.719  0.00  0.00     0.002 A 
ENDROOT
BRANCH   6  15
ATOM     15  N   UNL d   1      14.065  12.577  -0.906  0.00  0.00    -0.220 NA
BRANCH  15  16
ATOM     16  C   UNL d   1      14.699  13.003  -0.608  0.00  0.00     0.084 A 
ATOM     17  C   UNL d   1      14.631  13.804  -0.468  0.00  0.00     0.019 A 
ATOM     18  C   UNL d   1      15.274  14.218  -0.169  0.00  0.00     0.002 A 
ATOM     19  C   UNL d   1      15.213  15.023  -0.026  0.00  0.00     0.000 C 
ATOM     20  C   UNL d   1      15.980  13.819  -0.014  0.00  0.00     0.000 A 
ATOM     21  C   UNL d   1      16.047  13.021  -0.154  0.00  0.00     0.002 A 
ATOM     22  C   UNL d   1      15.401  12.605  -0.454  0.00  0.00     0.019 A 
ENDBRANCH  15  16
ENDBRANCH   6  15
TORSDOF 2
ENDMDL
