MODEL 1
REMARK VINA RESULT:      93.0      0.000      0.000
REMARK  7 active torsions:
REMARK  status: ('A' for Active; 'I' for Inactive)
REMARK    1  A    between atoms: C_20  and  N_1 
REMARK       I    between atoms: C_6  and  N_7 
REMARK    2  A    between atoms: C_10  and  C_6 
REMARK    3  A    between atoms: N_7  and  C_24 
REMARK    4  A    between atoms: C_9  and  N_7 
REMARK    5  A    between atoms: O_29  and  C_11 
REMARK    6  A    between atoms: C_23  and  C_20 
REMARK    7  A    between atoms: C_24  and  C_23 
ROOT
ATOM      1  C   UNL d   1     -55.209-100.114 -42.825  0.00  0.00     0.085 C 
ENDROOT
BRANCH   1   2
ATOM      2  N   UNL d   1     -55.062-100.877 -43.072  0.00  0.00    -0.271 N 
ATOM      3  C   UNL d   1     -55.001-101.481 -42.510  0.00  0.00     0.271 C 
ATOM      4  O   UNL d   1     -54.853-102.250 -42.756  0.00  0.00    -0.266 OA
BRANCH   3   5
ATOM      5  C   UNL d   1     -55.088-101.310 -41.707  0.00  0.00     0.086 A 
ATOM      6  S   UNL d   1     -54.722-100.702 -41.281  0.00  0.00    -0.082 SA
ATOM      7  C   UNL d   1     -54.965-100.741 -40.520  0.00  0.00     0.036 A 
ATOM      8  C   UNL d   1     -55.479-101.353 -40.432  0.00  0.00     0.008 A 
ATOM      9  C   UNL d   1     -55.568-101.728 -41.188  0.00  0.00     0.012 A 
ENDBRANCH   3   5
BRANCH   2  10
ATOM     10  C   UNL d   1     -54.975-101.048 -43.870  0.00  0.00     0.089 A 
ATOM     11  C   UNL d   1     -55.020-101.833 -44.143  0.00  0.00     0.110 A 
ATOM     12  C   UNL d   1     -54.934-102.002 -44.936  0.00  0.00     0.026 A 
ATOM     13  C   UNL d   1     -54.800-101.393 -45.483  0.00  0.00     0.002 A 
ATOM     14  C   UNL d   1     -54.757-100.622 -45.212  0.00  0.00     0.002 A 
ATOM     15  C   UNL d   1     -54.713-101.564 -46.285  0.00  0.00     0.000 C 
ATOM     16  C   UNL d   1     -54.843-100.452 -44.418  0.00  0.00     0.020 A 
BRANCH  11  17
ATOM     17  O   UNL d   1     -55.151-102.438 -43.614  0.00  0.00    -0.327 OA
ATOM     18  C   UNL d   1     -54.755-102.448 -42.900  0.00  0.00     0.181 C 
ENDBRANCH  11  17
ENDBRANCH   2  10
ENDBRANCH   1   2
BRANCH   1  19
ATOM     19  C   UNL d   1     -55.082 -99.464 -43.353  0.00  0.00     0.038 C 
BRANCH  19  20
ATOM     20  C   UNL d   1     -55.531 -98.768 -43.285  0.00  0.00     0.088 C 
BRANCH  20  21
ATOM     21  N   UNL d   1     -56.350 -98.767 -43.528  0.00  0.00    -0.240 N 
ATOM     22  C   UNL d   1     -56.952 -98.770 -42.964  0.00  0.00     0.267 A 
ATOM     23  C   UNL d   1     -57.748 -98.769 -43.189  0.00  0.00     0.057 A 
ATOM     24  O   UNL d   1     -56.763 -98.775 -42.131  0.00  0.00    -0.267 OA
ATOM     25  C   UNL d   1     -58.338 -98.773 -42.637  0.00  0.00     0.005 A 
ATOM     26  C   UNL d   1     -57.925 -98.765 -44.004  0.00  0.00     0.009 A 
ATOM     27  C   UNL d   1     -59.136 -98.772 -42.871  0.00  0.00     0.000 A 
ATOM     28  C   UNL d   1     -59.307 -98.767 -43.673  0.00  0.00     0.000 A 
ATOM     29  C   UNL d   1     -58.717 -98.764 -44.225  0.00  0.00     0.000 A 
ATOM     30  C   UNL d   1     -58.892 -98.760 -45.037  0.00  0.00     0.000 A 
ATOM     31  C   UNL d   1     -58.289 -98.756 -45.601  0.00  0.00     0.000 A 
ATOM     32  C   UNL d   1     -57.497 -98.757 -45.367  0.00  0.00     0.005 A 
ATOM     33  C   UNL d   1     -57.322 -98.762 -44.567  0.00  0.00     0.057 A 
ATOM     34  C   UNL d   1     -56.527 -98.762 -44.331  0.00  0.00     0.267 A 
ATOM     35  O   UNL d   1     -55.915 -98.759 -44.903  0.00  0.00    -0.267 OA
ENDBRANCH  20  21
ENDBRANCH  19  20
ENDBRANCH   1  19
TORSDOF 7
ENDMDL
