MODEL 1
REMARK VINA RESULT:      -5.5      0.000      0.000
REMARK  6 active torsions:
REMARK  status: ('A' for Active; 'I' for Inactive)
REMARK    1  A    between atoms: C_6  and  N_1 
REMARK    2  A    between atoms: C_13  and  C_6 
REMARK    3  A    between atoms: C_8  and  C_9 
REMARK    4  A    between atoms: C_16  and  C_13 
REMARK    5  A    between atoms: O_14  and  C_16 
REMARK    6  A    between atoms: C_15  and  O_14 
ROOT
ATOM      1  C   UNL d   1     -41.369-123.027 -50.644  0.00  0.00     0.237 C 
ATOM      2  O   UNL d   1     -41.129-123.817 -50.541  0.00  0.00    -0.283 OA
ENDROOT
BRANCH   1   3
ATOM      3  C   UNL d   1     -41.525-122.552 -49.980  0.00  0.00     0.117 C 
BRANCH   3   4
ATOM      4  N   UNL d   1     -41.923-122.866 -49.327  0.00  0.00    -0.344 N 
ATOM      5  C   UNL d   1     -41.596-122.791 -48.565  0.00  0.00     0.086 A 
ATOM      6  C   UNL d   1     -41.992-123.103 -47.914  0.00  0.00     0.035 A 
ATOM      7  C   UNL d   1     -41.269-122.714 -47.811  0.00  0.00     0.027 C 
ATOM      8  C   UNL d   1     -41.197-122.477 -49.217  0.00  0.00     0.027 C 
ATOM      9  C   UNL d   1     -42.718-123.494 -48.014  0.00  0.00     0.191 A 
ATOM     10  C   UNL d   1     -43.045-123.569 -48.777  0.00  0.00     0.035 A 
ATOM     11  O   UNL d   1     -43.114-123.806 -47.364  0.00  0.00    -0.287 OA
ATOM     12  C   UNL d   1     -42.643-123.253 -49.432  0.00  0.00     0.086 A 
ATOM     13  C   UNL d   1     -42.247-122.941 -50.082  0.00  0.00     0.027 C 
ATOM     14  C   UNL d   1     -43.362-123.639 -49.535  0.00  0.00     0.027 C 
ENDBRANCH   3   4
ENDBRANCH   1   3
BRANCH   1  15
ATOM     15  C   UNL d   1     -41.455-122.712 -51.395  0.00  0.00     0.166 C 
BRANCH  15  16
ATOM     16  O   UNL d   1     -41.142-123.109 -52.053  0.00  0.00    -0.302 OA
BRANCH  16  17
ATOM     17  C   UNL d   1     -41.325-122.852 -52.828  0.00  0.00     0.100 A 
ATOM     18  C   UNL d   1     -41.592-122.083 -52.962  0.00  0.00     0.025 A 
ATOM     19  C   UNL d   1     -41.769-121.836 -53.727  0.00  0.00     0.005 A 
ATOM     20  C   UNL d   1     -41.682-122.355 -54.362  0.00  0.00     0.039 A 
ATOM     21  C   UNL d   1     -41.414-123.127 -54.227  0.00  0.00     0.005 A 
ATOM     22  C   UNL d   1     -41.235-123.374 -53.458  0.00  0.00     0.025 A 
BRANCH  20  23
ATOM     23  C   UNL d   1     -41.862-122.099 -55.124  0.00  0.00     0.196 C 
ATOM     24  O   UNL d   1     -41.271-122.022 -55.694  0.00  0.00    -0.287 OA
ATOM     25  C   UNL d   1     -42.647-121.918 -55.316  0.00  0.00     0.045 C 
ENDBRANCH  20  23
ENDBRANCH  16  17
ENDBRANCH  15  16
ENDBRANCH   1  15
TORSDOF 6
ENDMDL
MODEL 2
REMARK VINA RESULT:      -5.4      1.220      5.430
REMARK  6 active torsions:
REMARK  status: ('A' for Active; 'I' for Inactive)
REMARK    1  A    between atoms: C_6  and  N_1 
REMARK    2  A    between atoms: C_13  and  C_6 
REMARK    3  A    between atoms: C_8  and  C_9 
REMARK    4  A    between atoms: C_16  and  C_13 
REMARK    5  A    between atoms: O_14  and  C_16 
REMARK    6  A    between atoms: C_15  and  O_14 
ROOT
ATOM      1  C   UNL d   1     -41.381-122.315 -52.497  0.00  0.00     0.237 C 
ATOM      2  O   UNL d   1     -41.503-121.492 -52.536  0.00  0.00    -0.283 OA
ENDROOT
BRANCH   1   3
ATOM      3  C   UNL d   1     -41.123-122.726 -53.172  0.00  0.00     0.117 C 
BRANCH   3   4
ATOM      4  N   UNL d   1     -41.497-122.608 -53.900  0.00  0.00    -0.344 N 
ATOM      5  C   UNL d   1     -41.496-123.214 -54.472  0.00  0.00     0.086 A 
ATOM      6  C   UNL d   1     -41.867-123.098 -55.197  0.00  0.00     0.035 A 
ATOM      7  C   UNL d   1     -41.493-123.817 -55.034  0.00  0.00     0.027 C 
ATOM      8  C   UNL d   1     -41.123-123.333 -53.744  0.00  0.00     0.027 C 
ATOM      9  C   UNL d   1     -42.244-122.376 -55.362  0.00  0.00     0.191 A 
ATOM     10  C   UNL d   1     -42.244-121.770 -54.791  0.00  0.00     0.035 A 
ATOM     11  O   UNL d   1     -42.615-122.259 -56.088  0.00  0.00    -0.287 OA
ATOM     12  C   UNL d   1     -41.869-121.891 -54.060  0.00  0.00     0.086 A 
ATOM     13  C   UNL d   1     -41.498-122.007 -53.335  0.00  0.00     0.027 C 
ATOM     14  C   UNL d   1     -42.241-121.174 -54.220  0.00  0.00     0.027 C 
ENDBRANCH   3   4
ENDBRANCH   1   3
BRANCH   1  15
ATOM     15  C   UNL d   1     -41.511-122.723 -51.801  0.00  0.00     0.166 C 
BRANCH  15  16
ATOM     16  O   UNL d   1     -41.270-122.400 -51.075  0.00  0.00    -0.302 OA
BRANCH  16  17
ATOM     17  C   UNL d   1     -41.574-122.702 -50.356  0.00  0.00     0.100 A 
ATOM     18  C   UNL d   1     -41.440-123.487 -50.142  0.00  0.00     0.025 A 
ATOM     19  C   UNL d   1     -41.740-123.778 -49.433  0.00  0.00     0.005 A 
ATOM     20  C   UNL d   1     -42.177-123.288 -48.934  0.00  0.00     0.039 A 
ATOM     21  C   UNL d   1     -42.312-122.499 -49.149  0.00  0.00     0.005 A 
ATOM     22  C   UNL d   1     -42.009-122.208 -49.862  0.00  0.00     0.025 A 
BRANCH  20  23
ATOM     23  C   UNL d   1     -42.474-123.588 -48.227  0.00  0.00     0.196 C 
ATOM     24  O   UNL d   1     -43.265-123.817 -48.165  0.00  0.00    -0.287 OA
ATOM     25  C   UNL d   1     -41.971-123.659 -47.573  0.00  0.00     0.045 C 
ENDBRANCH  20  23
ENDBRANCH  16  17
ENDBRANCH  15  16
ENDBRANCH   1  15
TORSDOF 6
ENDMDL
