MODEL 1
REMARK VINA RESULT:      -8.8      0.000      0.000
REMARK  2 active torsions:
REMARK  status: ('A' for Active; 'I' for Inactive)
REMARK    1  A    between atoms: C_6  and  C_1 
REMARK    2  A    between atoms: C_8  and  N_3 
REMARK       I    between atoms: N_7  and  C_6 
ROOT
ATOM      1  C   UNL d   1      53.318  31.910  53.235  0.00  0.00     0.124 A 
ATOM      2  C   UNL d   1      52.913  32.616  53.439  0.00  0.00     0.181 A 
ATOM      3  N   UNL d   1      53.482  33.152  53.745  0.00  0.00    -0.276 N 
ATOM      4  C   UNL d   1      54.221  32.786  53.731  0.00  0.00     0.152 A 
ATOM      5  S   UNL d   1      54.134  32.013  53.417  0.00  0.00    -0.051 SA
ATOM      6  S   UNL d   1      54.925  33.117  53.982  0.00  0.00    -0.052 SA
ATOM      7  N   UNL d   1      52.101  32.671  53.320  0.00  0.00    -0.128 N 
ENDROOT
BRANCH   1   8
ATOM      8  C   UNL d   1      52.918  31.267  52.917  0.00  0.00     0.274 C 
ATOM      9  N   UNL d   1      52.954  30.538  53.297  0.00  0.00    -0.267 N 
ATOM     10  C   UNL d   1      53.393  30.443  54.006  0.00  0.00     0.110 A 
ATOM     11  C   UNL d   1      52.550  29.876  52.979  0.00  0.00     0.110 A 
ATOM     12  C   UNL d   1      53.423  29.699  54.383  0.00  0.00     0.142 A 
ATOM     13  O   UNL d   1      53.020  29.058  54.058  0.00  0.00    -0.300 OA
ATOM     14  C   UNL d   1      52.586  29.147  53.359  0.00  0.00     0.142 A 
ATOM     15  O   UNL d   1      52.487  31.348  52.226  0.00  0.00    -0.266 OA
ENDBRANCH   1   8
BRANCH   3  16
ATOM     16  C   UNL d   1      53.314  33.924  54.016  0.00  0.00     0.067 A 
ATOM     17  C   UNL d   1      53.307  34.087  54.818  0.00  0.00     0.018 A 
ATOM     18  C   UNL d   1      53.137  34.866  55.080  0.00  0.00     0.002 A 
ATOM     19  C   UNL d   1      52.980  35.453  54.537  0.00  0.00     0.000 A 
ATOM     20  C   UNL d   1      52.988  35.283  53.724  0.00  0.00     0.002 A 
ATOM     21  C   UNL d   1      52.813  36.218  54.798  0.00  0.00     0.000 C 
ATOM     22  C   UNL d   1      53.154  34.521  53.460  0.00  0.00     0.018 A 
ENDBRANCH   3  16
TORSDOF 2
ENDMDL
MODEL 2
REMARK VINA RESULT:      -7.1      1.493      4.249
REMARK  2 active torsions:
REMARK  status: ('A' for Active; 'I' for Inactive)
REMARK    1  A    between atoms: C_6  and  C_1 
REMARK    2  A    between atoms: C_8  and  N_3 
REMARK       I    between atoms: N_7  and  C_6 
ROOT
ATOM      1  C   UNL d   1      53.146  33.452  53.393  0.00  0.00     0.124 A 
ATOM      2  C   UNL d   1      52.762  32.707  53.431  0.00  0.00     0.181 A 
ATOM      3  N   UNL d   1      53.358  32.116  53.404  0.00  0.00    -0.276 N 
ATOM      4  C   UNL d   1      54.093  32.487  53.352  0.00  0.00     0.152 A 
ATOM      5  S   UNL d   1      53.977  33.318  53.344  0.00  0.00    -0.051 SA
ATOM      6  S   UNL d   1      54.818  32.111  53.313  0.00  0.00    -0.052 SA
ATOM      7  N   UNL d   1      51.942  32.671  53.482  0.00  0.00    -0.128 N 
ENDROOT
BRANCH   1   8
ATOM      8  C   UNL d   1      52.718  34.153  53.407  0.00  0.00     0.274 C 
ATOM      9  N   UNL d   1      52.833  34.686  54.022  0.00  0.00    -0.267 N 
ATOM     10  C   UNL d   1      53.381  34.524  54.636  0.00  0.00     0.110 A 
ATOM     11  C   UNL d   1      52.401  35.404  54.045  0.00  0.00     0.110 A 
ATOM     12  C   UNL d   1      53.490  35.072  55.256  0.00  0.00     0.142 A 
ATOM     13  O   UNL d   1      53.057  35.774  55.264  0.00  0.00    -0.300 OA
ATOM     14  C   UNL d   1      52.515  35.937  54.661  0.00  0.00     0.142 A 
ATOM     15  O   UNL d   1      52.181  34.321  52.813  0.00  0.00    -0.266 OA
ENDBRANCH   1   8
BRANCH   3  16
ATOM     16  C   UNL d   1      53.216  31.293  53.428  0.00  0.00     0.067 A 
ATOM     17  C   UNL d   1      52.936  30.904  52.765  0.00  0.00     0.018 A 
ATOM     18  C   UNL d   1      52.797  30.078  52.799  0.00  0.00     0.002 A 
ATOM     19  C   UNL d   1      52.940  29.668  53.489  0.00  0.00     0.000 A 
ATOM     20  C   UNL d   1      53.225  30.067  54.159  0.00  0.00     0.002 A 
ATOM     21  C   UNL d   1      52.802  28.855  53.519  0.00  0.00     0.000 C 
ATOM     22  C   UNL d   1      53.364  30.878  54.133  0.00  0.00     0.018 A 
ENDBRANCH   3  16
TORSDOF 2
ENDMDL
MODEL 3
REMARK VINA RESULT:      -6.9      2.548      3.672
REMARK  2 active torsions:
REMARK  status: ('A' for Active; 'I' for Inactive)
REMARK    1  A    between atoms: C_6  and  C_1 
REMARK    2  A    between atoms: C_8  and  N_3 
REMARK       I    between atoms: N_7  and  C_6 
ROOT
ATOM      1  C   UNL d   1      52.747  33.709  54.091  0.00  0.00     0.124 A 
ATOM      2  C   UNL d   1      52.191  34.199  53.698  0.00  0.00     0.181 A 
ATOM      3  N   UNL d   1      51.712  33.702  53.220  0.00  0.00    -0.276 N 
ATOM      4  C   UNL d   1      51.967  32.923  53.314  0.00  0.00     0.152 A 
ATOM      5  S   UNL d   1      52.610  32.912  53.853  0.00  0.00    -0.051 SA
ATOM      6  S   UNL d   1      51.648  32.266  52.945  0.00  0.00    -0.052 SA
ATOM      7  N   UNL d   1      52.198  35.011  53.829  0.00  0.00    -0.128 N 
ENDROOT
BRANCH   1   8
ATOM      8  C   UNL d   1      53.303  34.024  54.607  0.00  0.00     0.274 C 
ATOM      9  N   UNL d   1      54.092  33.803  54.537  0.00  0.00    -0.267 N 
ATOM     10  C   UNL d   1      54.337  33.261  53.945  0.00  0.00     0.110 A 
ATOM     11  C   UNL d   1      54.667  34.119  55.059  0.00  0.00     0.110 A 
ATOM     12  C   UNL d   1      55.141  33.044  53.882  0.00  0.00     0.142 A 
ATOM     13  O   UNL d   1      55.694  33.364  54.403  0.00  0.00    -0.300 OA
ATOM     14  C   UNL d   1      55.457  33.899  54.988  0.00  0.00     0.142 A 
ATOM     15  O   UNL d   1      53.075  34.553  55.187  0.00  0.00    -0.266 OA
ENDBRANCH   1   8
BRANCH   3  16
ATOM     16  C   UNL d   1      51.086  33.966  52.734  0.00  0.00     0.067 A 
ATOM     17  C   UNL d   1      51.212  34.098  51.936  0.00  0.00     0.018 A 
ATOM     18  C   UNL d   1      50.577  34.363  51.456  0.00  0.00     0.002 A 
ATOM     19  C   UNL d   1      49.841  34.488  51.785  0.00  0.00     0.000 A 
ATOM     20  C   UNL d   1      49.719  34.353  52.596  0.00  0.00     0.002 A 
ATOM     21  C   UNL d   1      49.219  34.748  51.311  0.00  0.00     0.000 C 
ATOM     22  C   UNL d   1      50.338  34.092  53.072  0.00  0.00     0.018 A 
ENDBRANCH   3  16
TORSDOF 2
ENDMDL
MODEL 4
REMARK VINA RESULT:      -6.8      2.308      3.587
REMARK  2 active torsions:
REMARK  status: ('A' for Active; 'I' for Inactive)
REMARK    1  A    between atoms: C_6  and  C_1 
REMARK    2  A    between atoms: C_8  and  N_3 
REMARK       I    between atoms: N_7  and  C_6 
ROOT
ATOM      1  C   UNL d   1      51.972  33.550  52.595  0.00  0.00     0.124 A 
ATOM      2  C   UNL d   1      52.609  33.901  53.013  0.00  0.00     0.181 A 
ATOM      3  N   UNL d   1      52.973  33.296  53.468  0.00  0.00    -0.276 N 
ATOM      4  C   UNL d   1      52.570  32.589  53.335  0.00  0.00     0.152 A 
ATOM      5  S   UNL d   1      51.945  32.732  52.794  0.00  0.00    -0.051 SA
ATOM      6  S   UNL d   1      52.747  31.865  53.672  0.00  0.00    -0.052 SA
ATOM      7  N   UNL d   1      52.766  34.704  52.923  0.00  0.00    -0.128 N 
ENDROOT
BRANCH   1   8
ATOM      8  C   UNL d   1      51.497  33.994  52.093  0.00  0.00     0.274 C 
ATOM      9  N   UNL d   1      50.733  34.192  52.327  0.00  0.00    -0.267 N 
ATOM     10  C   UNL d   1      50.434  33.946  53.072  0.00  0.00     0.110 A 
ATOM     11  C   UNL d   1      50.240  34.644  51.822  0.00  0.00     0.110 A 
ATOM     12  C   UNL d   1      49.658  34.153  53.299  0.00  0.00     0.142 A 
ATOM     13  O   UNL d   1      49.186  34.598  52.791  0.00  0.00    -0.300 OA
ATOM     14  C   UNL d   1      49.477  34.842  52.056  0.00  0.00     0.142 A 
ATOM     15  O   UNL d   1      51.779  34.238  51.365  0.00  0.00    -0.266 OA
ENDBRANCH   1   8
BRANCH   3  16
ATOM     16  C   UNL d   1      53.633  33.407  53.969  0.00  0.00     0.067 A 
ATOM     17  C   UNL d   1      54.385  33.219  53.707  0.00  0.00     0.018 A 
ATOM     18  C   UNL d   1      55.041  33.334  54.217  0.00  0.00     0.002 A 
ATOM     19  C   UNL d   1      54.926  33.630  54.968  0.00  0.00     0.000 A 
ATOM     20  C   UNL d   1      54.161  33.819  55.229  0.00  0.00     0.002 A 
ATOM     21  C   UNL d   1      55.574  33.742  55.467  0.00  0.00     0.000 C 
ATOM     22  C   UNL d   1      53.513  33.709  54.734  0.00  0.00     0.018 A 
ENDBRANCH   3  16
TORSDOF 2
ENDMDL
MODEL 5
REMARK VINA RESULT:      -6.0      2.841      4.398
REMARK  2 active torsions:
REMARK  status: ('A' for Active; 'I' for Inactive)
REMARK    1  A    between atoms: C_6  and  C_1 
REMARK    2  A    between atoms: C_8  and  N_3 
REMARK       I    between atoms: N_7  and  C_6 
ROOT
ATOM      1  C   UNL d   1      50.987  34.207  52.860  0.00  0.00     0.124 A 
ATOM      2  C   UNL d   1      51.232  33.459  53.150  0.00  0.00     0.181 A 
ATOM      3  N   UNL d   1      52.060  33.400  53.028  0.00  0.00    -0.276 N 
ATOM      4  C   UNL d   1      52.322  34.096  52.670  0.00  0.00     0.152 A 
ATOM      5  S   UNL d   1      51.666  34.607  52.559  0.00  0.00    -0.051 SA
ATOM      6  S   UNL d   1      53.093  34.264  52.456  0.00  0.00    -0.052 SA
ATOM      7  N   UNL d   1      50.677  32.947  53.479  0.00  0.00    -0.128 N 
ENDROOT
BRANCH   1   8
ATOM      8  C   UNL d   1      50.202  34.442  52.896  0.00  0.00     0.274 C 
ATOM      9  N   UNL d   1      49.764  34.504  52.202  0.00  0.00    -0.267 N 
ATOM     10  C   UNL d   1      50.110  34.330  51.458  0.00  0.00     0.110 A 
ATOM     11  C   UNL d   1      48.961  34.743  52.229  0.00  0.00     0.110 A 
ATOM     12  C   UNL d   1      49.658  34.395  50.760  0.00  0.00     0.142 A 
ATOM     13  O   UNL d   1      48.869  34.632  50.803  0.00  0.00    -0.300 OA
ATOM     14  C   UNL d   1      48.524  34.805  51.535  0.00  0.00     0.142 A 
ATOM     15  O   UNL d   1      49.854  34.614  53.616  0.00  0.00    -0.266 OA
ENDBRANCH   1   8
BRANCH   3  16
ATOM     16  C   UNL d   1      52.529  32.741  53.238  0.00  0.00     0.067 A 
ATOM     17  C   UNL d   1      53.054  32.792  53.864  0.00  0.00     0.018 A 
ATOM     18  C   UNL d   1      53.520  32.125  54.067  0.00  0.00     0.002 A 
ATOM     19  C   UNL d   1      53.448  31.432  53.643  0.00  0.00     0.000 A 
ATOM     20  C   UNL d   1      52.913  31.386  53.009  0.00  0.00     0.002 A 
ATOM     21  C   UNL d   1      53.908  30.778  53.846  0.00  0.00     0.000 C 
ATOM     22  C   UNL d   1      52.453  32.037  52.804  0.00  0.00     0.018 A 
ENDBRANCH   3  16
TORSDOF 2
ENDMDL
