MODEL 1
REMARK VINA RESULT:      -5.5      0.000      0.000
REMARK  7 active torsions:
REMARK  status: ('A' for Active; 'I' for Inactive)
REMARK    1  A    between atoms: C_7  and  N_1 
REMARK    2  A    between atoms: C_6  and  C_4 
REMARK    3  A    between atoms: C_9  and  C_6 
REMARK    4  A    between atoms: C_8  and  C_7 
REMARK       I    between atoms: N_12  and  C_8 
REMARK    5  A    between atoms: C_10  and  C_9 
REMARK    6  A    between atoms: C_16  and  C_10 
REMARK    7  A    between atoms: C_15  and  N_12 
ROOT
ATOM      1  N   UNL d   1      59.250   0.230  29.573  0.00  0.00    -0.230 N 
ATOM      2  C   UNL d   1      59.587   0.486  30.285  0.00  0.00     0.299 A 
ATOM      3  C   UNL d   1      58.430   0.270  29.652  0.00  0.00     0.274 A 
ATOM      4  C   UNL d   1      58.258   0.551  30.413  0.00  0.00     0.090 A 
ATOM      5  S   UNL d   1      58.976   0.681  30.796  0.00  0.00    -0.022 SA
ATOM      6  O   UNL d   1      60.397   0.533  30.443  0.00  0.00    -0.259 OA
ATOM      7  O   UNL d   1      57.873   0.066  29.072  0.00  0.00    -0.266 OA
ENDROOT
BRANCH   1   8
ATOM      8  C   UNL d   1      59.655  -0.021  28.900  0.00  0.00     0.149 C 
BRANCH   8   9
ATOM      9  C   UNL d   1      60.024  -0.759  28.885  0.00  0.00     0.297 C 
ATOM     10  N   UNL d   1      59.586  -1.429  28.691  0.00  0.00    -0.207 NA
ATOM     11  O   UNL d   1      60.823  -0.821  29.065  0.00  0.00    -0.264 OA
BRANCH  10  12
ATOM     12  C   UNL d   1      59.956  -2.171  28.676  0.00  0.00     0.085 A 
ATOM     13  C   UNL d   1      59.506  -2.854  28.814  0.00  0.00     0.022 A 
ATOM     14  C   UNL d   1      59.876  -3.586  28.799  0.00  0.00     0.044 A 
ATOM     15  C   UNL d   1      60.688  -3.649  28.647  0.00  0.00     0.196 A 
ATOM     16  C   UNL d   1      61.130  -2.961  28.510  0.00  0.00     0.044 A 
ATOM     17  O   UNL d   1      61.052  -4.387  28.633  0.00  0.00    -0.287 OA
ATOM     18  C   UNL d   1      60.763  -2.220  28.524  0.00  0.00     0.022 A 
ENDBRANCH  10  12
ENDBRANCH   8   9
ENDBRANCH   1   8
BRANCH   4  19
ATOM     19  C   UNL d   1      57.509   0.673  30.722  0.00  0.00     0.011 C 
BRANCH  19  20
ATOM     20  C   UNL d   1      57.309   0.358  31.455  0.00  0.00     0.001 C 
ATOM     21  C   UNL d   1      57.717   0.598  32.136  0.00  0.00     0.000 C 
BRANCH  20  22
ATOM     22  C   UNL d   1      56.703  -0.198  31.522  0.00  0.00     0.000 C 
BRANCH  22  23
ATOM     23  C   UNL d   1      56.255  -0.247  32.210  0.00  0.00     0.000 A 
ATOM     24  C   UNL d   1      56.242  -0.960  32.646  0.00  0.00     0.000 A 
ATOM     25  C   UNL d   1      55.797  -1.012  33.330  0.00  0.00     0.000 A 
ATOM     26  C   UNL d   1      55.361  -0.358  33.585  0.00  0.00     0.000 A 
ATOM     27  C   UNL d   1      55.373   0.345  33.157  0.00  0.00     0.000 A 
ATOM     28  C   UNL d   1      55.820   0.394  32.472  0.00  0.00     0.000 A 
ENDBRANCH  22  23
ENDBRANCH  20  22
ENDBRANCH  19  20
ENDBRANCH   4  19
TORSDOF 7
ENDMDL
MODEL 2
REMARK VINA RESULT:      -4.6      1.468      5.264
REMARK  7 active torsions:
REMARK  status: ('A' for Active; 'I' for Inactive)
REMARK    1  A    between atoms: C_7  and  N_1 
REMARK    2  A    between atoms: C_6  and  C_4 
REMARK    3  A    between atoms: C_9  and  C_6 
REMARK    4  A    between atoms: C_8  and  C_7 
REMARK       I    between atoms: N_12  and  C_8 
REMARK    5  A    between atoms: C_10  and  C_9 
REMARK    6  A    between atoms: C_16  and  C_10 
REMARK    7  A    between atoms: C_15  and  N_12 
ROOT
ATOM      1  N   UNL d   1      58.410   0.283  30.087  0.00  0.00    -0.230 N 
ATOM      2  C   UNL d   1      59.204   0.280  30.319  0.00  0.00     0.299 A 
ATOM      3  C   UNL d   1      58.341  -0.187  29.412  0.00  0.00     0.274 A 
ATOM      4  C   UNL d   1      59.093  -0.482  29.226  0.00  0.00     0.090 A 
ATOM      5  S   UNL d   1      59.619  -0.190  29.789  0.00  0.00    -0.022 SA
ATOM      6  O   UNL d   1      59.515   0.682  30.971  0.00  0.00    -0.259 OA
ATOM      7  O   UNL d   1      57.642  -0.340  28.993  0.00  0.00    -0.266 OA
ENDROOT
BRANCH   1   8
ATOM      8  C   UNL d   1      57.791   0.682  30.458  0.00  0.00     0.149 C 
BRANCH   8   9
ATOM      9  C   UNL d   1      57.499   0.418  31.184  0.00  0.00     0.297 C 
ATOM     10  N   UNL d   1      56.692   0.282  31.272  0.00  0.00    -0.207 NA
ATOM     11  O   UNL d   1      58.014   0.293  31.811  0.00  0.00    -0.264 OA
BRANCH  10  12
ATOM     12  C   UNL d   1      56.397   0.017  32.001  0.00  0.00     0.085 A 
ATOM     13  C   UNL d   1      56.345  -0.797  32.148  0.00  0.00     0.022 A 
ATOM     14  C   UNL d   1      56.053  -1.055  32.870  0.00  0.00     0.044 A 
ATOM     15  C   UNL d   1      55.813  -0.513  33.450  0.00  0.00     0.196 A 
ATOM     16  C   UNL d   1      55.870   0.300  33.294  0.00  0.00     0.044 A 
ATOM     17  O   UNL d   1      55.522  -0.780  34.171  0.00  0.00    -0.287 OA
ATOM     18  C   UNL d   1      56.162   0.565  32.568  0.00  0.00     0.022 A 
ENDBRANCH  10  12
ENDBRANCH   8   9
ENDBRANCH   1   8
BRANCH   4  19
ATOM     19  C   UNL d   1      59.274  -0.974  28.596  0.00  0.00     0.011 C 
BRANCH  19  20
ATOM     20  C   UNL d   1      59.767  -1.623  28.708  0.00  0.00     0.001 C 
ATOM     21  C   UNL d   1      60.587  -1.543  28.611  0.00  0.00     0.000 C 
BRANCH  20  22
ATOM     22  C   UNL d   1      59.454  -2.357  28.917  0.00  0.00     0.000 C 
BRANCH  22  23
ATOM     23  C   UNL d   1      59.871  -3.049  28.763  0.00  0.00     0.000 A 
ATOM     24  C   UNL d   1      60.706  -3.033  28.741  0.00  0.00     0.000 A 
ATOM     25  C   UNL d   1      61.124  -3.720  28.587  0.00  0.00     0.000 A 
ATOM     26  C   UNL d   1      60.715  -4.426  28.455  0.00  0.00     0.000 A 
ATOM     27  C   UNL d   1      59.892  -4.443  28.476  0.00  0.00     0.000 A 
ATOM     28  C   UNL d   1      59.478  -3.754  28.630  0.00  0.00     0.000 A 
ENDBRANCH  22  23
ENDBRANCH  20  22
ENDBRANCH  19  20
ENDBRANCH   4  19
TORSDOF 7
ENDMDL
MODEL 3
REMARK VINA RESULT:      -3.5      0.968      1.456
REMARK  7 active torsions:
REMARK  status: ('A' for Active; 'I' for Inactive)
REMARK    1  A    between atoms: C_7  and  N_1 
REMARK    2  A    between atoms: C_6  and  C_4 
REMARK    3  A    between atoms: C_9  and  C_6 
REMARK    4  A    between atoms: C_8  and  C_7 
REMARK       I    between atoms: N_12  and  C_8 
REMARK    5  A    between atoms: C_10  and  C_9 
REMARK    6  A    between atoms: C_16  and  C_10 
REMARK    7  A    between atoms: C_15  and  N_12 
ROOT
ATOM      1  N   UNL d   1      58.080   0.358  30.374  0.00  0.00    -0.230 N 
ATOM      2  C   UNL d   1      58.532   0.543  31.043  0.00  0.00     0.299 A 
ATOM      3  C   UNL d   1      57.285   0.384  30.590  0.00  0.00     0.274 A 
ATOM      4  C   UNL d   1      57.242   0.585  31.393  0.00  0.00     0.090 A 
ATOM      5  S   UNL d   1      58.015   0.681  31.665  0.00  0.00    -0.022 SA
ATOM      6  O   UNL d   1      59.357   0.580  31.069  0.00  0.00    -0.259 OA
ATOM      7  O   UNL d   1      56.638   0.235  30.092  0.00  0.00    -0.266 OA
ENDROOT
BRANCH   1   8
ATOM      8  C   UNL d   1      58.366   0.179  29.622  0.00  0.00     0.149 C 
BRANCH   8   9
ATOM      9  C   UNL d   1      58.856  -0.476  29.506  0.00  0.00     0.297 C 
ATOM     10  N   UNL d   1      58.619  -1.075  28.993  0.00  0.00    -0.207 NA
ATOM     11  O   UNL d   1      59.574  -0.526  29.902  0.00  0.00    -0.264 OA
BRANCH  10  12
ATOM     12  C   UNL d   1      59.111  -1.733  28.877  0.00  0.00     0.085 A 
ATOM     13  C   UNL d   1      59.892  -1.620  28.624  0.00  0.00     0.022 A 
ATOM     14  C   UNL d   1      60.374  -2.273  28.510  0.00  0.00     0.044 A 
ATOM     15  C   UNL d   1      60.090  -3.040  28.644  0.00  0.00     0.196 A 
ATOM     16  C   UNL d   1      59.307  -3.145  28.897  0.00  0.00     0.044 A 
ATOM     17  O   UNL d   1      60.580  -3.691  28.528  0.00  0.00    -0.287 OA
ATOM     18  C   UNL d   1      58.817  -2.490  29.013  0.00  0.00     0.022 A 
ENDBRANCH  10  12
ENDBRANCH   8   9
ENDBRANCH   1   8
BRANCH   4  19
ATOM     19  C   UNL d   1      56.555   0.671  31.832  0.00  0.00     0.011 C 
BRANCH  19  20
ATOM     20  C   UNL d   1      56.410   0.174  32.472  0.00  0.00     0.001 C 
ATOM     21  C   UNL d   1      57.040  -0.100  32.937  0.00  0.00     0.000 C 
BRANCH  20  22
ATOM     22  C   UNL d   1      55.641  -0.056  32.658  0.00  0.00     0.000 C 
BRANCH  22  23
ATOM     23  C   UNL d   1      55.326   0.100  33.402  0.00  0.00     0.000 A 
ATOM     24  C   UNL d   1      55.726  -0.167  34.085  0.00  0.00     0.000 A 
ATOM     25  C   UNL d   1      55.415  -0.014  34.826  0.00  0.00     0.000 A 
ATOM     26  C   UNL d   1      54.706   0.405  34.894  0.00  0.00     0.000 A 
ATOM     27  C   UNL d   1      54.310   0.669  34.221  0.00  0.00     0.000 A 
ATOM     28  C   UNL d   1      54.624   0.514  33.481  0.00  0.00     0.000 A 
ENDBRANCH  22  23
ENDBRANCH  20  22
ENDBRANCH  19  20
ENDBRANCH   4  19
TORSDOF 7
ENDMDL
