MODEL 1
REMARK VINA RESULT:      12.2      0.000      0.000
REMARK  5 active torsions:
REMARK  status: ('A' for Active; 'I' for Inactive)
REMARK       I    between atoms: C_8  and  N_1 
REMARK    1  A    between atoms: C_7  and  C_3 
REMARK    2  A    between atoms: S_4  and  N_9 
REMARK    3  A    between atoms: C_21  and  S_4 
REMARK    4  A    between atoms: C_11  and  C_5 
REMARK    5  A    between atoms: N_9  and  C_20 
ROOT
ATOM      1  N   UNL d   1      46.274 -18.846  43.925  0.00  0.00    -0.194 N 
ATOM      2  N   UNL d   1      46.108 -18.203  44.444  0.00  0.00    -0.163 NA
ATOM      3  C   UNL d   1      46.284 -18.570  43.169  0.00  0.00     0.093 A 
ATOM      4  C   UNL d   1      46.019 -17.531  43.981  0.00  0.00     0.103 A 
ATOM      5  C   UNL d   1      46.126 -17.745  43.182  0.00  0.00     0.041 A 
ATOM      6  C   UNL d   1      46.402 -19.623  44.153  0.00  0.00     0.281 C 
ATOM      7  O   UNL d   1      46.558 -20.197  43.588  0.00  0.00    -0.265 OA
ATOM      8  C   UNL d   1      46.375 -19.829  44.953  0.00  0.00     0.068 C 
ENDROOT
BRANCH   4   9
ATOM      9  C   UNL d   1      45.853 -16.764  44.223  0.00  0.00     0.019 A 
ATOM     10  C   UNL d   1      45.166 -16.615  44.662  0.00  0.00     0.003 A 
ATOM     11  C   UNL d   1      45.001 -15.852  44.903  0.00  0.00     0.020 A 
ATOM     12  C   UNL d   1      45.510 -15.232  44.714  0.00  0.00     0.094 A 
ATOM     13  C   UNL d   1      46.193 -15.382  44.277  0.00  0.00     0.020 A 
ATOM     14  C   UNL d   1      46.368 -16.152  44.030  0.00  0.00     0.003 A 
BRANCH  12  15
ATOM     15  N   UNL d   1      45.350 -14.453  44.955  0.00  0.00    -0.158 NA
BRANCH  15  16
ATOM     16  S   UNL d   1      45.329 -13.855  44.400  0.00  0.00     0.286 S 
ATOM     17  O   UNL d   1      45.320 -13.230  43.837  0.00  0.00    -0.198 OA
ATOM     18  O   UNL d   1      44.757 -14.270  43.966  0.00  0.00    -0.198 OA
BRANCH  16  19
ATOM     19  C   UNL d   1      45.906 -13.434  44.834  0.00  0.00     0.117 C 
ATOM     20  C   UNL d   1      45.944 -12.617  44.792  0.00  0.00     0.014 C 
ENDBRANCH  16  19
ENDBRANCH  15  16
ENDBRANCH  12  15
ENDBRANCH   4   9
BRANCH   3  21
ATOM     21  C   UNL d   1      46.425 -19.020  42.500  0.00  0.00     0.047 A 
ATOM     22  S   UNL d   1      46.509 -18.735  41.728  0.00  0.00    -0.085 SA
ATOM     23  C   UNL d   1      46.644 -19.377  41.229  0.00  0.00     0.035 A 
ATOM     24  C   UNL d   1      46.644 -20.061  41.688  0.00  0.00     0.007 A 
ATOM     25  C   UNL d   1      46.509 -19.843  42.473  0.00  0.00     0.009 A 
ENDBRANCH   3  21
TORSDOF 5
ENDMDL
MODEL 2
REMARK VINA RESULT:      14.2      1.005      1.749
REMARK  5 active torsions:
REMARK  status: ('A' for Active; 'I' for Inactive)
REMARK       I    between atoms: C_8  and  N_1 
REMARK    1  A    between atoms: C_7  and  C_3 
REMARK    2  A    between atoms: S_4  and  N_9 
REMARK    3  A    between atoms: C_21  and  S_4 
REMARK    4  A    between atoms: C_11  and  C_5 
REMARK    5  A    between atoms: N_9  and  C_20 
ROOT
ATOM      1  N   UNL d   1      46.203 -18.107  43.264  0.00  0.00    -0.194 N 
ATOM      2  N   UNL d   1      46.142 -17.268  43.201  0.00  0.00    -0.163 NA
ATOM      3  C   UNL d   1      46.030 -18.320  44.020  0.00  0.00     0.093 A 
ATOM      4  C   UNL d   1      45.928 -16.981  43.939  0.00  0.00     0.103 A 
ATOM      5  C   UNL d   1      45.855 -17.627  44.462  0.00  0.00     0.041 A 
ATOM      6  C   UNL d   1      46.404 -18.618  42.656  0.00  0.00     0.281 C 
ATOM      7  O   UNL d   1      46.443 -19.427  42.794  0.00  0.00    -0.265 OA
ATOM      8  C   UNL d   1      46.568 -18.321  41.902  0.00  0.00     0.068 C 
ENDROOT
BRANCH   4   9
ATOM      9  C   UNL d   1      45.800 -16.202  44.165  0.00  0.00     0.019 A 
ATOM     10  C   UNL d   1      46.404 -15.644  44.066  0.00  0.00     0.003 A 
ATOM     11  C   UNL d   1      46.276 -14.869  44.291  0.00  0.00     0.020 A 
ATOM     12  C   UNL d   1      45.553 -14.640  44.614  0.00  0.00     0.094 A 
ATOM     13  C   UNL d   1      44.953 -15.196  44.711  0.00  0.00     0.020 A 
ATOM     14  C   UNL d   1      45.074 -15.982  44.486  0.00  0.00     0.003 A 
BRANCH  12  15
ATOM     15  N   UNL d   1      45.414 -13.853  44.846  0.00  0.00    -0.158 NA
BRANCH  15  16
ATOM     16  S   UNL d   1      45.159 -13.310  44.294  0.00  0.00     0.286 S 
ATOM     17  O   UNL d   1      44.911 -12.738  43.729  0.00  0.00    -0.198 OA
ATOM     18  O   UNL d   1      44.519 -13.799  44.098  0.00  0.00    -0.198 OA
BRANCH  16  19
ATOM     19  C   UNL d   1      45.803 -12.813  44.488  0.00  0.00     0.117 C 
ATOM     20  C   UNL d   1      45.891 -12.084  44.126  0.00  0.00     0.014 C 
ENDBRANCH  16  19
ENDBRANCH  15  16
ENDBRANCH  12  15
ENDBRANCH   4   9
BRANCH   3  21
ATOM     21  C   UNL d   1      46.027 -19.086  44.310  0.00  0.00     0.047 A 
ATOM     22  S   UNL d   1      46.647 -19.460  44.711  0.00  0.00    -0.085 SA
ATOM     23  C   UNL d   1      46.406 -20.225  44.901  0.00  0.00     0.035 A 
ATOM     24  C   UNL d   1      45.639 -20.329  44.620  0.00  0.00     0.007 A 
ATOM     25  C   UNL d   1      45.403 -19.627  44.254  0.00  0.00     0.009 A 
ENDBRANCH   3  21
TORSDOF 5
ENDMDL
