MODEL 1
REMARK VINA RESULT:      85.8      0.000      0.000
REMARK  5 active torsions:
REMARK  status: ('A' for Active; 'I' for Inactive)
REMARK    1  A    between atoms: C_2  and  S_1 
REMARK    2  A    between atoms: C_12  and  S_1 
REMARK    3  A    between atoms: N_5  and  C_3 
REMARK    4  A    between atoms: C_18  and  N_7 
REMARK    5  A    between atoms: O_22  and  C_20 
ROOT
ATOM      1  C   UNL d   1      14.042  14.894  -4.418  0.00  0.00     0.123 A 
ATOM      2  C   UNL d   1      14.340  15.115  -3.678  0.00  0.00     0.078 A 
ATOM      3  C   UNL d   1      14.595  15.888  -3.553  0.00  0.00     0.036 A 
ATOM      4  C   UNL d   1      14.001  15.448  -5.028  0.00  0.00     0.112 A 
ATOM      5  N   UNL d   1      14.257  16.223  -4.898  0.00  0.00    -0.243 NA
ATOM      6  C   UNL d   1      14.554  16.442  -4.163  0.00  0.00     0.083 A 
ATOM      7  C   UNL d   1      14.892  16.107  -2.816  0.00  0.00     0.027 A 
ATOM      8  C   UNL d   1      14.809  17.215  -4.036  0.00  0.00     0.021 A 
ATOM      9  C   UNL d   1      15.150  16.886  -2.684  0.00  0.00     0.094 A 
ATOM     10  C   UNL d   1      15.108  17.439  -3.294  0.00  0.00     0.026 A 
ENDROOT
BRANCH   2  11
ATOM     11  N   UNL d   1      14.382  14.556  -3.062  0.00  0.00    -0.301 N 
ATOM     12  C   UNL d   1      15.116  14.231  -2.851  0.00  0.00     0.100 A 
ATOM     13  C   UNL d   1      15.149  13.674  -2.236  0.00  0.00     0.100 A 
ATOM     14  N   UNL d   1      14.461  13.446  -1.839  0.00  0.00    -0.301 N 
ATOM     15  C   UNL d   1      13.727  13.775  -2.054  0.00  0.00     0.100 A 
ATOM     16  C   UNL d   1      13.694  14.328  -2.665  0.00  0.00     0.100 A 
BRANCH  14  17
ATOM     17  C   UNL d   1      14.503  12.892  -1.229  0.00  0.00     0.064 A 
ATOM     18  C   UNL d   1      15.119  12.335  -1.218  0.00  0.00     0.018 A 
ATOM     19  C   UNL d   1      15.164  11.779  -0.610  0.00  0.00     0.002 A 
ATOM     20  C   UNL d   1      14.596  11.779  -0.014  0.00  0.00     0.000 A 
ATOM     21  C   UNL d   1      13.983  12.334  -0.026  0.00  0.00     0.002 A 
ATOM     22  C   UNL d   1      13.942  12.888  -0.636  0.00  0.00     0.018 A 
ENDBRANCH  14  17
ENDBRANCH   2  11
BRANCH   1  23
ATOM     23  S   UNL d   1      13.784  14.116  -4.548  0.00  0.00     0.213 S 
ATOM     24  O   UNL d   1      14.561  13.885  -4.717  0.00  0.00    -0.217 OA
ATOM     25  O   UNL d   1      13.000  14.344  -4.380  0.00  0.00    -0.217 OA
BRANCH  23  26
ATOM     26  C   UNL d   1      13.527  13.341  -4.678  0.00  0.00     0.088 A 
ATOM     27  C   UNL d   1      13.028  12.969  -4.137  0.00  0.00     0.011 A 
ATOM     28  C   UNL d   1      12.770  12.198  -4.263  0.00  0.00     0.001 A 
ATOM     29  C   UNL d   1      13.012  11.780  -4.944  0.00  0.00     0.000 A 
ATOM     30  C   UNL d   1      13.513  12.153  -5.489  0.00  0.00     0.001 A 
ATOM     31  C   UNL d   1      13.768  12.933  -5.352  0.00  0.00     0.011 A 
ENDBRANCH  23  26
ENDBRANCH   1  23
BRANCH   9  32
ATOM     32  O   UNL d   1      15.446  17.098  -1.942  0.00  0.00    -0.328 OA
ATOM     33  C   UNL d   1      14.920  17.279  -1.330  0.00  0.00     0.181 C 
ENDBRANCH   9  32
TORSDOF 5
ENDMDL
MODEL 2
REMARK VINA RESULT:      87.9      1.314      3.641
REMARK  5 active torsions:
REMARK  status: ('A' for Active; 'I' for Inactive)
REMARK    1  A    between atoms: C_2  and  S_1 
REMARK    2  A    between atoms: C_12  and  S_1 
REMARK    3  A    between atoms: N_5  and  C_3 
REMARK    4  A    between atoms: C_18  and  N_7 
REMARK    5  A    between atoms: O_22  and  C_20 
ROOT
ATOM      1  C   UNL d   1      14.373  13.296  -2.050  0.00  0.00     0.123 A 
ATOM      2  C   UNL d   1      14.525  14.110  -2.052  0.00  0.00     0.078 A 
ATOM      3  C   UNL d   1      14.815  14.475  -1.374  0.00  0.00     0.036 A 
ATOM      4  C   UNL d   1      14.513  12.853  -1.368  0.00  0.00     0.112 A 
ATOM      5  N   UNL d   1      14.804  13.223  -0.688  0.00  0.00    -0.243 NA
ATOM      6  C   UNL d   1      14.955  14.032  -0.692  0.00  0.00     0.083 A 
ATOM      7  C   UNL d   1      14.966  15.285  -1.378  0.00  0.00     0.027 A 
ATOM      8  C   UNL d   1      15.245  14.399  -0.015  0.00  0.00     0.021 A 
ATOM      9  C   UNL d   1      15.259  15.658  -0.696  0.00  0.00     0.094 A 
ATOM     10  C   UNL d   1      15.398  15.215  -0.014  0.00  0.00     0.026 A 
ENDROOT
BRANCH   2  11
ATOM     11  N   UNL d   1      14.384  14.557  -2.740  0.00  0.00    -0.301 N 
ATOM     12  C   UNL d   1      15.008  14.709  -3.267  0.00  0.00     0.100 A 
ATOM     13  C   UNL d   1      14.859  15.156  -3.951  0.00  0.00     0.100 A 
ATOM     14  N   UNL d   1      14.101  15.446  -4.106  0.00  0.00    -0.301 N 
ATOM     15  C   UNL d   1      13.478  15.290  -3.575  0.00  0.00     0.100 A 
ATOM     16  C   UNL d   1      13.625  14.847  -2.895  0.00  0.00     0.100 A 
BRANCH  14  17
ATOM     17  C   UNL d   1      13.961  15.889  -4.788  0.00  0.00     0.064 A 
ATOM     18  C   UNL d   1      13.210  15.876  -5.142  0.00  0.00     0.018 A 
ATOM     19  C   UNL d   1      13.067  16.318  -5.824  0.00  0.00     0.002 A 
ATOM     20  C   UNL d   1      13.670  16.770  -6.152  0.00  0.00     0.000 A 
ATOM     21  C   UNL d   1      14.418  16.782  -5.799  0.00  0.00     0.002 A 
ATOM     22  C   UNL d   1      14.557  16.339  -5.117  0.00  0.00     0.018 A 
ENDBRANCH  14  17
ENDBRANCH   2  11
BRANCH   1  23
ATOM     23  S   UNL d   1      14.081  12.924  -2.732  0.00  0.00     0.213 S 
ATOM     24  O   UNL d   1      14.800  13.060  -3.117  0.00  0.00    -0.217 OA
ATOM     25  O   UNL d   1      13.354  12.784  -2.347  0.00  0.00    -0.217 OA
BRANCH  23  26
ATOM     26  C   UNL d   1      13.789  12.553  -3.410  0.00  0.00     0.088 A 
ATOM     27  C   UNL d   1      14.214  12.578  -4.117  0.00  0.00     0.011 A 
ATOM     28  C   UNL d   1      13.926  12.210  -4.795  0.00  0.00     0.001 A 
ATOM     29  C   UNL d   1      13.197  11.805  -4.775  0.00  0.00     0.000 A 
ATOM     30  C   UNL d   1      12.769  11.779  -4.065  0.00  0.00     0.001 A 
ATOM     31  C   UNL d   1      13.068  12.154  -3.386  0.00  0.00     0.011 A 
ENDBRANCH  23  26
ENDBRANCH   1  23
BRANCH   9  32
ATOM     32  O   UNL d   1      15.408  16.472  -0.707  0.00  0.00    -0.328 OA
ATOM     33  C   UNL d   1      14.816  16.990  -0.964  0.00  0.00     0.181 C 
ENDBRANCH   9  32
TORSDOF 5
ENDMDL
