MODEL 1
REMARK VINA RESULT:      18.8      0.000      0.000
REMARK  4 active torsions:
REMARK  status: ('A' for Active; 'I' for Inactive)
REMARK    1  A    between atoms: C_8  and  C_1 
REMARK    2  A    between atoms: C_3  and  C_2 
REMARK    3  A    between atoms: O_14  and  C_8 
REMARK    4  A    between atoms: C_16  and  O_14 
ROOT
ATOM      1  C   UNL d   1      14.368  12.638  -1.382  0.00  0.00     0.091 A 
ATOM      2  C   UNL d   1      13.740  12.291  -1.790  0.00  0.00     0.036 A 
ATOM      3  C   UNL d   1      14.385  12.339  -0.611  0.00  0.00     0.138 A 
ATOM      4  C   UNL d   1      13.380  11.779  -1.252  0.00  0.00     0.039 A 
ATOM      5  S   UNL d   1      13.770  11.813  -0.550  0.00  0.00    -0.065 SA
ATOM      6  N   UNL d   1      14.935  12.546  -0.015  0.00  0.00    -0.141 N 
ENDROOT
BRANCH   2   7
ATOM      7  C   UNL d   1      13.585  12.476  -2.557  0.00  0.00     0.101 A 
ATOM      8  O   UNL d   1      13.570  12.998  -3.164  0.00  0.00    -0.307 OA
ATOM      9  C   UNL d   1      13.288  12.617  -3.803  0.00  0.00     0.100 A 
ATOM     10  C   UNL d   1      13.187  12.974  -4.550  0.00  0.00     0.027 C 
ATOM     11  C   UNL d   1      13.116  11.854  -3.631  0.00  0.00     0.027 A 
ATOM     12  C   UNL d   1      13.314  11.780  -2.826  0.00  0.00     0.027 A 
ENDBRANCH   2   7
BRANCH   1  13
ATOM     13  C   UNL d   1      14.895  13.186  -1.674  0.00  0.00     0.302 C 
ATOM     14  O   UNL d   1      15.584  12.976  -2.019  0.00  0.00    -0.259 OA
BRANCH  13  15
ATOM     15  O   UNL d   1      14.703  14.003  -1.608  0.00  0.00    -0.271 OA
BRANCH  15  16
ATOM     16  C   UNL d   1      15.261  14.513  -1.347  0.00  0.00     0.126 C 
ATOM     17  C   UNL d   1      15.164  15.336  -1.496  0.00  0.00     0.029 C 
ENDBRANCH  15  16
ENDBRANCH  13  15
ENDBRANCH   1  13
TORSDOF 4
ENDMDL
