MODEL 1
REMARK VINA RESULT:      66.4      0.000      0.000
REMARK  2 active torsions:
REMARK  status: ('A' for Active; 'I' for Inactive)
REMARK    1  A    between atoms: N_10  and  C_6 
REMARK    2  A    between atoms: C_12  and  N_10 
ROOT
ATOM      1  N   UNL d   1      58.361  49.690  53.699  0.00  0.00    -0.169 N 
ATOM      2  C   UNL d   1      57.602  49.700  53.373  0.00  0.00     0.201 A 
ATOM      3  C   UNL d   1      58.454  49.681  54.509  0.00  0.00     0.283 A 
ATOM      4  S   UNL d   1      57.673  49.708  52.552  0.00  0.00    -0.008 SA
ATOM      5  N   UNL d   1      58.902  49.692  53.071  0.00  0.00    -0.134 NA
ATOM      6  C   UNL d   1      58.480  49.703  52.371  0.00  0.00     0.216 A 
ATOM      7  N   UNL d   1      56.941  49.701  53.848  0.00  0.00    -0.221 NA
ATOM      8  C   UNL d   1      57.791  49.682  55.003  0.00  0.00     0.076 A 
ATOM      9  C   UNL d   1      57.034  49.692  54.672  0.00  0.00     0.088 A 
ATOM     10  O   UNL d   1      59.211  49.671  54.839  0.00  0.00    -0.265 OA
ATOM     11  C   UNL d   1      57.879  49.673  55.825  0.00  0.00     0.006 A 
ATOM     12  C   UNL d   1      56.367  49.693  55.164  0.00  0.00     0.019 A 
ATOM     13  C   UNL d   1      57.204  49.674  56.315  0.00  0.00     0.000 A 
ATOM     14  C   UNL d   1      56.459  49.684  55.990  0.00  0.00     0.002 A 
ENDROOT
BRANCH   6  15
ATOM     15  N   UNL d   1      58.800  49.708  51.610  0.00  0.00    -0.220 NA
BRANCH  15  16
ATOM     16  C   UNL d   1      59.596  49.561  51.480  0.00  0.00     0.084 A 
ATOM     17  C   UNL d   1      60.142  49.677  52.075  0.00  0.00     0.019 A 
ATOM     18  C   UNL d   1      60.936  49.526  51.930  0.00  0.00     0.002 A 
ATOM     19  C   UNL d   1      61.490  49.640  52.524  0.00  0.00     0.000 C 
ATOM     20  C   UNL d   1      61.171  49.260  51.185  0.00  0.00     0.000 A 
ATOM     21  C   UNL d   1      60.627  49.145  50.592  0.00  0.00     0.002 A 
ATOM     22  C   UNL d   1      59.830  49.296  50.737  0.00  0.00     0.019 A 
ENDBRANCH  15  16
ENDBRANCH   6  15
TORSDOF 2
ENDMDL
