MODEL 1
REMARK VINA RESULT:      66.1      0.000      0.000
REMARK  5 active torsions:
REMARK  status: ('A' for Active; 'I' for Inactive)
REMARK    1  A    between atoms: C_4  and  N_1 
REMARK    2  A    between atoms: C_8  and  C_2 
REMARK    3  A    between atoms: C_13  and  C_6 
REMARK    4  A    between atoms: C_7  and  C_8 
REMARK    5  A    between atoms: O_24  and  C_22 
ROOT
ATOM      1  N   UNL d   1      45.385 -17.965  43.605  0.00  0.00    -0.255 N 
ATOM      2  C   UNL d   1      45.800 -16.692  43.550  0.00  0.00     0.101 A 
ATOM      3  C   UNL d   1      45.187 -17.598  44.319  0.00  0.00     0.305 A 
ATOM      4  C   UNL d   1      45.441 -16.819  44.285  0.00  0.00     0.256 A 
ATOM      5  C   UNL d   1      45.765 -17.402  43.129  0.00  0.00     0.075 A 
ATOM      6  O   UNL d   1      44.800 -17.956  44.955  0.00  0.00    -0.263 OA
ATOM      7  O   UNL d   1      45.354 -16.252  44.885  0.00  0.00    -0.281 OA
ENDROOT
BRANCH   2   8
ATOM      8  C   UNL d   1      46.133 -15.983  43.285  0.00  0.00     0.223 C 
ATOM      9  O   UNL d   1      46.642 -15.990  42.638  0.00  0.00    -0.284 OA
BRANCH   8  10
ATOM     10  C   UNL d   1      45.956 -15.276  43.666  0.00  0.00     0.139 A 
ATOM     11  O   UNL d   1      45.202 -15.010  43.862  0.00  0.00    -0.304 OA
ATOM     12  C   UNL d   1      45.281 -14.273  44.239  0.00  0.00     0.100 A 
ATOM     13  C   UNL d   1      44.728 -13.753  44.551  0.00  0.00     0.025 A 
ATOM     14  C   UNL d   1      46.085 -14.098  44.268  0.00  0.00     0.025 A 
ATOM     15  C   UNL d   1      44.975 -13.051  44.897  0.00  0.00     0.002 A 
ATOM     16  C   UNL d   1      45.784 -12.866  44.931  0.00  0.00     0.000 A 
ATOM     17  C   UNL d   1      46.334 -13.388  44.618  0.00  0.00     0.002 A 
ATOM     18  C   UNL d   1      46.501 -14.711  43.918  0.00  0.00     0.030 A 
ENDBRANCH   8  10
ENDBRANCH   2   8
BRANCH   5  19
ATOM     19  C   UNL d   1      46.057 -17.532  42.367  0.00  0.00     0.018 A 
ATOM     20  C   UNL d   1      46.194 -18.294  42.105  0.00  0.00     0.026 A 
ATOM     21  C   UNL d   1      46.485 -18.427  41.346  0.00  0.00     0.094 A 
ATOM     22  C   UNL d   1      46.638 -17.781  40.847  0.00  0.00     0.024 A 
ATOM     23  C   UNL d   1      46.496 -17.010  41.120  0.00  0.00     0.002 A 
ATOM     24  C   UNL d   1      46.207 -16.886  41.876  0.00  0.00     0.002 A 
BRANCH  21  25
ATOM     25  O   UNL d   1      46.623 -19.198  41.082  0.00  0.00    -0.328 OA
ATOM     26  C   UNL d   1      46.647 -19.361  40.276  0.00  0.00     0.181 C 
ENDBRANCH  21  25
ENDBRANCH   5  19
BRANCH   1  27
ATOM     27  C   UNL d   1      45.231 -18.755  43.402  0.00  0.00     0.179 A 
ATOM     28  N   UNL d   1      45.543 -19.420  43.780  0.00  0.00    -0.108 NA
ATOM     29  O   UNL d   1      45.243 -20.085  43.398  0.00  0.00    -0.210 OA
ATOM     30  C   UNL d   1      44.752 -19.838  42.791  0.00  0.00     0.128 A 
ATOM     31  C   UNL d   1      44.739 -19.012  42.787  0.00  0.00     0.067 A 
ATOM     32  C   UNL d   1      44.336 -20.329  42.266  0.00  0.00     0.029 C 
ENDBRANCH   1  27
TORSDOF 5
ENDMDL
MODEL 2
REMARK VINA RESULT:      67.1      1.847      4.298
REMARK  5 active torsions:
REMARK  status: ('A' for Active; 'I' for Inactive)
REMARK    1  A    between atoms: C_4  and  N_1 
REMARK    2  A    between atoms: C_8  and  C_2 
REMARK    3  A    between atoms: C_13  and  C_6 
REMARK    4  A    between atoms: C_7  and  C_8 
REMARK    5  A    between atoms: O_24  and  C_22 
ROOT
ATOM      1  N   UNL d   1      46.172 -19.156  41.986  0.00  0.00    -0.255 N 
ATOM      2  C   UNL d   1      46.220 -18.167  41.082  0.00  0.00     0.101 A 
ATOM      3  C   UNL d   1      46.406 -19.479  41.262  0.00  0.00     0.305 A 
ATOM      4  C   UNL d   1      46.436 -18.874  40.710  0.00  0.00     0.256 A 
ATOM      5  C   UNL d   1      46.057 -18.341  41.873  0.00  0.00     0.075 A 
ATOM      6  O   UNL d   1      46.580 -20.274  41.123  0.00  0.00    -0.263 OA
ATOM      7  O   UNL d   1      46.646 -18.955  39.911  0.00  0.00    -0.281 OA
ENDROOT
BRANCH   2   8
ATOM      8  C   UNL d   1      46.177 -17.421  40.728  0.00  0.00     0.223 C 
ATOM      9  O   UNL d   1      46.576 -16.786  41.067  0.00  0.00    -0.284 OA
BRANCH   8  10
ATOM     10  C   UNL d   1      45.736 -17.316  40.041  0.00  0.00     0.139 A 
ATOM     11  O   UNL d   1      44.914 -17.302  39.993  0.00  0.00    -0.304 OA
ATOM     12  C   UNL d   1      44.707 -17.182  39.197  0.00  0.00     0.100 A 
ATOM     13  C   UNL d   1      43.979 -17.120  38.821  0.00  0.00     0.025 A 
ATOM     14  C   UNL d   1      45.407 -17.125  38.768  0.00  0.00     0.025 A 
ATOM     15  C   UNL d   1      43.945 -17.000  38.010  0.00  0.00     0.002 A 
ATOM     16  C   UNL d   1      44.646 -16.941  37.569  0.00  0.00     0.000 A 
ATOM     17  C   UNL d   1      45.372 -17.003  37.947  0.00  0.00     0.002 A 
ATOM     18  C   UNL d   1      46.039 -17.207  39.282  0.00  0.00     0.030 A 
ENDBRANCH   8  10
ENDBRANCH   2   8
BRANCH   5  19
ATOM     19  C   UNL d   1      45.820 -17.802  42.453  0.00  0.00     0.018 A 
ATOM     20  C   UNL d   1      46.345 -17.239  42.727  0.00  0.00     0.026 A 
ATOM     21  C   UNL d   1      46.111 -16.701  43.305  0.00  0.00     0.094 A 
ATOM     22  C   UNL d   1      45.338 -16.733  43.608  0.00  0.00     0.024 A 
ATOM     23  C   UNL d   1      44.812 -17.308  43.323  0.00  0.00     0.002 A 
ATOM     24  C   UNL d   1      45.051 -17.840  42.749  0.00  0.00     0.002 A 
BRANCH  21  25
ATOM     25  O   UNL d   1      46.642 -16.131  43.583  0.00  0.00    -0.328 OA
ATOM     26  C   UNL d   1      46.387 -15.361  43.723  0.00  0.00     0.181 C 
ENDBRANCH  21  25
ENDBRANCH   5  19
BRANCH   1  27
ATOM     27  C   UNL d   1      46.070 -19.571  42.698  0.00  0.00     0.179 A 
ATOM     28  N   UNL d   1      45.403 -20.011  42.909  0.00  0.00    -0.108 NA
ATOM     29  O   UNL d   1      45.541 -20.325  43.657  0.00  0.00    -0.210 OA
ATOM     30  C   UNL d   1      46.282 -20.085  43.908  0.00  0.00     0.128 A 
ATOM     31  C   UNL d   1      46.618 -19.616  43.317  0.00  0.00     0.067 A 
ATOM     32  C   UNL d   1      46.641 -20.278  44.632  0.00  0.00     0.029 C 
ENDBRANCH   1  27
TORSDOF 5
ENDMDL
