MODEL 1
REMARK VINA RESULT:      -5.4      0.000      0.000
REMARK  5 active torsions:
REMARK  status: ('A' for Active; 'I' for Inactive)
REMARK    1  A    between atoms: C_7  and  N_2 
REMARK    2  A    between atoms: C_8  and  C_7 
REMARK    3  A    between atoms: C_13  and  C_8 
REMARK    4  A    between atoms: C_9  and  O_11 
REMARK    5  A    between atoms: O_11  and  C_13 
ROOT
ATOM      1  C   UNL d   1     -42.976-122.366 -50.065  0.00  0.00     0.378 A 
ATOM      2  N   UNL d   1     -42.167-122.536 -50.154  0.00  0.00    -0.251 N 
ATOM      3  O   UNL d   1     -43.228-122.697 -49.356  0.00  0.00    -0.258 OA
ATOM      4  C   UNL d   1     -41.929-122.975 -49.490  0.00  0.00     0.092 A 
ATOM      5  C   UNL d   1     -42.584-123.074 -48.998  0.00  0.00     0.121 A 
ATOM      6  O   UNL d   1     -43.436-121.941 -50.598  0.00  0.00    -0.237 OA
ATOM      7  C   UNL d   1     -41.197-123.291 -49.281  0.00  0.00     0.020 A 
ATOM      8  C   UNL d   1     -42.508-123.496 -48.285  0.00  0.00     0.026 A 
ATOM      9  C   UNL d   1     -41.123-123.712 -48.570  0.00  0.00     0.002 A 
ATOM     10  C   UNL d   1     -41.777-123.814 -48.073  0.00  0.00     0.002 A 
ENDROOT
BRANCH   2  11
ATOM     11  C   UNL d   1     -41.694-122.310 -50.782  0.00  0.00     0.087 C 
BRANCH  11  12
ATOM     12  C   UNL d   1     -41.685-122.745 -51.480  0.00  0.00     0.046 C 
BRANCH  12  13
ATOM     13  C   UNL d   1     -41.500-122.389 -52.190  0.00  0.00     0.124 C 
BRANCH  13  14
ATOM     14  O   UNL d   1     -41.218-122.832 -52.822  0.00  0.00    -0.305 OA
BRANCH  14  15
ATOM     15  C   UNL d   1     -41.434-122.648 -53.599  0.00  0.00     0.100 A 
ATOM     16  C   UNL d   1     -41.835-121.953 -53.758  0.00  0.00     0.025 A 
ATOM     17  C   UNL d   1     -42.051-121.768 -54.536  0.00  0.00     0.002 A 
ATOM     18  C   UNL d   1     -41.861-122.285 -55.143  0.00  0.00     0.000 A 
ATOM     19  C   UNL d   1     -41.455-122.987 -54.981  0.00  0.00     0.002 A 
ATOM     20  C   UNL d   1     -41.239-123.172 -54.204  0.00  0.00     0.025 A 
ENDBRANCH  14  15
ENDBRANCH  13  14
ENDBRANCH  12  13
ENDBRANCH  11  12
ENDBRANCH   2  11
TORSDOF 5
ENDMDL
MODEL 2
REMARK VINA RESULT:      -4.3      1.016      4.854
REMARK  5 active torsions:
REMARK  status: ('A' for Active; 'I' for Inactive)
REMARK    1  A    between atoms: C_7  and  N_2 
REMARK    2  A    between atoms: C_8  and  C_7 
REMARK    3  A    between atoms: C_13  and  C_8 
REMARK    4  A    between atoms: C_9  and  O_11 
REMARK    5  A    between atoms: O_11  and  C_13 
ROOT
ATOM      1  C   UNL d   1     -41.176-121.515 -52.402  0.00  0.00     0.378 A 
ATOM      2  N   UNL d   1     -41.175-122.325 -52.217  0.00  0.00    -0.251 N 
ATOM      3  O   UNL d   1     -41.235-121.441 -53.219  0.00  0.00    -0.258 OA
ATOM      4  C   UNL d   1     -41.234-122.745 -52.932  0.00  0.00     0.092 A 
ATOM      5  C   UNL d   1     -41.270-122.199 -53.549  0.00  0.00     0.121 A 
ATOM      6  O   UNL d   1     -41.127-120.901 -51.857  0.00  0.00    -0.237 OA
ATOM      7  C   UNL d   1     -41.257-123.554 -53.087  0.00  0.00     0.020 A 
ATOM      8  C   UNL d   1     -41.332-122.465 -54.335  0.00  0.00     0.026 A 
ATOM      9  C   UNL d   1     -41.319-123.818 -53.871  0.00  0.00     0.002 A 
ATOM     10  C   UNL d   1     -41.356-123.274 -54.494  0.00  0.00     0.002 A 
ENDROOT
BRANCH   2  11
ATOM     11  C   UNL d   1     -41.125-122.648 -51.467  0.00  0.00     0.087 C 
BRANCH  11  12
ATOM     12  C   UNL d   1     -41.789-122.696 -50.985  0.00  0.00     0.046 C 
BRANCH  12  13
ATOM     13  C   UNL d   1     -41.722-122.935 -50.208  0.00  0.00     0.124 C 
BRANCH  13  14
ATOM     14  O   UNL d   1     -42.301-122.741 -49.657  0.00  0.00    -0.305 OA
BRANCH  14  15
ATOM     15  C   UNL d   1     -42.300-123.083 -48.903  0.00  0.00     0.100 A 
ATOM     16  C   UNL d   1     -41.617-123.080 -48.454  0.00  0.00     0.025 A 
ATOM     17  C   UNL d   1     -41.616-123.422 -47.700  0.00  0.00     0.002 A 
ATOM     18  C   UNL d   1     -42.302-123.762 -47.407  0.00  0.00     0.000 A 
ATOM     19  C   UNL d   1     -42.993-123.764 -47.863  0.00  0.00     0.002 A 
ATOM     20  C   UNL d   1     -42.994-123.422 -48.616  0.00  0.00     0.025 A 
ENDBRANCH  14  15
ENDBRANCH  13  14
ENDBRANCH  12  13
ENDBRANCH  11  12
ENDBRANCH   2  11
TORSDOF 5
ENDMDL
