MODEL 1
REMARK VINA RESULT:      17.4      0.000      0.000
REMARK  4 active torsions:
REMARK  status: ('A' for Active; 'I' for Inactive)
REMARK    1  A    between atoms: C_7  and  C_3 
REMARK    2  A    between atoms: S_6  and  C_7 
REMARK    3  A    between atoms: C_9  and  S_6 
REMARK    4  A    between atoms: C_8  and  C_9 
ROOT
ATOM      1  N   UNL d   1      13.153  12.763  -3.087  0.00  0.00    -0.225 NA
ATOM      2  N   UNL d   1      13.479  11.780  -3.970  0.00  0.00    -0.225 NA
ATOM      3  C   UNL d   1      13.360  11.952  -3.158  0.00  0.00     0.169 A 
ATOM      4  C   UNL d   1      13.148  13.083  -3.859  0.00  0.00     0.101 A 
ATOM      5  C   UNL d   1      13.347  12.485  -4.407  0.00  0.00     0.101 A 
ATOM      6  C   UNL d   1      12.983  13.855  -4.132  0.00  0.00     0.021 A 
ATOM      7  C   UNL d   1      13.378  12.671  -5.216  0.00  0.00     0.021 A 
ATOM      8  C   UNL d   1      13.216  13.430  -5.474  0.00  0.00     0.002 A 
ATOM      9  C   UNL d   1      13.018  14.022  -4.932  0.00  0.00     0.002 A 
ENDROOT
BRANCH   3  10
ATOM     10  C   UNL d   1      13.326  11.779  -2.352  0.00  0.00     0.074 C 
BRANCH  10  11
ATOM     11  S   UNL d   1      14.012  11.811  -1.896  0.00  0.00    -0.083 SA
BRANCH  11  12
ATOM     12  C   UNL d   1      13.960  11.954  -1.085  0.00  0.00     0.035 C 
BRANCH  12  13
ATOM     13  C   UNL d   1      14.476  12.490  -0.728  0.00  0.00     0.006 A 
ATOM     14  C   UNL d   1      14.180  13.198  -0.420  0.00  0.00     0.001 A 
ATOM     15  C   UNL d   1      14.697  13.733  -0.064  0.00  0.00     0.000 A 
ATOM     16  C   UNL d   1      15.502  13.559  -0.017  0.00  0.00     0.000 A 
ATOM     17  C   UNL d   1      15.791  12.848  -0.327  0.00  0.00     0.000 A 
ATOM     18  C   UNL d   1      15.274  12.313  -0.684  0.00  0.00     0.001 A 
ENDBRANCH  12  13
ENDBRANCH  11  12
ENDBRANCH  10  11
ENDBRANCH   3  10
TORSDOF 4
ENDMDL
MODEL 2
REMARK VINA RESULT:      19.6      0.990      4.110
REMARK  4 active torsions:
REMARK  status: ('A' for Active; 'I' for Inactive)
REMARK    1  A    between atoms: C_7  and  C_3 
REMARK    2  A    between atoms: S_6  and  C_7 
REMARK    3  A    between atoms: C_9  and  S_6 
REMARK    4  A    between atoms: C_8  and  C_9 
ROOT
ATOM      1  N   UNL d   1      13.699  12.719  -1.191  0.00  0.00    -0.225 NA
ATOM      2  N   UNL d   1      14.860  12.059  -1.451  0.00  0.00    -0.225 NA
ATOM      3  C   UNL d   1      14.034  12.061  -1.592  0.00  0.00     0.169 A 
ATOM      4  C   UNL d   1      14.325  13.116  -0.806  0.00  0.00     0.101 A 
ATOM      5  C   UNL d   1      15.042  12.717  -0.961  0.00  0.00     0.101 A 
ATOM      6  C   UNL d   1      14.329  13.801  -0.328  0.00  0.00     0.021 A 
ATOM      7  C   UNL d   1      15.748  13.010  -0.635  0.00  0.00     0.021 A 
ATOM      8  C   UNL d   1      15.742  13.681  -0.168  0.00  0.00     0.002 A 
ATOM      9  C   UNL d   1      15.032  14.077  -0.014  0.00  0.00     0.002 A 
ENDROOT
BRANCH   3  10
ATOM     10  C   UNL d   1      13.327  11.780  -1.910  0.00  0.00     0.074 C 
BRANCH  10  11
ATOM     11  S   UNL d   1      13.208  11.797  -2.726  0.00  0.00    -0.083 SA
BRANCH  11  12
ATOM     12  C   UNL d   1      13.483  12.436  -3.169  0.00  0.00     0.035 C 
BRANCH  12  13
ATOM     13  C   UNL d   1      13.320  12.477  -3.977  0.00  0.00     0.006 A 
ATOM     14  C   UNL d   1      13.311  11.783  -4.426  0.00  0.00     0.001 A 
ATOM     15  C   UNL d   1      13.148  11.824  -5.233  0.00  0.00     0.000 A 
ATOM     16  C   UNL d   1      12.997  12.554  -5.586  0.00  0.00     0.000 A 
ATOM     17  C   UNL d   1      13.009  13.244  -5.130  0.00  0.00     0.000 A 
ATOM     18  C   UNL d   1      13.171  13.203  -4.322  0.00  0.00     0.001 A 
ENDBRANCH  12  13
ENDBRANCH  11  12
ENDBRANCH  10  11
ENDBRANCH   3  10
TORSDOF 4
ENDMDL
