MODEL 1
REMARK VINA RESULT:      25.0      0.000      0.000
REMARK  1 active torsions:
REMARK  status: ('A' for Active; 'I' for Inactive)
REMARK    1  A    between atoms: C_5  and  C_1 
ROOT
ATOM      1  N   UNL d   1      14.227  12.488  -4.010  0.00  0.00    -0.242 NA
ATOM      2  C   UNL d   1      13.800  12.245  -3.348  0.00  0.00     0.117 A 
ATOM      3  C   UNL d   1      13.898  12.364  -4.767  0.00  0.00     0.081 A 
ATOM      4  C   UNL d   1      13.074  11.891  -3.421  0.00  0.00     0.022 A 
ATOM      5  C   UNL d   1      13.179  12.014  -4.844  0.00  0.00     0.018 A 
ATOM      6  C   UNL d   1      12.769  11.779  -4.181  0.00  0.00     0.003 A 
ATOM      7  C   UNL d   1      14.320  12.604  -5.431  0.00  0.00     0.019 A 
ATOM      8  C   UNL d   1      12.873  11.901  -5.603  0.00  0.00     0.002 A 
ATOM      9  C   UNL d   1      14.003  12.486  -6.189  0.00  0.00     0.002 A 
ATOM     10  C   UNL d   1      13.279  12.134  -6.263  0.00  0.00     0.000 A 
ENDROOT
BRANCH   2  11
ATOM     11  C   UNL d   1      14.103  12.356  -2.596  0.00  0.00     0.180 A 
ATOM     12  N   UNL d   1      14.431  13.059  -2.293  0.00  0.00    -0.224 NA
ATOM     13  C   UNL d   1      14.659  12.916  -1.528  0.00  0.00     0.101 A 
ATOM     14  C   UNL d   1      15.019  13.408  -0.950  0.00  0.00     0.021 A 
ATOM     15  C   UNL d   1      14.480  12.132  -1.340  0.00  0.00     0.101 A 
ATOM     16  C   UNL d   1      15.192  13.113  -0.203  0.00  0.00     0.002 A 
ATOM     17  C   UNL d   1      15.013  12.329  -0.014  0.00  0.00     0.002 A 
ATOM     18  C   UNL d   1      14.659  11.832  -0.572  0.00  0.00     0.021 A 
ATOM     19  N   UNL d   1      14.139  11.781  -1.986  0.00  0.00    -0.224 NA
ENDBRANCH   2  11
TORSDOF 1
ENDMDL
