MODEL 1
REMARK VINA RESULT:     -10.8      0.000      0.000
REMARK  5 active torsions:
REMARK  status: ('A' for Active; 'I' for Inactive)
REMARK    1  A    between atoms: N_9  and  C_2 
REMARK    2  A    between atoms: N_12  and  C_6 
REMARK    3  A    between atoms: C_13  and  N_11 
REMARK    4  A    between atoms: C_18  and  N_12 
REMARK    5  A    between atoms: O_28  and  C_23 
ROOT
ATOM      1  N   UNL d   1      52.800  33.939  54.038  0.00  0.00    -0.041 NA
ATOM      2  C   UNL d   1      52.494  33.525  53.454  0.00  0.00     0.738 A 
ATOM      3  C   UNL d   1      53.468  33.711  54.368  0.00  0.00     0.187 A 
ATOM      4  N   UNL d   1      52.858  32.879  53.197  0.00  0.00    -0.041 NA
ATOM      5  C   UNL d   1      53.835  33.065  54.114  0.00  0.00     0.094 A 
ATOM      6  C   UNL d   1      53.530  32.644  53.524  0.00  0.00     0.185 A 
ATOM      7  N   UNL d   1      54.454  33.898  55.293  0.00  0.00    -0.162 NA
ATOM      8  N   UNL d   1      53.774  34.132  54.958  0.00  0.00    -0.208 N 
ATOM      9  C   UNL d   1      54.818  33.252  55.036  0.00  0.00     0.127 A 
ATOM     10  C   UNL d   1      53.411  34.775  55.213  0.00  0.00     0.123 C 
ENDROOT
BRANCH   2  11
ATOM     11  N   UNL d   1      51.786  33.764  53.102  0.00  0.00    -0.134 N 
ATOM     12  C   UNL d   1      51.064  33.558  53.443  0.00  0.00     0.117 A 
ATOM     13  C   UNL d   1      50.359  33.801  53.084  0.00  0.00     0.100 A 
ATOM     14  N   UNL d   1      50.377  34.249  52.388  0.00  0.00    -0.301 N 
ATOM     15  C   UNL d   1      51.099  34.453  52.050  0.00  0.00     0.100 A 
ATOM     16  C   UNL d   1      51.804  34.212  52.405  0.00  0.00     0.117 A 
BRANCH  14  17
ATOM     17  C   UNL d   1      49.669  34.490  52.032  0.00  0.00     0.064 A 
ATOM     18  C   UNL d   1      49.510  34.260  51.249  0.00  0.00     0.020 A 
ATOM     19  C   UNL d   1      48.802  34.501  50.894  0.00  0.00     0.031 A 
ATOM     20  C   UNL d   1      48.258  34.970  51.322  0.00  0.00     0.140 A 
ATOM     21  C   UNL d   1      48.439  35.188  52.107  0.00  0.00     0.031 A 
ATOM     22  F   UNL d   1      47.551  35.211  50.969  0.00  0.00    -0.204 F 
ATOM     23  C   UNL d   1      49.143  34.947  52.457  0.00  0.00     0.020 A 
ENDBRANCH  14  17
ENDBRANCH   2  11
BRANCH   6  24
ATOM     24  N   UNL d   1      53.903  31.971  53.252  0.00  0.00    -0.226 NA
BRANCH  24  25
ATOM     25  C   UNL d   1      53.531  31.244  53.304  0.00  0.00     0.085 A 
ATOM     26  C   UNL d   1      53.617  30.770  53.978  0.00  0.00     0.043 A 
ATOM     27  C   UNL d   1      53.244  30.041  54.032  0.00  0.00     0.096 A 
ATOM     28  C   UNL d   1      52.777  29.776  53.401  0.00  0.00     0.024 A 
ATOM     29  C   UNL d   1      52.689  30.239  52.734  0.00  0.00     0.004 A 
ATOM     30  C   UNL d   1      53.067  30.975  52.684  0.00  0.00     0.019 A 
BRANCH  27  31
ATOM     31  O   UNL d   1      53.331  29.574  54.701  0.00  0.00    -0.328 OA
ATOM     32  C   UNL d   1      53.338  28.759  54.832  0.00  0.00     0.181 C 
ENDBRANCH  27  31
ENDBRANCH  24  25
ENDBRANCH   6  24
TORSDOF 5
ENDMDL
