MODEL 1
REMARK VINA RESULT:      16.3      0.000      0.000
REMARK  2 active torsions:
REMARK  status: ('A' for Active; 'I' for Inactive)
REMARK    1  A    between atoms: N_10  and  C_6 
REMARK    2  A    between atoms: C_12  and  N_10 
ROOT
ATOM      1  N   UNL d   1      46.279 -17.408  43.615  0.00  0.00    -0.169 N 
ATOM      2  C   UNL d   1      46.220 -17.791  44.345  0.00  0.00     0.201 A 
ATOM      3  C   UNL d   1      46.326 -17.847  42.930  0.00  0.00     0.283 A 
ATOM      4  S   UNL d   1      46.182 -17.217  44.935  0.00  0.00    -0.008 SA
ATOM      5  N   UNL d   1      46.277 -16.592  43.760  0.00  0.00    -0.134 NA
ATOM      6  C   UNL d   1      46.218 -16.477  44.567  0.00  0.00     0.216 A 
ATOM      7  N   UNL d   1      46.208 -18.603  44.393  0.00  0.00    -0.221 NA
ATOM      8  C   UNL d   1      46.314 -18.673  42.965  0.00  0.00     0.076 A 
ATOM      9  C   UNL d   1      46.255 -19.051  43.697  0.00  0.00     0.088 A 
ATOM     10  O   UNL d   1      46.385 -17.470  42.198  0.00  0.00    -0.265 OA
ATOM     11  C   UNL d   1      46.361 -19.124  42.274  0.00  0.00     0.006 A 
ATOM     12  C   UNL d   1      46.243 -19.880  43.737  0.00  0.00     0.019 A 
ATOM     13  C   UNL d   1      46.349 -19.958  42.320  0.00  0.00     0.000 A 
ATOM     14  C   UNL d   1      46.291 -20.330  43.040  0.00  0.00     0.002 A 
ENDROOT
BRANCH   6  15
ATOM     15  N   UNL d   1      46.197 -15.748  44.955  0.00  0.00    -0.220 NA
BRANCH  15  16
ATOM     16  C   UNL d   1      45.659 -15.167  44.742  0.00  0.00     0.084 A 
ATOM     17  C   UNL d   1      45.904 -14.506  44.330  0.00  0.00     0.019 A 
ATOM     18  C   UNL d   1      45.354 -13.932  44.124  0.00  0.00     0.002 A 
ATOM     19  C   UNL d   1      45.593 -13.266  43.709  0.00  0.00     0.000 C 
ATOM     20  C   UNL d   1      44.563 -14.030  44.337  0.00  0.00     0.000 A 
ATOM     21  C   UNL d   1      44.319 -14.688  44.748  0.00  0.00     0.002 A 
ATOM     22  C   UNL d   1      44.871 -15.265  44.955  0.00  0.00     0.019 A 
ENDBRANCH  15  16
ENDBRANCH   6  15
TORSDOF 2
ENDMDL
MODEL 2
REMARK VINA RESULT:      18.9      1.316      4.770
REMARK  2 active torsions:
REMARK  status: ('A' for Active; 'I' for Inactive)
REMARK    1  A    between atoms: N_10  and  C_6 
REMARK    2  A    between atoms: C_12  and  N_10 
ROOT
ATOM      1  N   UNL d   1      45.246 -15.003  44.436  0.00  0.00    -0.169 N 
ATOM      2  C   UNL d   1      46.007 -14.936  44.749  0.00  0.00     0.201 A 
ATOM      3  C   UNL d   1      44.850 -14.336  44.185  0.00  0.00     0.283 A 
ATOM      4  S   UNL d   1      46.268 -15.690  44.955  0.00  0.00    -0.008 SA
ATOM      5  N   UNL d   1      45.039 -15.806  44.449  0.00  0.00    -0.134 NA
ATOM      6  C   UNL d   1      45.666 -16.224  44.767  0.00  0.00     0.216 A 
ATOM      7  N   UNL d   1      46.372 -14.212  44.813  0.00  0.00    -0.221 NA
ATOM      8  C   UNL d   1      45.211 -13.594  44.244  0.00  0.00     0.076 A 
ATOM      9  C   UNL d   1      45.972 -13.532  44.558  0.00  0.00     0.088 A 
ATOM     10  O   UNL d   1      44.089 -14.397  43.870  0.00  0.00    -0.265 OA
ATOM     11  C   UNL d   1      44.815 -12.913  43.991  0.00  0.00     0.006 A 
ATOM     12  C   UNL d   1      46.337 -12.790  44.619  0.00  0.00     0.019 A 
ATOM     13  C   UNL d   1      45.187 -12.168  44.055  0.00  0.00     0.000 A 
ATOM     14  C   UNL d   1      45.937 -12.108  44.364  0.00  0.00     0.002 A 
ENDROOT
BRANCH   6  15
ATOM     15  N   UNL d   1      45.697 -17.041  44.883  0.00  0.00    -0.220 NA
BRANCH  15  16
ATOM     16  C   UNL d   1      45.923 -17.550  44.281  0.00  0.00     0.084 A 
ATOM     17  C   UNL d   1      46.172 -18.308  44.450  0.00  0.00     0.019 A 
ATOM     18  C   UNL d   1      46.395 -18.806  43.836  0.00  0.00     0.002 A 
ATOM     19  C   UNL d   1      46.647 -19.570  43.999  0.00  0.00     0.000 C 
ATOM     20  C   UNL d   1      46.365 -18.534  43.058  0.00  0.00     0.000 A 
ATOM     21  C   UNL d   1      46.116 -17.778  42.890  0.00  0.00     0.002 A 
ATOM     22  C   UNL d   1      45.892 -17.278  43.506  0.00  0.00     0.019 A 
ENDBRANCH  15  16
ENDBRANCH   6  15
TORSDOF 2
ENDMDL
