MODEL 1
REMARK VINA RESULT:     -11.7      0.000      0.000
REMARK  3 active torsions:
REMARK  status: ('A' for Active; 'I' for Inactive)
REMARK    1  A    between atoms: C_16  and  N_3 
REMARK    2  A    between atoms: C_10  and  C_5 
REMARK    3  A    between atoms: C_26  and  C_16 
ROOT
ATOM      1  C   UNL d   1      52.883  33.338  53.519  0.00  0.00     0.083 A 
ATOM      2  C   UNL d   1      53.502  33.283  54.059  0.00  0.00     0.161 A 
ATOM      3  N   UNL d   1      53.146  34.571  53.981  0.00  0.00    -0.268 N 
ATOM      4  C   UNL d   1      53.668  34.044  54.348  0.00  0.00     0.288 A 
ATOM      5  C   UNL d   1      52.659  34.134  53.468  0.00  0.00     0.072 A 
ATOM      6  C   UNL d   1      52.597  32.664  53.141  0.00  0.00     0.201 A 
ATOM      7  O   UNL d   1      53.841  32.543  54.223  0.00  0.00    -0.302 OA
ATOM      8  C   UNL d   1      52.936  31.930  53.307  0.00  0.00     0.063 A 
ATOM      9  C   UNL d   1      53.555  31.871  53.846  0.00  0.00     0.103 A 
ATOM     10  O   UNL d   1      54.244  34.240  54.895  0.00  0.00    -0.264 OA
ATOM     11  O   UNL d   1      51.978  32.717  52.601  0.00  0.00    -0.286 OA
ATOM     12  C   UNL d   1      52.651  31.251  52.928  0.00  0.00     0.017 A 
ATOM     13  C   UNL d   1      53.892  31.126  54.007  0.00  0.00     0.026 A 
ATOM     14  C   UNL d   1      52.984  30.517  53.088  0.00  0.00     0.058 A 
ATOM     15  C   UNL d   1      53.606  30.455  53.630  0.00  0.00     0.013 A 
ATOM     16 CL   UNL d   1      52.702  29.847  52.714  0.00  0.00    -0.082 Cl
ENDROOT
BRANCH   5  17
ATOM     17  C   UNL d   1      52.040  34.192  52.929  0.00  0.00     0.017 A 
ATOM     18  C   UNL d   1      51.256  34.217  53.190  0.00  0.00     0.008 A 
ATOM     19  C   UNL d   1      50.640  34.275  52.649  0.00  0.00     0.035 A 
ATOM     20 BR   UNL d   1      49.862  34.299  52.915  0.00  0.00    -0.049 Br
ATOM     21  C   UNL d   1      50.801  34.310  51.833  0.00  0.00     0.007 A 
ATOM     22  C   UNL d   1      51.586  34.285  51.571  0.00  0.00     0.001 A 
ATOM     23  C   UNL d   1      52.205  34.226  52.122  0.00  0.00     0.002 A 
ENDBRANCH   5  17
BRANCH   3  24
ATOM     24  C   UNL d   1      53.112  35.385  54.101  0.00  0.00     0.129 C 
BRANCH  24  25
ATOM     25  C   UNL d   1      53.012  35.682  54.862  0.00  0.00     0.253 C 
ATOM     26  O   UNL d   1      52.887  36.486  54.978  0.00  0.00    -0.281 OA
ENDBRANCH  24  25
ENDBRANCH   3  24
TORSDOF 3
ENDMDL
MODEL 2
REMARK VINA RESULT:     -10.6      1.717      2.913
REMARK  3 active torsions:
REMARK  status: ('A' for Active; 'I' for Inactive)
REMARK    1  A    between atoms: C_16  and  N_3 
REMARK    2  A    between atoms: C_10  and  C_5 
REMARK    3  A    between atoms: C_26  and  C_16 
ROOT
ATOM      1  C   UNL d   1      53.145  32.444  53.582  0.00  0.00     0.083 A 
ATOM      2  C   UNL d   1      52.575  32.354  52.995  0.00  0.00     0.161 A 
ATOM      3  N   UNL d   1      52.743  33.666  53.198  0.00  0.00    -0.268 N 
ATOM      4  C   UNL d   1      52.323  33.108  52.754  0.00  0.00     0.288 A 
ATOM      5  C   UNL d   1      53.252  33.255  53.711  0.00  0.00     0.072 A 
ATOM      6  C   UNL d   1      53.497  31.783  53.927  0.00  0.00     0.201 A 
ATOM      7  O   UNL d   1      52.353  31.592  52.749  0.00  0.00    -0.302 OA
ATOM      8  C   UNL d   1      53.274  31.028  53.681  0.00  0.00     0.063 A 
ATOM      9  C   UNL d   1      52.704  30.934  53.094  0.00  0.00     0.103 A 
ATOM     10  O   UNL d   1      51.762  33.272  52.181  0.00  0.00    -0.264 OA
ATOM     11  O   UNL d   1      54.067  31.872  54.514  0.00  0.00    -0.286 OA
ATOM     12  C   UNL d   1      53.626  30.363  54.027  0.00  0.00     0.017 A 
ATOM     13  C   UNL d   1      52.485  30.168  52.852  0.00  0.00     0.026 A 
ATOM     14  C   UNL d   1      53.408  29.608  53.786  0.00  0.00     0.058 A 
ATOM     15  C   UNL d   1      52.837  29.510  53.197  0.00  0.00     0.013 A 
ATOM     16 CL   UNL d   1      53.757  28.951  54.128  0.00  0.00    -0.082 Cl
ENDROOT
BRANCH   5  17
ATOM     17  C   UNL d   1      53.822  33.348  54.298  0.00  0.00     0.017 A 
ATOM     18  C   UNL d   1      54.599  33.552  54.101  0.00  0.00     0.008 A 
ATOM     19  C   UNL d   1      55.165  33.644  54.690  0.00  0.00     0.035 A 
ATOM     20 BR   UNL d   1      55.937  33.846  54.487  0.00  0.00    -0.049 Br
ATOM     21  C   UNL d   1      54.960  33.534  55.489  0.00  0.00     0.007 A 
ATOM     22  C   UNL d   1      54.183  33.331  55.686  0.00  0.00     0.001 A 
ATOM     23  C   UNL d   1      53.614  33.238  55.087  0.00  0.00     0.002 A 
ENDBRANCH   5  17
BRANCH   3  24
ATOM     24  C   UNL d   1      52.671  34.484  53.143  0.00  0.00     0.129 C 
BRANCH  24  25
ATOM     25  C   UNL d   1      51.934  34.838  53.239  0.00  0.00     0.253 C 
ATOM     26  O   UNL d   1      51.878  35.593  53.558  0.00  0.00    -0.281 OA
ENDBRANCH  24  25
ENDBRANCH   3  24
TORSDOF 3
ENDMDL
MODEL 3
REMARK VINA RESULT:      -9.6      2.101      4.070
REMARK  3 active torsions:
REMARK  status: ('A' for Active; 'I' for Inactive)
REMARK    1  A    between atoms: C_16  and  N_3 
REMARK    2  A    between atoms: C_10  and  C_5 
REMARK    3  A    between atoms: C_26  and  C_16 
ROOT
ATOM      1  C   UNL d   1      52.765  32.335  53.448  0.00  0.00     0.083 A 
ATOM      2  C   UNL d   1      52.196  31.807  53.174  0.00  0.00     0.161 A 
ATOM      3  N   UNL d   1      53.272  31.094  53.526  0.00  0.00    -0.268 N 
ATOM      4  C   UNL d   1      52.505  31.037  53.221  0.00  0.00     0.288 A 
ATOM      5  C   UNL d   1      53.433  31.897  53.667  0.00  0.00     0.072 A 
ATOM      6  C   UNL d   1      52.610  33.144  53.465  0.00  0.00     0.201 A 
ATOM      7  O   UNL d   1      51.459  32.092  52.914  0.00  0.00    -0.302 OA
ATOM      8  C   UNL d   1      51.878  33.424  53.206  0.00  0.00     0.063 A 
ATOM      9  C   UNL d   1      51.307  32.899  52.932  0.00  0.00     0.103 A 
ATOM     10  O   UNL d   1      52.122  30.346  53.005  0.00  0.00    -0.264 OA
ATOM     11  O   UNL d   1      53.179  33.673  53.738  0.00  0.00    -0.286 OA
ATOM     12  C   UNL d   1      51.720  34.237  53.223  0.00  0.00     0.017 A 
ATOM     13  C   UNL d   1      50.570  33.191  52.673  0.00  0.00     0.026 A 
ATOM     14  C   UNL d   1      50.994  34.522  52.966  0.00  0.00     0.058 A 
ATOM     15  C   UNL d   1      50.417  33.998  52.691  0.00  0.00     0.013 A 
ATOM     16 CL   UNL d   1      50.839  35.326  52.983  0.00  0.00    -0.082 Cl
ENDROOT
BRANCH   5  17
ATOM     17  C   UNL d   1      54.005  32.422  53.940  0.00  0.00     0.017 A 
ATOM     18  C   UNL d   1      54.036  32.631  54.740  0.00  0.00     0.008 A 
ATOM     19  C   UNL d   1      54.608  33.156  55.010  0.00  0.00     0.035 A 
ATOM     20 BR   UNL d   1      54.634  33.359  55.806  0.00  0.00    -0.049 Br
ATOM     21  C   UNL d   1      55.161  33.481  54.480  0.00  0.00     0.007 A 
ATOM     22  C   UNL d   1      55.131  33.273  53.679  0.00  0.00     0.001 A 
ATOM     23  C   UNL d   1      54.550  32.742  53.411  0.00  0.00     0.002 A 
ENDBRANCH   5  17
BRANCH   3  24
ATOM     24  C   UNL d   1      53.786  30.467  53.667  0.00  0.00     0.129 C 
BRANCH  24  25
ATOM     25  C   UNL d   1      53.490  29.745  53.930  0.00  0.00     0.253 C 
ATOM     26  O   UNL d   1      54.004  29.157  54.186  0.00  0.00    -0.281 OA
ENDBRANCH  24  25
ENDBRANCH   3  24
TORSDOF 3
ENDMDL
MODEL 4
REMARK VINA RESULT:      -9.0      1.717      3.260
REMARK  3 active torsions:
REMARK  status: ('A' for Active; 'I' for Inactive)
REMARK    1  A    between atoms: C_16  and  N_3 
REMARK    2  A    between atoms: C_10  and  C_5 
REMARK    3  A    between atoms: C_26  and  C_16 
ROOT
ATOM      1  C   UNL d   1      52.834  33.403  53.893  0.00  0.00     0.083 A 
ATOM      2  C   UNL d   1      52.768  34.144  54.245  0.00  0.00     0.161 A 
ATOM      3  N   UNL d   1      53.849  33.547  54.760  0.00  0.00    -0.268 N 
ATOM      4  C   UNL d   1      53.394  34.238  54.783  0.00  0.00     0.288 A 
ATOM      5  C   UNL d   1      53.503  33.030  54.209  0.00  0.00     0.072 A 
ATOM      6  C   UNL d   1      52.284  33.157  53.331  0.00  0.00     0.201 A 
ATOM      7  O   UNL d   1      52.141  34.647  54.032  0.00  0.00    -0.302 OA
ATOM      8  C   UNL d   1      51.663  33.659  53.122  0.00  0.00     0.063 A 
ATOM      9  C   UNL d   1      51.594  34.400  53.472  0.00  0.00     0.103 A 
ATOM     10  O   UNL d   1      53.537  34.894  55.252  0.00  0.00    -0.264 OA
ATOM     11  O   UNL d   1      52.350  32.416  52.978  0.00  0.00    -0.286 OA
ATOM     12  C   UNL d   1      51.109  33.413  52.558  0.00  0.00     0.017 A 
ATOM     13  C   UNL d   1      50.963  34.901  53.255  0.00  0.00     0.026 A 
ATOM     14  C   UNL d   1      50.489  33.908  52.345  0.00  0.00     0.058 A 
ATOM     15  C   UNL d   1      50.416  34.654  52.695  0.00  0.00     0.013 A 
ATOM     16 CL   UNL d   1      49.942  33.665  51.787  0.00  0.00    -0.082 Cl
ENDROOT
BRANCH   5  17
ATOM     17  C   UNL d   1      53.572  32.289  53.859  0.00  0.00     0.017 A 
ATOM     18  C   UNL d   1      53.300  31.612  54.249  0.00  0.00     0.008 A 
ATOM     19  C   UNL d   1      53.371  30.873  53.896  0.00  0.00     0.035 A 
ATOM     20 BR   UNL d   1      53.098  30.204  54.289  0.00  0.00    -0.049 Br
ATOM     21  C   UNL d   1      53.718  30.800  53.143  0.00  0.00     0.007 A 
ATOM     22  C   UNL d   1      53.991  31.477  52.752  0.00  0.00     0.001 A 
ATOM     23  C   UNL d   1      53.917  32.222  53.113  0.00  0.00     0.002 A 
ENDBRANCH   5  17
BRANCH   3  24
ATOM     24  C   UNL d   1      54.526  33.397  55.204  0.00  0.00     0.129 C 
BRANCH  24  25
ATOM     25  C   UNL d   1      55.121  33.964  55.248  0.00  0.00     0.253 C 
ATOM     26  O   UNL d   1      55.820  33.797  55.648  0.00  0.00    -0.281 OA
ENDBRANCH  24  25
ENDBRANCH   3  24
TORSDOF 3
ENDMDL
