MODEL 1
REMARK VINA RESULT:      -4.3      0.000      0.000
REMARK  6 active torsions:
REMARK  status: ('A' for Active; 'I' for Inactive)
REMARK    1  A    between atoms: N_7  and  C_1 
REMARK    2  A    between atoms: C_10  and  C_3 
REMARK    3  A    between atoms: C_17  and  C_5 
REMARK    4  A    between atoms: C_12  and  N_7 
REMARK    5  A    between atoms: C_8  and  C_9 
REMARK    6  A    between atoms: C_13  and  C_17 
ROOT
ATOM      1  C   UNL d   1     -40.045  15.204  20.297  0.00  0.00     0.165 A 
ATOM      2  N   UNL d   1     -40.415  15.217  19.551  0.00  0.00    -0.208 NA
ATOM      3  C   UNL d   1     -39.962  15.286  18.861  0.00  0.00     0.164 A 
ATOM      4  N   UNL d   1     -39.138  15.343  18.912  0.00  0.00    -0.227 NA
ATOM      5  C   UNL d   1     -39.221  15.261  20.340  0.00  0.00     0.054 A 
ATOM      6  C   UNL d   1     -38.781  15.330  19.652  0.00  0.00     0.086 A 
ATOM      7  C   UNL d   1     -37.953  15.387  19.704  0.00  0.00     0.021 C 
ENDROOT
BRANCH   1   8
ATOM      8  N   UNL d   1     -40.498  15.135  20.983  0.00  0.00    -0.227 NA
BRANCH   8   9
ATOM      9  C   UNL d   1     -41.107  14.565  21.026  0.00  0.00     0.083 A 
ATOM     10  C   UNL d   1     -40.919  13.776  21.028  0.00  0.00     0.019 A 
ATOM     11  C   UNL d   1     -41.526  13.210  21.071  0.00  0.00     0.008 A 
ATOM     12  C   UNL d   1     -42.314  13.456  21.111  0.00  0.00     0.065 A 
ATOM     13  C   UNL d   1     -42.498  14.253  21.109  0.00  0.00     0.008 A 
ATOM     14  C   UNL d   1     -41.895  14.817  21.066  0.00  0.00     0.019 A 
BRANCH  12  15
ATOM     15  C   UNL d   1     -42.920  12.889  21.154  0.00  0.00     0.211 C 
ATOM     16  O   UNL d   1     -43.261  12.596  20.463  0.00  0.00    -0.644 OA
ATOM     17  O   UNL d   1     -43.182  12.620  21.883  0.00  0.00    -0.644 OA
ENDBRANCH  12  15
ENDBRANCH   8   9
ENDBRANCH   1   8
BRANCH   5  18
ATOM     18  C   UNL d   1     -38.850  15.249  21.072  0.00  0.00     0.005 C 
BRANCH  18  19
ATOM     19  C   UNL d   1     -38.394  15.877  21.327  0.00  0.00     0.000 C 
ATOM     20  C   UNL d   1     -38.105  15.922  22.094  0.00  0.00     0.000 C 
ENDBRANCH  18  19
ENDBRANCH   5  18
BRANCH   3  21
ATOM     21  C   UNL d   1     -40.331  15.299  18.123  0.00  0.00     0.036 A 
ATOM     22  C   UNL d   1     -40.859  15.901  17.938  0.00  0.00     0.003 A 
ATOM     23  C   UNL d   1     -41.232  15.918  17.203  0.00  0.00     0.000 A 
ATOM     24  C   UNL d   1     -41.070  15.317  16.643  0.00  0.00     0.000 A 
ATOM     25  C   UNL d   1     -40.541  14.715  16.828  0.00  0.00     0.000 A 
ATOM     26  C   UNL d   1     -40.170  14.708  17.576  0.00  0.00     0.003 A 
ENDBRANCH   3  21
TORSDOF 6
ENDMDL
MODEL 2
REMARK VINA RESULT:      -3.9      2.562      3.624
REMARK  6 active torsions:
REMARK  status: ('A' for Active; 'I' for Inactive)
REMARK    1  A    between atoms: N_7  and  C_1 
REMARK    2  A    between atoms: C_10  and  C_3 
REMARK    3  A    between atoms: C_17  and  C_5 
REMARK    4  A    between atoms: C_12  and  N_7 
REMARK    5  A    between atoms: C_8  and  C_9 
REMARK    6  A    between atoms: C_13  and  C_17 
ROOT
ATOM      1  C   UNL d   1     -38.677  13.079  18.270  0.00  0.00     0.165 A 
ATOM      2  N   UNL d   1     -39.118  13.750  18.050  0.00  0.00    -0.208 NA
ATOM      3  C   UNL d   1     -39.257  13.916  17.250  0.00  0.00     0.164 A 
ATOM      4  N   UNL d   1     -38.958  13.413  16.666  0.00  0.00    -0.227 NA
ATOM      5  C   UNL d   1     -38.381  12.580  17.680  0.00  0.00     0.054 A 
ATOM      6  C   UNL d   1     -38.523  12.752  16.891  0.00  0.00     0.086 A 
ATOM      7  C   UNL d   1     -38.222  12.246  16.305  0.00  0.00     0.021 C 
ENDROOT
BRANCH   1   8
ATOM      8  N   UNL d   1     -38.539  12.916  19.066  0.00  0.00    -0.227 NA
BRANCH   8   9
ATOM      9  C   UNL d   1     -38.683  13.501  19.644  0.00  0.00     0.083 A 
ATOM     10  C   UNL d   1     -39.418  13.559  19.982  0.00  0.00     0.019 A 
ATOM     11  C   UNL d   1     -39.562  14.141  20.557  0.00  0.00     0.008 A 
ATOM     12  C   UNL d   1     -38.954  14.656  20.778  0.00  0.00     0.065 A 
ATOM     13  C   UNL d   1     -38.214  14.594  20.434  0.00  0.00     0.008 A 
ATOM     14  C   UNL d   1     -38.071  14.014  19.862  0.00  0.00     0.019 A 
BRANCH  12  15
ATOM     15  C   UNL d   1     -39.097  15.238  21.353  0.00  0.00     0.211 C 
ATOM     16  O   UNL d   1     -39.521  15.918  21.156  0.00  0.00    -0.644 OA
ATOM     17  O   UNL d   1     -38.819  15.140  22.119  0.00  0.00    -0.644 OA
ENDBRANCH  12  15
ENDBRANCH   8   9
ENDBRANCH   1   8
BRANCH   5  18
ATOM     18  C   UNL d   1     -37.945  11.917  17.890  0.00  0.00     0.005 C 
BRANCH  18  19
ATOM     19  C   UNL d   1     -38.245  11.164  17.788  0.00  0.00     0.000 C 
ATOM     20  C   UNL d   1     -37.940  10.516  18.191  0.00  0.00     0.000 C 
ENDBRANCH  18  19
ENDBRANCH   5  18
BRANCH   3  21
ATOM     21  C   UNL d   1     -39.694  14.582  17.036  0.00  0.00     0.036 A 
ATOM     22  C   UNL d   1     -40.511  14.585  17.127  0.00  0.00     0.003 A 
ATOM     23  C   UNL d   1     -40.953  15.247  16.916  0.00  0.00     0.000 A 
ATOM     24  C   UNL d   1     -40.565  15.922  16.606  0.00  0.00     0.000 A 
ATOM     25  C   UNL d   1     -39.748  15.919  16.515  0.00  0.00     0.000 A 
ATOM     26  C   UNL d   1     -39.310  15.242  16.733  0.00  0.00     0.003 A 
ENDBRANCH   3  21
TORSDOF 6
ENDMDL
MODEL 3
REMARK VINA RESULT:      -3.8      2.072      3.636
REMARK  6 active torsions:
REMARK  status: ('A' for Active; 'I' for Inactive)
REMARK    1  A    between atoms: N_7  and  C_1 
REMARK    2  A    between atoms: C_10  and  C_3 
REMARK    3  A    between atoms: C_17  and  C_5 
REMARK    4  A    between atoms: C_12  and  N_7 
REMARK    5  A    between atoms: C_8  and  C_9 
REMARK    6  A    between atoms: C_13  and  C_17 
ROOT
ATOM      1  C   UNL d   1     -40.300  14.789  17.871  0.00  0.00     0.165 A 
ATOM      2  N   UNL d   1     -39.853  14.116  18.075  0.00  0.00    -0.208 NA
ATOM      3  C   UNL d   1     -39.267  13.832  17.563  0.00  0.00     0.164 A 
ATOM      4  N   UNL d   1     -39.125  14.218  16.845  0.00  0.00    -0.227 NA
ATOM      5  C   UNL d   1     -40.152  15.169  17.152  0.00  0.00     0.054 A 
ATOM      6  C   UNL d   1     -39.570  14.881  16.651  0.00  0.00     0.086 A 
ATOM      7  C   UNL d   1     -39.427  15.268  15.930  0.00  0.00     0.021 C 
ENDROOT
BRANCH   1   8
ATOM      8  N   UNL d   1     -40.883  15.070  18.383  0.00  0.00    -0.227 NA
BRANCH   8   9
ATOM      9  C   UNL d   1     -40.712  15.176  19.193  0.00  0.00     0.083 A 
ATOM     10  C   UNL d   1     -40.275  15.816  19.430  0.00  0.00     0.019 A 
ATOM     11  C   UNL d   1     -40.105  15.922  20.237  0.00  0.00     0.008 A 
ATOM     12  C   UNL d   1     -40.384  15.374  20.789  0.00  0.00     0.065 A 
ATOM     13  C   UNL d   1     -40.826  14.729  20.545  0.00  0.00     0.008 A 
ATOM     14  C   UNL d   1     -40.994  14.624  19.742  0.00  0.00     0.019 A 
BRANCH  12  15
ATOM     15  C   UNL d   1     -40.215  15.479  21.595  0.00  0.00     0.211 C 
ATOM     16  O   UNL d   1     -39.439  15.409  21.867  0.00  0.00    -0.644 OA
ATOM     17  O   UNL d   1     -40.817  15.654  22.125  0.00  0.00    -0.644 OA
ENDBRANCH  12  15
ENDBRANCH   8   9
ENDBRANCH   1   8
BRANCH   5  18
ATOM     18  C   UNL d   1     -40.588  15.832  16.945  0.00  0.00     0.005 C 
BRANCH  18  19
ATOM     19  C   UNL d   1     -40.972  15.879  16.225  0.00  0.00     0.000 C 
ATOM     20  C   UNL d   1     -41.790  15.857  16.166  0.00  0.00     0.000 C 
ENDBRANCH  18  19
ENDBRANCH   5  18
BRANCH   3  21
ATOM     21  C   UNL d   1     -38.827  13.166  17.769  0.00  0.00     0.036 A 
ATOM     22  C   UNL d   1     -38.382  13.164  18.460  0.00  0.00     0.003 A 
ATOM     23  C   UNL d   1     -37.940  12.501  18.670  0.00  0.00     0.000 A 
ATOM     24  C   UNL d   1     -37.945  11.826  18.175  0.00  0.00     0.000 A 
ATOM     25  C   UNL d   1     -38.391  11.828  17.484  0.00  0.00     0.000 A 
ATOM     26  C   UNL d   1     -38.835  12.505  17.280  0.00  0.00     0.003 A 
ENDBRANCH   3  21
TORSDOF 6
ENDMDL
MODEL 4
REMARK VINA RESULT:      -3.0      1.255      3.248
REMARK  6 active torsions:
REMARK  status: ('A' for Active; 'I' for Inactive)
REMARK    1  A    between atoms: N_7  and  C_1 
REMARK    2  A    between atoms: C_10  and  C_3 
REMARK    3  A    between atoms: C_17  and  C_5 
REMARK    4  A    between atoms: C_12  and  N_7 
REMARK    5  A    between atoms: C_8  and  C_9 
REMARK    6  A    between atoms: C_13  and  C_17 
ROOT
ATOM      1  C   UNL d   1     -39.893  15.039  20.254  0.00  0.00     0.165 A 
ATOM      2  N   UNL d   1     -39.666  14.628  20.941  0.00  0.00    -0.208 NA
ATOM      3  C   UNL d   1     -38.869  14.595  21.165  0.00  0.00     0.164 A 
ATOM      4  N   UNL d   1     -38.296  14.974  20.705  0.00  0.00    -0.227 NA
ATOM      5  C   UNL d   1     -39.314  15.416  19.799  0.00  0.00     0.054 A 
ATOM      6  C   UNL d   1     -38.528  15.379  20.027  0.00  0.00     0.086 A 
ATOM      7  C   UNL d   1     -37.952  15.759  19.565  0.00  0.00     0.021 C 
ENDROOT
BRANCH   1   8
ATOM      8  N   UNL d   1     -40.687  15.070  20.032  0.00  0.00    -0.227 NA
BRANCH   8   9
ATOM      9  C   UNL d   1     -41.241  14.556  20.387  0.00  0.00     0.083 A 
ATOM     10  C   UNL d   1     -41.650  14.799  21.044  0.00  0.00     0.019 A 
ATOM     11  C   UNL d   1     -42.201  14.287  21.397  0.00  0.00     0.008 A 
ATOM     12  C   UNL d   1     -42.326  13.536  21.076  0.00  0.00     0.065 A 
ATOM     13  C   UNL d   1     -41.911  13.295  20.413  0.00  0.00     0.008 A 
ATOM     14  C   UNL d   1     -41.362  13.805  20.062  0.00  0.00     0.019 A 
BRANCH  12  15
ATOM     15  C   UNL d   1     -42.877  13.024  21.430  0.00  0.00     0.211 C 
ATOM     16  O   UNL d   1     -42.619  12.344  21.817  0.00  0.00    -0.644 OA
ATOM     17  O   UNL d   1     -43.679  13.193  21.395  0.00  0.00    -0.644 OA
ENDBRANCH  12  15
ENDBRANCH   8   9
ENDBRANCH   1   8
BRANCH   5  18
ATOM     18  C   UNL d   1     -39.531  15.824  19.120  0.00  0.00     0.005 C 
BRANCH  18  19
ATOM     19  C   UNL d   1     -39.379  15.522  18.377  0.00  0.00     0.000 C 
ATOM     20  C   UNL d   1     -39.593  15.921  17.693  0.00  0.00     0.000 C 
ENDBRANCH  18  19
ENDBRANCH   5  18
BRANCH   3  21
ATOM     21  C   UNL d   1     -38.648  14.186  21.846  0.00  0.00     0.036 A 
ATOM     22  C   UNL d   1     -38.725  14.542  22.583  0.00  0.00     0.003 A 
ATOM     23  C   UNL d   1     -38.506  14.138  23.267  0.00  0.00     0.000 A 
ATOM     24  C   UNL d   1     -38.202  13.360  23.208  0.00  0.00     0.000 A 
ATOM     25  C   UNL d   1     -38.125  13.004  22.471  0.00  0.00     0.000 A 
ATOM     26  C   UNL d   1     -38.351  13.423  21.785  0.00  0.00     0.003 A 
ENDBRANCH   3  21
TORSDOF 6
ENDMDL
MODEL 5
REMARK VINA RESULT:      -2.4      2.094      4.089
REMARK  6 active torsions:
REMARK  status: ('A' for Active; 'I' for Inactive)
REMARK    1  A    between atoms: N_7  and  C_1 
REMARK    2  A    between atoms: C_10  and  C_3 
REMARK    3  A    between atoms: C_17  and  C_5 
REMARK    4  A    between atoms: C_12  and  N_7 
REMARK    5  A    between atoms: C_8  and  C_9 
REMARK    6  A    between atoms: C_13  and  C_17 
ROOT
ATOM      1  C   UNL d   1     -39.170  14.339  18.269  0.00  0.00     0.165 A 
ATOM      2  N   UNL d   1     -39.734  14.554  18.843  0.00  0.00    -0.208 NA
ATOM      3  C   UNL d   1     -39.696  14.235  19.607  0.00  0.00     0.164 A 
ATOM      4  N   UNL d   1     -39.096  13.700  19.801  0.00  0.00    -0.227 NA
ATOM      5  C   UNL d   1     -38.573  13.804  18.471  0.00  0.00     0.054 A 
ATOM      6  C   UNL d   1     -38.543  13.493  19.229  0.00  0.00     0.086 A 
ATOM      7  C   UNL d   1     -37.940  12.956  19.424  0.00  0.00     0.021 C 
ENDROOT
BRANCH   1   8
ATOM      8  N   UNL d   1     -39.209  14.658  17.510  0.00  0.00    -0.227 NA
BRANCH   8   9
ATOM      9  C   UNL d   1     -39.939  14.929  17.207  0.00  0.00     0.083 A 
ATOM     10  C   UNL d   1     -40.266  15.611  17.501  0.00  0.00     0.019 A 
ATOM     11  C   UNL d   1     -40.992  15.881  17.200  0.00  0.00     0.008 A 
ATOM     12  C   UNL d   1     -41.373  15.453  16.605  0.00  0.00     0.065 A 
ATOM     13  C   UNL d   1     -41.039  14.765  16.312  0.00  0.00     0.008 A 
ATOM     14  C   UNL d   1     -40.317  14.496  16.611  0.00  0.00     0.019 A 
BRANCH  12  15
ATOM     15  C   UNL d   1     -42.099  15.723  16.304  0.00  0.00     0.211 C 
ATOM     16  O   UNL d   1     -42.711  15.921  16.819  0.00  0.00    -0.644 OA
ATOM     17  O   UNL d   1     -42.209  15.794  15.494  0.00  0.00    -0.644 OA
ENDBRANCH  12  15
ENDBRANCH   8   9
ENDBRANCH   1   8
BRANCH   5  18
ATOM     18  C   UNL d   1     -38.014  13.588  17.910  0.00  0.00     0.005 C 
BRANCH  18  19
ATOM     19  C   UNL d   1     -37.940  12.813  17.662  0.00  0.00     0.000 C 
ATOM     20  C   UNL d   1     -37.954  12.608  16.867  0.00  0.00     0.000 C 
ENDBRANCH  18  19
ENDBRANCH   5  18
BRANCH   3  21
ATOM     21  C   UNL d   1     -40.257  14.450  20.172  0.00  0.00     0.036 A 
ATOM     22  C   UNL d   1     -40.910  13.969  20.309  0.00  0.00     0.003 A 
ATOM     23  C   UNL d   1     -41.473  14.179  20.872  0.00  0.00     0.000 A 
ATOM     24  C   UNL d   1     -41.377  14.888  21.309  0.00  0.00     0.000 A 
ATOM     25  C   UNL d   1     -40.724  15.368  21.172  0.00  0.00     0.000 A 
ATOM     26  C   UNL d   1     -40.160  15.146  20.598  0.00  0.00     0.003 A 
ENDBRANCH   3  21
TORSDOF 6
ENDMDL
MODEL 6
REMARK VINA RESULT:      -2.2      2.106      4.329
REMARK  6 active torsions:
REMARK  status: ('A' for Active; 'I' for Inactive)
REMARK    1  A    between atoms: N_7  and  C_1 
REMARK    2  A    between atoms: C_10  and  C_3 
REMARK    3  A    between atoms: C_17  and  C_5 
REMARK    4  A    between atoms: C_12  and  N_7 
REMARK    5  A    between atoms: C_8  and  C_9 
REMARK    6  A    between atoms: C_13  and  C_17 
ROOT
ATOM      1  C   UNL d   1     -41.115  14.213  20.392  0.00  0.00     0.165 A 
ATOM      2  N   UNL d   1     -40.414  14.606  20.610  0.00  0.00    -0.208 NA
ATOM      3  C   UNL d   1     -40.065  14.462  21.347  0.00  0.00     0.164 A 
ATOM      4  N   UNL d   1     -40.415  13.926  21.871  0.00  0.00    -0.227 NA
ATOM      5  C   UNL d   1     -41.459  13.678  20.921  0.00  0.00     0.054 A 
ATOM      6  C   UNL d   1     -41.107  13.542  21.649  0.00  0.00     0.086 A 
ATOM      7  C   UNL d   1     -41.459  13.003  22.175  0.00  0.00     0.021 C 
ENDROOT
BRANCH   1   8
ATOM      8  N   UNL d   1     -41.460  14.358  19.657  0.00  0.00    -0.227 NA
BRANCH   8   9
ATOM      9  C   UNL d   1     -40.998  14.659  19.030  0.00  0.00     0.083 A 
ATOM     10  C   UNL d   1     -40.915  15.461  18.942  0.00  0.00     0.019 A 
ATOM     11  C   UNL d   1     -40.455  15.760  18.318  0.00  0.00     0.008 A 
ATOM     12  C   UNL d   1     -40.088  15.238  17.793  0.00  0.00     0.065 A 
ATOM     13  C   UNL d   1     -40.175  14.429  17.886  0.00  0.00     0.008 A 
ATOM     14  C   UNL d   1     -40.632  14.131  18.507  0.00  0.00     0.019 A 
BRANCH  12  15
ATOM     15  C   UNL d   1     -39.628  15.537  17.169  0.00  0.00     0.211 C 
ATOM     16  O   UNL d   1     -39.975  15.687  16.436  0.00  0.00    -0.644 OA
ATOM     17  O   UNL d   1     -38.829  15.685  17.279  0.00  0.00    -0.644 OA
ENDBRANCH  12  15
ENDBRANCH   8   9
ENDBRANCH   1   8
BRANCH   5  18
ATOM     18  C   UNL d   1     -42.150  13.288  20.713  0.00  0.00     0.005 C 
BRANCH  18  19
ATOM     19  C   UNL d   1     -42.711  13.091  21.273  0.00  0.00     0.000 C 
ATOM     20  C   UNL d   1     -43.508  13.026  21.086  0.00  0.00     0.000 C 
ENDBRANCH  18  19
ENDBRANCH   5  18
BRANCH   3  21
ATOM     21  C   UNL d   1     -39.371  14.853  21.559  0.00  0.00     0.036 A 
ATOM     22  C   UNL d   1     -39.405  15.527  22.030  0.00  0.00     0.003 A 
ATOM     23  C   UNL d   1     -38.714  15.921  22.245  0.00  0.00     0.000 A 
ATOM     24  C   UNL d   1     -37.973  15.633  21.981  0.00  0.00     0.000 A 
ATOM     25  C   UNL d   1     -37.940  14.959  21.511  0.00  0.00     0.000 A 
ATOM     26  C   UNL d   1     -38.646  14.567  21.299  0.00  0.00     0.003 A 
ENDBRANCH   3  21
TORSDOF 6
ENDMDL
MODEL 7
REMARK VINA RESULT:      -2.1      5.918      7.780
REMARK  6 active torsions:
REMARK  status: ('A' for Active; 'I' for Inactive)
REMARK    1  A    between atoms: N_7  and  C_1 
REMARK    2  A    between atoms: C_10  and  C_3 
REMARK    3  A    between atoms: C_17  and  C_5 
REMARK    4  A    between atoms: C_12  and  N_7 
REMARK    5  A    between atoms: C_8  and  C_9 
REMARK    6  A    between atoms: C_13  and  C_17 
ROOT
ATOM      1  C   UNL d   1     -46.240  12.724  23.262  0.00  0.00     0.165 A 
ATOM      2  N   UNL d   1     -45.829  12.027  23.457  0.00  0.00    -0.208 NA
ATOM      3  C   UNL d   1     -45.164  11.797  23.021  0.00  0.00     0.164 A 
ATOM      4  N   UNL d   1     -44.906  12.261  22.387  0.00  0.00    -0.227 NA
ATOM      5  C   UNL d   1     -45.976  13.183  22.626  0.00  0.00     0.054 A 
ATOM      6  C   UNL d   1     -45.317  12.949  22.199  0.00  0.00     0.086 A 
ATOM      7  C   UNL d   1     -45.058  13.415  21.562  0.00  0.00     0.021 C 
ENDROOT
BRANCH   1   8
ATOM      8  N   UNL d   1     -46.902  12.952  23.698  0.00  0.00    -0.227 NA
BRANCH   8   9
ATOM      9  C   UNL d   1     -47.638  12.580  23.565  0.00  0.00     0.083 A 
ATOM     10  C   UNL d   1     -48.269  13.020  23.310  0.00  0.00     0.019 A 
ATOM     11  C   UNL d   1     -49.002  12.650  23.178  0.00  0.00     0.008 A 
ATOM     12  C   UNL d   1     -49.079  11.838  23.308  0.00  0.00     0.065 A 
ATOM     13  C   UNL d   1     -48.439  11.398  23.566  0.00  0.00     0.008 A 
ATOM     14  C   UNL d   1     -47.710  11.766  23.698  0.00  0.00     0.019 A 
BRANCH  12  15
ATOM     15  C   UNL d   1     -49.811  11.467  23.177  0.00  0.00     0.211 C 
ATOM     16  O   UNL d   1     -50.314  11.746  22.585  0.00  0.00    -0.644 OA
ATOM     17  O   UNL d   1     -50.037  10.824  23.633  0.00  0.00    -0.644 OA
ENDBRANCH  12  15
ENDBRANCH   8   9
ENDBRANCH   1   8
BRANCH   5  18
ATOM     18  C   UNL d   1     -46.377  13.872  22.428  0.00  0.00     0.005 C 
BRANCH  18  19
ATOM     19  C   UNL d   1     -46.110  14.604  22.674  0.00  0.00     0.000 C 
ATOM     20  C   UNL d   1     -46.467  15.301  22.430  0.00  0.00     0.000 C 
ENDBRANCH  18  19
ENDBRANCH   5  18
BRANCH   3  21
ATOM     21  C   UNL d   1     -44.759  11.106  23.218  0.00  0.00     0.036 A 
ATOM     22  C   UNL d   1     -45.172  10.453  23.499  0.00  0.00     0.003 A 
ATOM     23  C   UNL d   1     -44.773   9.760  23.698  0.00  0.00     0.000 A 
ATOM     24  C   UNL d   1     -43.941   9.723  23.611  0.00  0.00     0.000 A 
ATOM     25  C   UNL d   1     -43.528  10.375  23.329  0.00  0.00     0.000 A 
ATOM     26  C   UNL d   1     -43.943  11.072  23.131  0.00  0.00     0.003 A 
ENDBRANCH   3  21
TORSDOF 6
ENDMDL
MODEL 8
REMARK VINA RESULT:      -1.6      7.079      9.001
REMARK  6 active torsions:
REMARK  status: ('A' for Active; 'I' for Inactive)
REMARK    1  A    between atoms: N_7  and  C_1 
REMARK    2  A    between atoms: C_10  and  C_3 
REMARK    3  A    between atoms: C_17  and  C_5 
REMARK    4  A    between atoms: C_12  and  N_7 
REMARK    5  A    between atoms: C_8  and  C_9 
REMARK    6  A    between atoms: C_13  and  C_17 
ROOT
ATOM      1  C   UNL d   1     -48.031  14.034  22.791  0.00  0.00     0.165 A 
ATOM      2  N   UNL d   1     -48.481  13.354  22.958  0.00  0.00    -0.208 NA
ATOM      3  C   UNL d   1     -49.276  13.422  23.181  0.00  0.00     0.164 A 
ATOM      4  N   UNL d   1     -49.625  14.170  23.240  0.00  0.00    -0.227 NA
ATOM      5  C   UNL d   1     -48.387  14.778  22.852  0.00  0.00     0.054 A 
ATOM      6  C   UNL d   1     -49.174  14.837  23.074  0.00  0.00     0.086 A 
ATOM      7  C   UNL d   1     -49.524  15.588  23.132  0.00  0.00     0.021 C 
ENDROOT
BRANCH   1   8
ATOM      8  N   UNL d   1     -47.240  13.964  22.569  0.00  0.00    -0.227 NA
BRANCH   8   9
ATOM      9  C   UNL d   1     -46.806  13.281  22.776  0.00  0.00     0.083 A 
ATOM     10  C   UNL d   1     -46.411  13.256  23.483  0.00  0.00     0.019 A 
ATOM     11  C   UNL d   1     -45.979  12.576  23.689  0.00  0.00     0.008 A 
ATOM     12  C   UNL d   1     -45.958  11.933  23.171  0.00  0.00     0.065 A 
ATOM     13  C   UNL d   1     -46.359  11.962  22.458  0.00  0.00     0.008 A 
ATOM     14  C   UNL d   1     -46.788  12.639  22.253  0.00  0.00     0.019 A 
BRANCH  12  15
ATOM     15  C   UNL d   1     -45.527  11.253  23.377  0.00  0.00     0.211 C 
ATOM     16  O   UNL d   1     -44.709  11.236  23.274  0.00  0.00    -0.644 OA
ATOM     17  O   UNL d   1     -45.912  10.596  23.682  0.00  0.00    -0.644 OA
ENDBRANCH  12  15
ENDBRANCH   8   9
ENDBRANCH   1   8
BRANCH   5  18
ATOM     18  C   UNL d   1     -47.949  15.453  22.689  0.00  0.00     0.005 C 
BRANCH  18  19
ATOM     19  C   UNL d   1     -47.926  15.772  21.938  0.00  0.00     0.000 C 
ATOM     20  C   UNL d   1     -47.218  15.905  21.543  0.00  0.00     0.000 C 
ENDBRANCH  18  19
ENDBRANCH   5  18
BRANCH   3  21
ATOM     21  C   UNL d   1     -49.719  12.746  23.346  0.00  0.00     0.036 A 
ATOM     22  C   UNL d   1     -49.339  12.038  23.521  0.00  0.00     0.003 A 
ATOM     23  C   UNL d   1     -49.776  11.359  23.686  0.00  0.00     0.000 A 
ATOM     24  C   UNL d   1     -50.613  11.393  23.674  0.00  0.00     0.000 A 
ATOM     25  C   UNL d   1     -50.992  12.101  23.499  0.00  0.00     0.000 A 
ATOM     26  C   UNL d   1     -50.539  12.783  23.333  0.00  0.00     0.003 A 
ENDBRANCH   3  21
TORSDOF 6
ENDMDL
