MODEL 1
REMARK VINA RESULT:      -2.8      0.000      0.000
REMARK  3 active torsions:
REMARK  status: ('A' for Active; 'I' for Inactive)
REMARK    1  A    between atoms: N_7  and  C_1 
REMARK    2  A    between atoms: N_10  and  N_7 
REMARK    3  A    between atoms: C_17  and  N_10 
ROOT
ATOM      1  N   UNL d   1      32.583  20.424 -22.175  0.00  0.00    -0.148 NA
ENDROOT
BRANCH   1   2
ATOM      2  N   UNL d   1      33.241  19.992 -22.459  0.00  0.00    -0.138 NA
BRANCH   2   3
ATOM      3  C   UNL d   1      33.138  19.481 -23.069  0.00  0.00     0.218 A 
ATOM      4  C   UNL d   1      33.134  19.727 -23.822  0.00  0.00     0.307 A 
ATOM      5  N   UNL d   1      33.028  19.192 -24.428  0.00  0.00    -0.150 NA
ATOM      6  O   UNL d   1      33.241  20.541 -23.987  0.00  0.00    -0.263 OA
ATOM      7  C   UNL d   1      32.927  18.435 -24.308  0.00  0.00     0.374 A 
ATOM      8  N   UNL d   1      32.927  18.158 -23.525  0.00  0.00    -0.150 NA
ATOM      9  O   UNL d   1      32.820  17.916 -24.965  0.00  0.00    -0.242 OA
ATOM     10  C   UNL d   1      33.031  18.666 -22.904  0.00  0.00     0.307 A 
ATOM     11  O   UNL d   1      33.030  18.378 -22.123  0.00  0.00    -0.263 OA
ENDBRANCH   2   3
ENDBRANCH   1   2
BRANCH   1  12
ATOM     12  C   UNL d   1      32.698  20.962 -21.550  0.00  0.00     0.105 A 
ATOM     13  C   UNL d   1      32.331  21.684 -21.640  0.00  0.00     0.048 A 
ATOM     14  C   UNL d   1      32.415  22.251 -21.046  0.00  0.00     0.124 A 
ATOM     15  O   UNL d   1      32.048  22.974 -21.136  0.00  0.00    -0.301 OA
ATOM     16  C   UNL d   1      32.872  22.084 -20.362  0.00  0.00     0.123 A 
ATOM     17  C   UNL d   1      32.132  23.540 -20.543  0.00  0.00     0.149 A 
ATOM     18  C   UNL d   1      32.589  23.373 -19.858  0.00  0.00     0.149 A 
ATOM     19  O   UNL d   1      32.956  22.641 -19.776  0.00  0.00    -0.301 OA
ATOM     20  C   UNL d   1      33.239  21.352 -20.280  0.00  0.00     0.028 A 
ATOM     21  C   UNL d   1      33.155  20.795 -20.865  0.00  0.00     0.023 A 
ENDBRANCH   1  12
TORSDOF 3
ENDMDL
MODEL 2
REMARK VINA RESULT:      -2.5      1.466      4.925
REMARK  3 active torsions:
REMARK  status: ('A' for Active; 'I' for Inactive)
REMARK    1  A    between atoms: N_7  and  C_1 
REMARK    2  A    between atoms: N_10  and  N_7 
REMARK    3  A    between atoms: C_17  and  N_10 
ROOT
ATOM      1  N   UNL d   1      32.532  19.107 -22.857  0.00  0.00    -0.148 NA
ENDROOT
BRANCH   1   2
ATOM      2  N   UNL d   1      33.240  19.511 -22.665  0.00  0.00    -0.138 NA
BRANCH   2   3
ATOM      3  C   UNL d   1      33.195  20.239 -22.331  0.00  0.00     0.218 A 
ATOM      4  C   UNL d   1      33.154  20.335 -21.545  0.00  0.00     0.307 A 
ATOM      5  N   UNL d   1      33.109  21.083 -21.225  0.00  0.00    -0.150 NA
ATOM      6  O   UNL d   1      33.158  19.660 -21.050  0.00  0.00    -0.263 OA
ATOM      7  C   UNL d   1      33.103  21.725 -21.656  0.00  0.00     0.374 A 
ATOM      8  N   UNL d   1      33.145  21.645 -22.482  0.00  0.00    -0.150 NA
ATOM      9  O   UNL d   1      33.055  22.481 -21.283  0.00  0.00    -0.242 OA
ATOM     10  C   UNL d   1      33.191  20.915 -22.827  0.00  0.00     0.307 A 
ATOM     11  O   UNL d   1      33.233  20.845 -23.655  0.00  0.00    -0.263 OA
ENDBRANCH   2   3
ENDBRANCH   1   2
BRANCH   1  12
ATOM     12  C   UNL d   1      32.583  18.335 -23.164  0.00  0.00     0.105 A 
ATOM     13  C   UNL d   1      31.993  18.128 -23.687  0.00  0.00     0.048 A 
ATOM     14  C   UNL d   1      32.001  17.373 -24.018  0.00  0.00     0.124 A 
ATOM     15  O   UNL d   1      31.410  17.166 -24.541  0.00  0.00    -0.301 OA
ATOM     16  C   UNL d   1      32.607  16.827 -23.817  0.00  0.00     0.123 A 
ATOM     17  C   UNL d   1      31.418  16.410 -24.872  0.00  0.00     0.149 A 
ATOM     18  C   UNL d   1      32.025  15.865 -24.672  0.00  0.00     0.149 A 
ATOM     19  O   UNL d   1      32.616  16.082 -24.143  0.00  0.00    -0.301 OA
ATOM     20  C   UNL d   1      33.198  17.045 -23.288  0.00  0.00     0.028 A 
ATOM     21  C   UNL d   1      33.189  17.789 -22.963  0.00  0.00     0.023 A 
ENDBRANCH   1  12
TORSDOF 3
ENDMDL
MODEL 3
REMARK VINA RESULT:      -2.5      1.295      4.720
REMARK  3 active torsions:
REMARK  status: ('A' for Active; 'I' for Inactive)
REMARK    1  A    between atoms: N_7  and  C_1 
REMARK    2  A    between atoms: N_10  and  N_7 
REMARK    3  A    between atoms: C_17  and  N_10 
ROOT
ATOM      1  N   UNL d   1      33.240  20.757 -21.929  0.00  0.00    -0.148 NA
ENDROOT
BRANCH   1   2
ATOM      2  N   UNL d   1      32.553  21.220 -21.813  0.00  0.00    -0.138 NA
BRANCH   2   3
ATOM      3  C   UNL d   1      32.578  21.830 -21.292  0.00  0.00     0.218 A 
ATOM      4  C   UNL d   1      32.490  21.716 -20.513  0.00  0.00     0.307 A 
ATOM      5  N   UNL d   1      32.519  22.348 -20.000  0.00  0.00    -0.150 NA
ATOM      6  O   UNL d   1      32.368  20.939 -20.224  0.00  0.00    -0.263 OA
ATOM      7  C   UNL d   1      32.630  23.076 -20.235  0.00  0.00     0.374 A 
ATOM      8  N   UNL d   1      32.724  23.216 -21.048  0.00  0.00    -0.150 NA
ATOM      9  O   UNL d   1      32.653  23.702 -19.669  0.00  0.00    -0.242 OA
ATOM     10  C   UNL d   1      32.700  22.607 -21.580  0.00  0.00     0.307 A 
ATOM     11  O   UNL d   1      32.795  22.758 -22.393  0.00  0.00    -0.263 OA
ENDBRANCH   2   3
ENDBRANCH   1   2
BRANCH   1  12
ATOM     12  C   UNL d   1      33.230  20.167 -22.517  0.00  0.00     0.105 A 
ATOM     13  C   UNL d   1      33.208  19.401 -22.242  0.00  0.00     0.048 A 
ATOM     14  C   UNL d   1      33.196  18.782 -22.787  0.00  0.00     0.124 A 
ATOM     15  O   UNL d   1      33.174  18.014 -22.512  0.00  0.00    -0.301 OA
ATOM     16  C   UNL d   1      33.207  18.942 -23.612  0.00  0.00     0.123 A 
ATOM     17  C   UNL d   1      33.162  17.395 -23.057  0.00  0.00     0.149 A 
ATOM     18  C   UNL d   1      33.173  17.555 -23.881  0.00  0.00     0.149 A 
ATOM     19  O   UNL d   1      33.196  18.332 -24.150  0.00  0.00    -0.301 OA
ATOM     20  C   UNL d   1      33.229  19.719 -23.880  0.00  0.00     0.028 A 
ATOM     21  C   UNL d   1      33.241  20.327 -23.342  0.00  0.00     0.023 A 
ENDBRANCH   1  12
TORSDOF 3
ENDMDL
MODEL 4
REMARK VINA RESULT:      -2.2      1.307      2.046
REMARK  3 active torsions:
REMARK  status: ('A' for Active; 'I' for Inactive)
REMARK    1  A    between atoms: N_7  and  C_1 
REMARK    2  A    between atoms: N_10  and  N_7 
REMARK    3  A    between atoms: C_17  and  N_10 
ROOT
ATOM      1  N   UNL d   1      33.241  19.065 -22.911  0.00  0.00    -0.148 NA
ENDROOT
BRANCH   1   2
ATOM      2  N   UNL d   1      32.518  18.683 -23.091  0.00  0.00    -0.138 NA
BRANCH   2   3
ATOM      3  C   UNL d   1      32.526  18.046 -23.579  0.00  0.00     0.218 A 
ATOM      4  C   UNL d   1      32.861  17.361 -23.365  0.00  0.00     0.307 A 
ATOM      5  N   UNL d   1      32.858  16.725 -23.875  0.00  0.00    -0.150 NA
ATOM      6  O   UNL d   1      33.217  17.298 -22.609  0.00  0.00    -0.263 OA
ATOM      7  C   UNL d   1      32.538  16.752 -24.578  0.00  0.00     0.374 A 
ATOM      8  N   UNL d   1      32.181  17.462 -24.821  0.00  0.00    -0.150 NA
ATOM      9  O   UNL d   1      32.557  16.070 -25.075  0.00  0.00    -0.242 OA
ATOM     10  C   UNL d   1      32.170  18.109 -24.335  0.00  0.00     0.307 A 
ATOM     11  O   UNL d   1      31.810  18.815 -24.588  0.00  0.00    -0.263 OA
ENDBRANCH   2   3
ENDBRANCH   1   2
BRANCH   1  12
ATOM     12  C   UNL d   1      33.221  19.765 -22.461  0.00  0.00     0.105 A 
ATOM     13  C   UNL d   1      33.240  20.457 -22.891  0.00  0.00     0.048 A 
ATOM     14  C   UNL d   1      33.222  21.177 -22.489  0.00  0.00     0.124 A 
ATOM     15  O   UNL d   1      33.241  21.870 -22.919  0.00  0.00    -0.301 OA
ATOM     16  C   UNL d   1      33.185  21.194 -21.650  0.00  0.00     0.123 A 
ATOM     17  C   UNL d   1      33.223  22.590 -22.517  0.00  0.00     0.149 A 
ATOM     18  C   UNL d   1      33.187  22.607 -21.678  0.00  0.00     0.149 A 
ATOM     19  O   UNL d   1      33.168  21.903 -21.252  0.00  0.00    -0.301 OA
ATOM     20  C   UNL d   1      33.167  20.490 -21.224  0.00  0.00     0.028 A 
ATOM     21  C   UNL d   1      33.184  19.782 -21.621  0.00  0.00     0.023 A 
ENDBRANCH   1  12
TORSDOF 3
ENDMDL
MODEL 5
REMARK VINA RESULT:      -0.1      1.938      3.124
REMARK  3 active torsions:
REMARK  status: ('A' for Active; 'I' for Inactive)
REMARK    1  A    between atoms: N_7  and  C_1 
REMARK    2  A    between atoms: N_10  and  N_7 
REMARK    3  A    between atoms: C_17  and  N_10 
ROOT
ATOM      1  N   UNL d   1      32.589  21.767 -19.899  0.00  0.00    -0.148 NA
ENDROOT
BRANCH   1   2
ATOM      2  N   UNL d   1      33.192  21.665 -20.470  0.00  0.00    -0.138 NA
BRANCH   2   3
ATOM      3  C   UNL d   1      33.049  21.199 -21.108  0.00  0.00     0.218 A 
ATOM      4  C   UNL d   1      33.050  20.408 -21.054  0.00  0.00     0.307 A 
ATOM      5  N   UNL d   1      32.903  19.952 -21.712  0.00  0.00    -0.150 NA
ATOM      6  O   UNL d   1      33.203  20.049 -20.313  0.00  0.00    -0.263 OA
ATOM      7  C   UNL d   1      32.758  20.253 -22.409  0.00  0.00     0.374 A 
ATOM      8  N   UNL d   1      32.753  21.080 -22.486  0.00  0.00    -0.150 NA
ATOM      9  O   UNL d   1      32.611  19.743 -23.066  0.00  0.00    -0.242 OA
ATOM     10  C   UNL d   1      32.896  21.558 -21.849  0.00  0.00     0.307 A 
ATOM     11  O   UNL d   1      32.888  22.385 -21.937  0.00  0.00    -0.263 OA
ENDBRANCH   2   3
ENDBRANCH   1   2
BRANCH   1  12
ATOM     12  C   UNL d   1      32.730  22.279 -19.256  0.00  0.00     0.105 A 
ATOM     13  C   UNL d   1      32.811  21.914 -18.533  0.00  0.00     0.048 A 
ATOM     14  C   UNL d   1      32.952  22.379 -17.866  0.00  0.00     0.124 A 
ATOM     15  O   UNL d   1      33.033  22.014 -17.141  0.00  0.00    -0.301 OA
ATOM     16  C   UNL d   1      33.011  23.214 -17.935  0.00  0.00     0.123 A 
ATOM     17  C   UNL d   1      33.174  22.479 -16.474  0.00  0.00     0.149 A 
ATOM     18  C   UNL d   1      33.232  23.314 -16.543  0.00  0.00     0.149 A 
ATOM     19  O   UNL d   1      33.149  23.673 -17.278  0.00  0.00    -0.301 OA
ATOM     20  C   UNL d   1      32.928  23.573 -18.670  0.00  0.00     0.028 A 
ATOM     21  C   UNL d   1      32.789  23.114 -19.326  0.00  0.00     0.023 A 
ENDBRANCH   1  12
TORSDOF 3
ENDMDL
MODEL 6
REMARK VINA RESULT:       0.1      2.291      5.282
REMARK  3 active torsions:
REMARK  status: ('A' for Active; 'I' for Inactive)
REMARK    1  A    between atoms: N_7  and  C_1 
REMARK    2  A    between atoms: N_10  and  N_7 
REMARK    3  A    between atoms: C_17  and  N_10 
ROOT
ATOM      1  N   UNL d   1      31.576  18.571 -23.858  0.00  0.00    -0.148 NA
ENDROOT
BRANCH   1   2
ATOM      2  N   UNL d   1      32.387  18.768 -23.809  0.00  0.00    -0.138 NA
BRANCH   2   3
ATOM      3  C   UNL d   1      32.596  19.535 -23.698  0.00  0.00     0.218 A 
ATOM      4  C   UNL d   1      32.732  20.022 -24.308  0.00  0.00     0.307 A 
ATOM      5  N   UNL d   1      32.943  20.798 -24.175  0.00  0.00    -0.150 NA
ATOM      6  O   UNL d   1      32.657  19.730 -25.089  0.00  0.00    -0.263 OA
ATOM      7  C   UNL d   1      33.021  21.097 -23.466  0.00  0.00     0.374 A 
ATOM      8  N   UNL d   1      32.882  20.602 -22.814  0.00  0.00    -0.150 NA
ATOM      9  O   UNL d   1      33.241  21.907 -23.373  0.00  0.00    -0.242 OA
ATOM     10  C   UNL d   1      32.671  19.828 -22.916  0.00  0.00     0.307 A 
ATOM     11  O   UNL d   1      32.535  19.341 -22.256  0.00  0.00    -0.263 OA
ENDBRANCH   2   3
ENDBRANCH   1   2
BRANCH   1  12
ATOM     12  C   UNL d   1      31.364  17.816 -24.140  0.00  0.00     0.105 A 
ATOM     13  C   UNL d   1      30.567  17.701 -24.262  0.00  0.00     0.048 A 
ATOM     14  C   UNL d   1      30.308  16.969 -24.541  0.00  0.00     0.124 A 
ATOM     15  O   UNL d   1      29.510  16.853 -24.663  0.00  0.00    -0.301 OA
ATOM     16  C   UNL d   1      30.860  16.354 -24.695  0.00  0.00     0.123 A 
ATOM     17  C   UNL d   1      29.252  16.121 -24.942  0.00  0.00     0.149 A 
ATOM     18  C   UNL d   1      29.803  15.506 -25.096  0.00  0.00     0.149 A 
ATOM     19  O   UNL d   1      30.606  15.632 -24.970  0.00  0.00    -0.301 OA
ATOM     20  C   UNL d   1      31.663  16.480 -24.569  0.00  0.00     0.028 A 
ATOM     21  C   UNL d   1      31.916  17.202 -24.295  0.00  0.00     0.023 A 
ENDBRANCH   1  12
TORSDOF 3
ENDMDL
