MODEL 1
REMARK VINA RESULT:      -2.3      0.000      0.000
REMARK  3 active torsions:
REMARK  status: ('A' for Active; 'I' for Inactive)
REMARK    1  A    between atoms: C_9  and  C_2 
REMARK    2  A    between atoms: C_10  and  C_6 
REMARK    3  A    between atoms: O_18  and  C_9 
ROOT
ATOM      1  C   UNL d   1      58.658  -0.538  30.098  0.00  0.00     0.044 A 
ATOM      2  C   UNL d   1      57.697  -0.211  30.984  0.00  0.00     0.113 A 
ATOM      3  C   UNL d   1      57.960  -0.803  30.472  0.00  0.00     0.116 A 
ATOM      4  C   UNL d   1      58.825   0.226  30.384  0.00  0.00     0.112 A 
ATOM      5  S   UNL d   1      58.228   0.427  30.933  0.00  0.00    -0.061 SA
ATOM      6  C   UNL d   1      59.156  -0.882  29.546  0.00  0.00     0.011 A 
ATOM      7  N   UNL d   1      59.479   0.625  30.115  0.00  0.00    -0.239 NA
ATOM      8  C   UNL d   1      59.813  -0.475  29.279  0.00  0.00     0.018 A 
ATOM      9  C   UNL d   1      59.976   0.275  29.560  0.00  0.00     0.082 A 
ATOM     10  N   UNL d   1      57.596  -1.532  30.350  0.00  0.00    -0.147 N 
ATOM     11  C   UNL d   1      60.308  -0.833  28.721  0.00  0.00     0.002 A 
ATOM     12  C   UNL d   1      60.638   0.681  29.288  0.00  0.00     0.019 A 
ATOM     13  C   UNL d   1      60.968  -0.418  28.455  0.00  0.00     0.000 A 
ATOM     14  C   UNL d   1      61.133   0.339  28.739  0.00  0.00     0.002 A 
ENDROOT
BRANCH   6  15
ATOM     15  C   UNL d   1      58.985  -1.638  29.267  0.00  0.00     0.030 A 
ATOM     16  S   UNL d   1      58.507  -1.830  28.621  0.00  0.00    -0.086 SA
ATOM     17  C   UNL d   1      58.498  -2.653  28.552  0.00  0.00     0.035 A 
ATOM     18  C   UNL d   1      58.967  -2.972  29.152  0.00  0.00     0.007 A 
ATOM     19  C   UNL d   1      59.268  -2.343  29.594  0.00  0.00     0.007 A 
ENDBRANCH   6  15
BRANCH   2  20
ATOM     20  C   UNL d   1      57.026  -0.244  31.462  0.00  0.00     0.303 C 
ATOM     21  O   UNL d   1      56.730  -0.971  31.709  0.00  0.00    -0.259 OA
BRANCH  20  22
ATOM     22  O   UNL d   1      56.656   0.452  31.689  0.00  0.00    -0.295 OA
ATOM     23  C   UNL d   1      56.176   0.458  32.360  0.00  0.00     0.185 C 
ENDBRANCH  20  22
ENDBRANCH   2  20
TORSDOF 3
ENDMDL
MODEL 2
REMARK VINA RESULT:      -1.6      1.896      3.670
REMARK  3 active torsions:
REMARK  status: ('A' for Active; 'I' for Inactive)
REMARK    1  A    between atoms: C_9  and  C_2 
REMARK    2  A    between atoms: C_10  and  C_6 
REMARK    3  A    between atoms: O_18  and  C_9 
ROOT
ATOM      1  C   UNL d   1      58.637  -1.466  29.666  0.00  0.00     0.044 A 
ATOM      2  C   UNL d   1      58.886  -2.701  29.187  0.00  0.00     0.113 A 
ATOM      3  C   UNL d   1      59.104  -1.907  29.132  0.00  0.00     0.116 A 
ATOM      4  C   UNL d   1      58.126  -1.997  30.054  0.00  0.00     0.112 A 
ATOM      5  S   UNL d   1      58.281  -2.762  29.756  0.00  0.00    -0.061 SA
ATOM      6  C   UNL d   1      58.607  -0.668  29.850  0.00  0.00     0.011 A 
ATOM      7  N   UNL d   1      57.603  -1.721  30.610  0.00  0.00    -0.239 NA
ATOM      8  C   UNL d   1      58.078  -0.397  30.410  0.00  0.00     0.018 A 
ATOM      9  C   UNL d   1      57.577  -0.918  30.791  0.00  0.00     0.082 A 
ATOM     10  N   UNL d   1      59.684  -1.599  28.634  0.00  0.00    -0.147 N 
ATOM     11  C   UNL d   1      58.058   0.411  30.587  0.00  0.00     0.002 A 
ATOM     12  C   UNL d   1      57.046  -0.642  31.355  0.00  0.00     0.019 A 
ATOM     13  C   UNL d   1      57.523   0.678  31.153  0.00  0.00     0.000 A 
ATOM     14  C   UNL d   1      57.017   0.152  31.537  0.00  0.00     0.002 A 
ENDROOT
BRANCH   6  15
ATOM     15  C   UNL d   1      59.115  -0.148  29.462  0.00  0.00     0.030 A 
ATOM     16  S   UNL d   1      58.993   0.206  28.725  0.00  0.00    -0.086 SA
ATOM     17  C   UNL d   1      59.649   0.680  28.564  0.00  0.00     0.035 A 
ATOM     18  C   UNL d   1      60.177   0.622  29.195  0.00  0.00     0.007 A 
ATOM     19  C   UNL d   1      59.846   0.109  29.751  0.00  0.00     0.007 A 
ENDBRANCH   6  15
BRANCH   2  20
ATOM     20  C   UNL d   1      59.208  -3.326  28.756  0.00  0.00     0.303 C 
ATOM     21  O   UNL d   1      59.974  -3.271  28.459  0.00  0.00    -0.259 OA
BRANCH  20  22
ATOM     22  O   UNL d   1      58.761  -4.001  28.625  0.00  0.00    -0.295 OA
ATOM     23  C   UNL d   1      59.140  -4.714  28.457  0.00  0.00     0.185 C 
ENDBRANCH  20  22
ENDBRANCH   2  20
TORSDOF 3
ENDMDL
MODEL 3
REMARK VINA RESULT:      -0.4      1.556      2.040
REMARK  3 active torsions:
REMARK  status: ('A' for Active; 'I' for Inactive)
REMARK    1  A    between atoms: C_9  and  C_2 
REMARK    2  A    between atoms: C_10  and  C_6 
REMARK    3  A    between atoms: O_18  and  C_9 
ROOT
ATOM      1  C   UNL d   1      58.204   0.286  31.292  0.00  0.00     0.044 A 
ATOM      2  C   UNL d   1      57.101   0.235  32.065  0.00  0.00     0.113 A 
ATOM      3  C   UNL d   1      57.376   0.172  31.289  0.00  0.00     0.116 A 
ATOM      4  C   UNL d   1      58.438   0.421  32.080  0.00  0.00     0.112 A 
ATOM      5  S   UNL d   1      57.753   0.389  32.558  0.00  0.00    -0.061 SA
ATOM      6  C   UNL d   1      58.766   0.286  30.697  0.00  0.00     0.011 A 
ATOM      7  N   UNL d   1      59.220   0.551  32.252  0.00  0.00    -0.239 NA
ATOM      8  C   UNL d   1      59.552   0.418  30.877  0.00  0.00     0.018 A 
ATOM      9  C   UNL d   1      59.782   0.550  31.650  0.00  0.00     0.082 A 
ATOM     10  N   UNL d   1      56.914   0.021  30.624  0.00  0.00    -0.147 N 
ATOM     11  C   UNL d   1      60.110   0.415  30.266  0.00  0.00     0.002 A 
ATOM     12  C   UNL d   1      60.574   0.682  31.827  0.00  0.00     0.019 A 
ATOM     13  C   UNL d   1      60.901   0.548  30.453  0.00  0.00     0.000 A 
ATOM     14  C   UNL d   1      61.133   0.682  31.233  0.00  0.00     0.002 A 
ENDROOT
BRANCH   6  15
ATOM     15  C   UNL d   1      58.526   0.152  29.920  0.00  0.00     0.030 A 
ATOM     16  S   UNL d   1      58.682  -0.519  29.463  0.00  0.00    -0.086 SA
ATOM     17  C   UNL d   1      58.333  -0.405  28.723  0.00  0.00     0.035 A 
ATOM     18  C   UNL d   1      57.962   0.332  28.719  0.00  0.00     0.007 A 
ATOM     19  C   UNL d   1      58.082   0.676  29.460  0.00  0.00     0.007 A 
ENDBRANCH   6  15
BRANCH   2  20
ATOM     20  C   UNL d   1      56.317   0.159  32.311  0.00  0.00     0.303 C 
ATOM     21  O   UNL d   1      55.744   0.681  32.033  0.00  0.00    -0.259 OA
BRANCH  20  22
ATOM     22  O   UNL d   1      56.112  -0.439  32.833  0.00  0.00    -0.295 OA
ATOM     23  C   UNL d   1      55.451  -0.348  33.318  0.00  0.00     0.185 C 
ENDBRANCH  20  22
ENDBRANCH   2  20
TORSDOF 3
ENDMDL
