MODEL 1
REMARK VINA RESULT:      -6.6      0.000      0.000
REMARK  9 active torsions:
REMARK  status: ('A' for Active; 'I' for Inactive)
REMARK    1  A    between atoms: P_2  and  C_1 
REMARK    2  A    between atoms: O_8  and  P_2 
REMARK    3  A    between atoms: O_9  and  P_2 
REMARK    4  A    between atoms: N_10  and  C_4 
REMARK    5  A    between atoms: C_24  and  O_8 
REMARK    6  A    between atoms: C_23  and  O_9 
REMARK    7  A    between atoms: C_15  and  N_10 
REMARK    8  A    between atoms: O_25  and  C_16 
REMARK    9  A    between atoms: O_26  and  C_17 
ROOT
ATOM      1  C   UNL d   1      53.506  33.321  54.208  0.00  0.00     0.174 A 
ATOM      2  C   UNL d   1      53.074  33.444  53.509  0.00  0.00     0.100 A 
ATOM      3  C   UNL d   1      52.806  32.798  53.071  0.00  0.00     0.095 A 
ATOM      4  N   UNL d   1      53.666  32.554  54.463  0.00  0.00    -0.237 NA
ATOM      5  C   UNL d   1      52.966  32.034  53.328  0.00  0.00     0.038 A 
ATOM      6  C   UNL d   1      53.398  31.911  54.027  0.00  0.00     0.083 A 
ATOM      7  C   UNL d   1      52.699  31.396  52.891  0.00  0.00     0.027 A 
ATOM      8 CL   UNL d   1      52.915  34.217  53.254  0.00  0.00    -0.079 Cl
ATOM      9  C   UNL d   1      53.558  31.147  54.282  0.00  0.00     0.021 A 
ATOM     10  C   UNL d   1      52.858  30.620  53.146  0.00  0.00     0.094 A 
ATOM     11  C   UNL d   1      53.290  30.497  53.845  0.00  0.00     0.026 A 
ENDROOT
BRANCH   1  12
ATOM     12  P   UNL d   1      53.777  33.971  54.650  0.00  0.00     0.392 P 
ATOM     13  O   UNL d   1      53.075  33.958  55.085  0.00  0.00    -0.251 OA
BRANCH  12  14
ATOM     14  O   UNL d   1      54.522  34.138  54.332  0.00  0.00    -0.265 OA
BRANCH  14  15
ATOM     15  C   UNL d   1      55.210  33.917  54.744  0.00  0.00     0.103 C 
ATOM     16  C   UNL d   1      55.167  33.682  55.531  0.00  0.00     0.027 C 
ATOM     17  C   UNL d   1      55.938  33.935  54.354  0.00  0.00     0.027 C 
ENDBRANCH  14  15
ENDBRANCH  12  14
BRANCH  12  18
ATOM     18  O   UNL d   1      54.070  34.614  55.071  0.00  0.00    -0.265 OA
BRANCH  18  19
ATOM     19  C   UNL d   1      53.567  35.225  55.301  0.00  0.00     0.103 C 
ATOM     20  C   UNL d   1      53.362  35.818  54.766  0.00  0.00     0.027 C 
ATOM     21  C   UNL d   1      53.267  35.241  56.068  0.00  0.00     0.027 C 
ENDBRANCH  18  19
ENDBRANCH  12  18
ENDBRANCH   1  12
BRANCH   3  22
ATOM     22  N   UNL d   1      52.377  32.921  52.375  0.00  0.00    -0.245 NA
BRANCH  22  23
ATOM     23  C   UNL d   1      51.651  33.322  52.395  0.00  0.00     0.082 A 
ATOM     24  C   UNL d   1      51.554  34.005  51.950  0.00  0.00     0.021 A 
ATOM     25  C   UNL d   1      50.830  34.415  51.962  0.00  0.00     0.026 A 
ATOM     26  C   UNL d   1      50.214  34.121  52.429  0.00  0.00     0.094 A 
ATOM     27  C   UNL d   1      50.313  33.434  52.876  0.00  0.00     0.026 A 
ATOM     28  C   UNL d   1      51.033  33.035  52.857  0.00  0.00     0.021 A 
BRANCH  26  29
ATOM     29  O   UNL d   1      49.490  34.531  52.441  0.00  0.00    -0.328 OA
ATOM     30  C   UNL d   1      49.371  35.130  53.005  0.00  0.00     0.181 C 
ENDBRANCH  26  29
ENDBRANCH  22  23
ENDBRANCH   3  22
BRANCH  10  31
ATOM     31  O   UNL d   1      52.590  29.978  52.708  0.00  0.00    -0.328 OA
ATOM     32  C   UNL d   1      52.486  29.249  53.074  0.00  0.00     0.181 C 
ENDBRANCH  10  31
TORSDOF 9
ENDMDL
MODEL 2
REMARK VINA RESULT:      -5.7      0.912      3.339
REMARK  9 active torsions:
REMARK  status: ('A' for Active; 'I' for Inactive)
REMARK    1  A    between atoms: P_2  and  C_1 
REMARK    2  A    between atoms: O_8  and  P_2 
REMARK    3  A    between atoms: O_9  and  P_2 
REMARK    4  A    between atoms: N_10  and  C_4 
REMARK    5  A    between atoms: C_24  and  O_8 
REMARK    6  A    between atoms: C_23  and  O_9 
REMARK    7  A    between atoms: C_15  and  N_10 
REMARK    8  A    between atoms: O_25  and  C_16 
REMARK    9  A    between atoms: O_26  and  C_17 
ROOT
ATOM      1  C   UNL d   1      52.926  33.907  54.031  0.00  0.00     0.174 A 
ATOM      2  C   UNL d   1      53.039  33.269  53.511  0.00  0.00     0.100 A 
ATOM      3  C   UNL d   1      52.453  33.075  52.963  0.00  0.00     0.095 A 
ATOM      4  N   UNL d   1      52.228  34.345  53.998  0.00  0.00    -0.237 NA
ATOM      5  C   UNL d   1      51.758  33.513  52.933  0.00  0.00     0.038 A 
ATOM      6  C   UNL d   1      51.645  34.151  53.453  0.00  0.00     0.083 A 
ATOM      7  C   UNL d   1      51.180  33.318  52.388  0.00  0.00     0.027 A 
ATOM      8 CL   UNL d   1      53.741  32.830  53.545  0.00  0.00    -0.079 Cl
ATOM      9  C   UNL d   1      50.951  34.588  53.422  0.00  0.00     0.021 A 
ATOM     10  C   UNL d   1      50.474  33.758  52.353  0.00  0.00     0.094 A 
ATOM     11  C   UNL d   1      50.361  34.396  52.873  0.00  0.00     0.026 A 
ENDROOT
BRANCH   1  12
ATOM     12  P   UNL d   1      53.515  34.104  54.583  0.00  0.00     0.392 P 
ATOM     13  O   UNL d   1      53.348  33.409  54.997  0.00  0.00    -0.251 OA
BRANCH  12  14
ATOM     14  O   UNL d   1      53.816  34.824  54.312  0.00  0.00    -0.265 OA
BRANCH  14  15
ATOM     15  C   UNL d   1      53.589  35.536  54.677  0.00  0.00     0.103 C 
ATOM     16  C   UNL d   1      53.234  35.529  55.419  0.00  0.00     0.027 C 
ATOM     17  C   UNL d   1      53.722  36.252  54.286  0.00  0.00     0.027 C 
ENDBRANCH  14  15
ENDBRANCH  12  14
BRANCH  12  18
ATOM     18  O   UNL d   1      54.104  34.324  55.114  0.00  0.00    -0.265 OA
BRANCH  18  19
ATOM     19  C   UNL d   1      54.666  33.775  55.361  0.00  0.00     0.103 C 
ATOM     20  C   UNL d   1      54.479  33.218  55.939  0.00  0.00     0.027 C 
ATOM     21  C   UNL d   1      55.419  33.783  55.027  0.00  0.00     0.027 C 
ENDBRANCH  18  19
ENDBRANCH  12  18
ENDBRANCH   1  12
BRANCH   3  22
ATOM     22  N   UNL d   1      52.566  32.440  52.446  0.00  0.00    -0.245 NA
BRANCH  22  23
ATOM     23  C   UNL d   1      52.616  31.665  52.736  0.00  0.00     0.082 A 
ATOM     24  C   UNL d   1      53.328  31.258  52.683  0.00  0.00     0.021 A 
ATOM     25  C   UNL d   1      53.389  30.481  52.972  0.00  0.00     0.026 A 
ATOM     26  C   UNL d   1      52.722  30.128  53.311  0.00  0.00     0.094 A 
ATOM     27  C   UNL d   1      52.008  30.538  53.364  0.00  0.00     0.026 A 
ATOM     28  C   UNL d   1      51.957  31.308  53.076  0.00  0.00     0.021 A 
BRANCH  26  29
ATOM     29  O   UNL d   1      52.784  29.349  53.600  0.00  0.00    -0.328 OA
ATOM     30  C   UNL d   1      53.244  29.202  54.276  0.00  0.00     0.181 C 
ENDBRANCH  26  29
ENDBRANCH  22  23
ENDBRANCH   3  22
BRANCH  10  31
ATOM     31  O   UNL d   1      49.892  33.563  51.807  0.00  0.00    -0.328 OA
ATOM     32  C   UNL d   1      49.541  34.153  51.356  0.00  0.00     0.181 C 
ENDBRANCH  10  31
TORSDOF 9
ENDMDL
MODEL 3
REMARK VINA RESULT:      -5.3      1.329      3.665
REMARK  9 active torsions:
REMARK  status: ('A' for Active; 'I' for Inactive)
REMARK    1  A    between atoms: P_2  and  C_1 
REMARK    2  A    between atoms: O_8  and  P_2 
REMARK    3  A    between atoms: O_9  and  P_2 
REMARK    4  A    between atoms: N_10  and  C_4 
REMARK    5  A    between atoms: C_24  and  O_8 
REMARK    6  A    between atoms: C_23  and  O_9 
REMARK    7  A    between atoms: C_15  and  N_10 
REMARK    8  A    between atoms: O_25  and  C_16 
REMARK    9  A    between atoms: O_26  and  C_17 
ROOT
ATOM      1  C   UNL d   1      52.148  32.736  52.833  0.00  0.00     0.174 A 
ATOM      2  C   UNL d   1      52.966  32.818  52.955  0.00  0.00     0.100 A 
ATOM      3  C   UNL d   1      53.417  32.162  53.174  0.00  0.00     0.095 A 
ATOM      4  N   UNL d   1      51.789  32.000  52.932  0.00  0.00    -0.237 NA
ATOM      5  C   UNL d   1      53.057  31.430  53.272  0.00  0.00     0.038 A 
ATOM      6  C   UNL d   1      52.239  31.349  53.150  0.00  0.00     0.083 A 
ATOM      7  C   UNL d   1      53.508  30.783  53.489  0.00  0.00     0.027 A 
ATOM      8 CL   UNL d   1      53.326  33.558  52.855  0.00  0.00    -0.079 Cl
ATOM      9  C   UNL d   1      51.880  30.617  53.248  0.00  0.00     0.021 A 
ATOM     10  C   UNL d   1      53.149  30.039  53.590  0.00  0.00     0.094 A 
ATOM     11  C   UNL d   1      52.331  29.957  53.468  0.00  0.00     0.026 A 
ENDROOT
BRANCH   1  12
ATOM     12  P   UNL d   1      51.692  33.395  52.613  0.00  0.00     0.392 P 
ATOM     13  O   UNL d   1      51.526  33.028  51.892  0.00  0.00    -0.251 OA
BRANCH  12  14
ATOM     14  O   UNL d   1      51.746  33.906  53.260  0.00  0.00    -0.265 OA
BRANCH  14  15
ATOM     15  C   UNL d   1      51.063  34.117  53.684  0.00  0.00     0.103 C 
ATOM     16  C   UNL d   1      50.425  33.599  53.729  0.00  0.00     0.027 C 
ATOM     17  C   UNL d   1      51.030  34.852  54.061  0.00  0.00     0.027 C 
ENDBRANCH  14  15
ENDBRANCH  12  14
BRANCH  12  18
ATOM     18  O   UNL d   1      51.248  34.060  52.421  0.00  0.00    -0.265 OA
BRANCH  18  19
ATOM     19  C   UNL d   1      51.090  34.241  51.633  0.00  0.00     0.103 C 
ATOM     20  C   UNL d   1      51.682  34.556  51.152  0.00  0.00     0.027 C 
ATOM     21  C   UNL d   1      50.339  34.105  51.325  0.00  0.00     0.027 C 
ENDBRANCH  18  19
ENDBRANCH  12  18
ENDBRANCH   1  12
BRANCH   3  22
ATOM     22  N   UNL d   1      54.232  32.244  53.295  0.00  0.00    -0.245 NA
BRANCH  22  23
ATOM     23  C   UNL d   1      54.519  32.702  53.923  0.00  0.00     0.082 A 
ATOM     24  C   UNL d   1      55.079  33.284  53.776  0.00  0.00     0.021 A 
ATOM     25  C   UNL d   1      55.375  33.750  54.398  0.00  0.00     0.026 A 
ATOM     26  C   UNL d   1      55.093  33.615  55.164  0.00  0.00     0.094 A 
ATOM     27  C   UNL d   1      54.531  33.030  55.311  0.00  0.00     0.026 A 
ATOM     28  C   UNL d   1      54.244  32.573  54.688  0.00  0.00     0.021 A 
BRANCH  26  29
ATOM     29  O   UNL d   1      55.389  34.081  55.788  0.00  0.00    -0.328 OA
ATOM     30  C   UNL d   1      54.859  34.520  56.254  0.00  0.00     0.181 C 
ENDBRANCH  26  29
ENDBRANCH  22  23
ENDBRANCH   3  22
BRANCH  10  31
ATOM     31  O   UNL d   1      53.600  29.388  53.808  0.00  0.00    -0.328 OA
ATOM     32  C   UNL d   1      53.380  28.938  54.459  0.00  0.00     0.181 C 
ENDBRANCH  10  31
TORSDOF 9
ENDMDL
MODEL 4
REMARK VINA RESULT:      -4.9      1.305      4.158
REMARK  9 active torsions:
REMARK  status: ('A' for Active; 'I' for Inactive)
REMARK    1  A    between atoms: P_2  and  C_1 
REMARK    2  A    between atoms: O_8  and  P_2 
REMARK    3  A    between atoms: O_9  and  P_2 
REMARK    4  A    between atoms: N_10  and  C_4 
REMARK    5  A    between atoms: C_24  and  O_8 
REMARK    6  A    between atoms: C_23  and  O_9 
REMARK    7  A    between atoms: C_15  and  N_10 
REMARK    8  A    between atoms: O_25  and  C_16 
REMARK    9  A    between atoms: O_26  and  C_17 
ROOT
ATOM      1  C   UNL d   1      52.342  33.468  53.332  0.00  0.00     0.174 A 
ATOM      2  C   UNL d   1      52.772  32.776  53.168  0.00  0.00     0.100 A 
ATOM      3  C   UNL d   1      53.492  32.639  53.548  0.00  0.00     0.095 A 
ATOM      4  N   UNL d   1      52.635  34.016  53.874  0.00  0.00    -0.237 NA
ATOM      5  C   UNL d   1      53.781  33.187  54.088  0.00  0.00     0.038 A 
ATOM      6  C   UNL d   1      53.351  33.879  54.251  0.00  0.00     0.083 A 
ATOM      7  C   UNL d   1      54.495  33.048  54.463  0.00  0.00     0.027 A 
ATOM      8 CL   UNL d   1      52.477  32.226  52.623  0.00  0.00    -0.079 Cl
ATOM      9  C   UNL d   1      53.641  34.426  54.791  0.00  0.00     0.021 A 
ATOM     10  C   UNL d   1      54.794  33.599  55.010  0.00  0.00     0.094 A 
ATOM     11  C   UNL d   1      54.363  34.291  55.174  0.00  0.00     0.026 A 
ENDROOT
BRANCH   1  12
ATOM     12  P   UNL d   1      51.617  33.607  52.950  0.00  0.00     0.392 P 
ATOM     13  O   UNL d   1      51.249  33.666  53.686  0.00  0.00    -0.251 OA
BRANCH  12  14
ATOM     14  O   UNL d   1      51.803  33.582  52.144  0.00  0.00    -0.265 OA
BRANCH  14  15
ATOM     15  C   UNL d   1      51.759  34.273  51.684  0.00  0.00     0.103 C 
ATOM     16  C   UNL d   1      51.099  34.421  51.216  0.00  0.00     0.027 C 
ATOM     17  C   UNL d   1      52.387  34.811  51.701  0.00  0.00     0.027 C 
ENDBRANCH  14  15
ENDBRANCH  12  14
BRANCH  12  18
ATOM     18  O   UNL d   1      50.914  33.742  52.545  0.00  0.00    -0.265 OA
BRANCH  18  19
ATOM     19  C   UNL d   1      50.193  33.709  52.942  0.00  0.00     0.103 C 
ATOM     20  C   UNL d   1      49.788  34.403  53.129  0.00  0.00     0.027 C 
ATOM     21  C   UNL d   1      49.876  32.979  53.154  0.00  0.00     0.027 C 
ENDBRANCH  18  19
ENDBRANCH  12  18
ENDBRANCH   1  12
BRANCH   3  22
ATOM     22  N   UNL d   1      53.920  31.951  53.386  0.00  0.00    -0.245 NA
BRANCH  22  23
ATOM     23  C   UNL d   1      53.638  31.212  53.635  0.00  0.00     0.082 A 
ATOM     24  C   UNL d   1      53.367  30.673  53.078  0.00  0.00     0.021 A 
ATOM     25  C   UNL d   1      53.082  29.929  53.316  0.00  0.00     0.026 A 
ATOM     26  C   UNL d   1      53.078  29.745  54.123  0.00  0.00     0.094 A 
ATOM     27  C   UNL d   1      53.351  30.287  54.682  0.00  0.00     0.026 A 
ATOM     28  C   UNL d   1      53.632  31.021  54.436  0.00  0.00     0.021 A 
BRANCH  26  29
ATOM     29  O   UNL d   1      52.793  29.000  54.362  0.00  0.00    -0.328 OA
ATOM     30  C   UNL d   1      53.251  28.535  54.876  0.00  0.00     0.181 C 
ENDBRANCH  26  29
ENDBRANCH  22  23
ENDBRANCH   3  22
BRANCH  10  31
ATOM     31  O   UNL d   1      55.510  33.461  55.388  0.00  0.00    -0.328 OA
ATOM     32  C   UNL d   1      55.929  34.089  55.713  0.00  0.00     0.181 C 
ENDBRANCH  10  31
TORSDOF 9
ENDMDL
MODEL 5
REMARK VINA RESULT:      -4.6      1.384      3.380
REMARK  9 active torsions:
REMARK  status: ('A' for Active; 'I' for Inactive)
REMARK    1  A    between atoms: P_2  and  C_1 
REMARK    2  A    between atoms: O_8  and  P_2 
REMARK    3  A    between atoms: O_9  and  P_2 
REMARK    4  A    between atoms: N_10  and  C_4 
REMARK    5  A    between atoms: C_24  and  O_8 
REMARK    6  A    between atoms: C_23  and  O_9 
REMARK    7  A    between atoms: C_15  and  N_10 
REMARK    8  A    between atoms: O_25  and  C_16 
REMARK    9  A    between atoms: O_26  and  C_17 
ROOT
ATOM      1  C   UNL d   1      52.936  32.683  53.516  0.00  0.00     0.174 A 
ATOM      2  C   UNL d   1      52.587  33.175  52.946  0.00  0.00     0.100 A 
ATOM      3  C   UNL d   1      52.482  33.978  53.103  0.00  0.00     0.095 A 
ATOM      4  N   UNL d   1      53.178  32.998  54.239  0.00  0.00    -0.237 NA
ATOM      5  C   UNL d   1      52.724  34.290  53.824  0.00  0.00     0.038 A 
ATOM      6  C   UNL d   1      53.073  33.798  54.395  0.00  0.00     0.083 A 
ATOM      7  C   UNL d   1      52.618  35.087  53.977  0.00  0.00     0.027 A 
ATOM      8 CL   UNL d   1      52.345  32.857  52.220  0.00  0.00    -0.079 Cl
ATOM      9  C   UNL d   1      53.314  34.110  55.115  0.00  0.00     0.021 A 
ATOM     10  C   UNL d   1      52.861  35.408  54.705  0.00  0.00     0.094 A 
ATOM     11  C   UNL d   1      53.210  34.916  55.276  0.00  0.00     0.026 A 
ENDROOT
BRANCH   1  12
ATOM     12  P   UNL d   1      53.042  31.874  53.359  0.00  0.00     0.392 P 
ATOM     13  O   UNL d   1      52.372  31.706  53.812  0.00  0.00    -0.251 OA
BRANCH  12  14
ATOM     14  O   UNL d   1      53.717  31.845  52.883  0.00  0.00    -0.265 OA
BRANCH  14  15
ATOM     15  C   UNL d   1      54.454  31.645  53.214  0.00  0.00     0.103 C 
ATOM     16  C   UNL d   1      54.518  31.011  53.735  0.00  0.00     0.027 C 
ATOM     17  C   UNL d   1      55.121  32.089  53.014  0.00  0.00     0.027 C 
ENDBRANCH  14  15
ENDBRANCH  12  14
BRANCH  12  18
ATOM     18  O   UNL d   1      53.172  31.079  53.187  0.00  0.00    -0.265 OA
BRANCH  18  19
ATOM     19  C   UNL d   1      52.551  30.539  53.228  0.00  0.00     0.103 C 
ATOM     20  C   UNL d   1      52.336  30.207  53.951  0.00  0.00     0.027 C 
ATOM     21  C   UNL d   1      52.144  30.332  52.543  0.00  0.00     0.027 C 
ENDBRANCH  18  19
ENDBRANCH  12  18
ENDBRANCH   1  12
BRANCH   3  22
ATOM     22  N   UNL d   1      52.134  34.469  52.535  0.00  0.00    -0.245 NA
BRANCH  22  23
ATOM     23  C   UNL d   1      51.324  34.411  52.370  0.00  0.00     0.082 A 
ATOM     24  C   UNL d   1      51.078  34.239  51.605  0.00  0.00     0.021 A 
ATOM     25  C   UNL d   1      50.267  34.179  51.429  0.00  0.00     0.026 A 
ATOM     26  C   UNL d   1      49.718  34.295  52.036  0.00  0.00     0.094 A 
ATOM     27  C   UNL d   1      49.967  34.467  52.804  0.00  0.00     0.026 A 
ATOM     28  C   UNL d   1      50.772  34.525  52.969  0.00  0.00     0.021 A 
BRANCH  26  29
ATOM     29  O   UNL d   1      48.906  34.235  51.859  0.00  0.00    -0.328 OA
ATOM     30  C   UNL d   1      48.568  34.765  51.317  0.00  0.00     0.181 C 
ENDBRANCH  26  29
ENDBRANCH  22  23
ENDBRANCH   3  22
BRANCH  10  31
ATOM     31  O   UNL d   1      52.756  36.208  54.860  0.00  0.00    -0.328 OA
ATOM     32  C   UNL d   1      53.407  36.708  54.886  0.00  0.00     0.181 C 
ENDBRANCH  10  31
TORSDOF 9
ENDMDL
