MODEL 1
REMARK VINA RESULT:      98.2      0.000      0.000
REMARK  5 active torsions:
REMARK  status: ('A' for Active; 'I' for Inactive)
REMARK    1  A    between atoms: C_4  and  S_1 
REMARK    2  A    between atoms: N_5  and  S_1 
REMARK       I    between atoms: N_2  and  C_3 
REMARK    3  A    between atoms: C_3  and  C_6 
REMARK    4  A    between atoms: C_16  and  N_5 
REMARK    5  A    between atoms: C_19  and  C_16 
ROOT
ATOM      1  C   UNL d   1      62.047  44.305  49.660  0.00  0.00     0.057 A 
ATOM      2  C   UNL d   1      61.449  44.525  50.190  0.00  0.00     0.005 A 
ATOM      3  C   UNL d   1      62.387  44.878  49.170  0.00  0.00     0.005 A 
ATOM      4  C   UNL d   1      61.539  45.880  49.737  0.00  0.00     0.020 A 
ATOM      5  C   UNL d   1      61.198  45.315  50.226  0.00  0.00     0.002 A 
ATOM      6  C   UNL d   1      62.133  45.667  49.209  0.00  0.00     0.002 A 
ENDROOT
BRANCH   4   7
ATOM      7  C   UNL d   1      61.289  46.662  49.774  0.00  0.00     0.112 C 
BRANCH   7   8
ATOM      8  N   UNL d   1      61.601  47.174  50.332  0.00  0.00    -0.157 NA
BRANCH   8   9
ATOM      9  S   UNL d   1      61.159  47.807  50.613  0.00  0.00     0.285 S 
ATOM     10  O   UNL d   1      60.660  47.284  51.004  0.00  0.00    -0.198 OA
ATOM     11  O   UNL d   1      61.665  48.334  50.217  0.00  0.00    -0.198 OA
BRANCH   9  12
ATOM     12  C   UNL d   1      60.713  48.442  50.897  0.00  0.00     0.105 A 
ATOM     13  C   UNL d   1      60.929  48.818  51.587  0.00  0.00     0.012 A 
ATOM     14  C   UNL d   1      60.481  49.456  51.872  0.00  0.00     0.001 A 
ATOM     15  C   UNL d   1      61.605  48.555  52.005  0.00  0.00     0.001 C 
ATOM     16  C   UNL d   1      59.822  49.708  51.460  0.00  0.00     0.000 A 
ATOM     17  C   UNL d   1      59.594  49.333  50.757  0.00  0.00     0.001 A 
ATOM     18  C   UNL d   1      60.048  48.694  50.478  0.00  0.00     0.013 A 
ATOM     19  C   UNL d   1      58.930  49.585  50.339  0.00  0.00     0.000 C 
ENDBRANCH   9  12
ENDBRANCH   8   9
ENDBRANCH   7   8
ENDBRANCH   4   7
BRANCH   1  20
ATOM     20  C   UNL d   1      62.297  43.523  49.623  0.00  0.00     0.265 C 
ATOM     21  N   UNL d   1      62.452  43.100  50.325  0.00  0.00    -0.273 N 
ATOM     22  C   UNL d   1      62.704  42.315  50.289  0.00  0.00     0.067 A 
ATOM     23  C   UNL d   1      62.355  43.467  51.054  0.00  0.00     0.083 A 
ATOM     24  C   UNL d   1      62.803  41.945  49.556  0.00  0.00     0.019 C 
ATOM     25  C   UNL d   1      62.857  41.900  50.984  0.00  0.00     0.018 A 
ATOM     26  C   UNL d   1      62.756  42.276  51.703  0.00  0.00     0.003 A 
ATOM     27  C   UNL d   1      62.506  43.054  51.740  0.00  0.00     0.019 A 
ATOM     28  O   UNL d   1      62.395  43.157  48.890  0.00  0.00    -0.267 OA
ENDBRANCH   1  20
TORSDOF 5
ENDMDL
MODEL 2
REMARK VINA RESULT:      98.4      1.942      6.036
REMARK  5 active torsions:
REMARK  status: ('A' for Active; 'I' for Inactive)
REMARK    1  A    between atoms: C_4  and  S_1 
REMARK    2  A    between atoms: N_5  and  S_1 
REMARK       I    between atoms: N_2  and  C_3 
REMARK    3  A    between atoms: C_3  and  C_6 
REMARK    4  A    between atoms: C_16  and  N_5 
REMARK    5  A    between atoms: C_19  and  C_16 
ROOT
ATOM      1  C   UNL d   1      58.437  49.097  50.546  0.00  0.00     0.057 A 
ATOM      2  C   UNL d   1      58.706  48.471  50.075  0.00  0.00     0.005 A 
ATOM      3  C   UNL d   1      58.976  49.514  51.014  0.00  0.00     0.005 A 
ATOM      4  C   UNL d   1      60.042  48.686  50.544  0.00  0.00     0.020 A 
ATOM      5  C   UNL d   1      59.511  48.267  50.077  0.00  0.00     0.002 A 
ATOM      6  C   UNL d   1      59.780  49.309  51.013  0.00  0.00     0.002 A 
ENDROOT
BRANCH   4   7
ATOM      7  C   UNL d   1      60.838  48.483  50.544  0.00  0.00     0.112 C 
BRANCH   7   8
ATOM      8  N   UNL d   1      61.096  47.805  50.925  0.00  0.00    -0.157 NA
BRANCH   8   9
ATOM      9  S   UNL d   1      61.356  47.156  50.494  0.00  0.00     0.285 S 
ATOM     10  O   UNL d   1      61.376  47.616  49.813  0.00  0.00    -0.198 OA
ATOM     11  O   UNL d   1      61.335  46.692  51.183  0.00  0.00    -0.198 OA
BRANCH   9  12
ATOM     12  C   UNL d   1      61.617  46.504  50.059  0.00  0.00     0.105 A 
ATOM     13  C   UNL d   1      62.106  46.611  49.414  0.00  0.00     0.012 A 
ATOM     14  C   UNL d   1      62.368  45.956  48.978  0.00  0.00     0.001 A 
ATOM     15  C   UNL d   1      62.339  47.385  49.199  0.00  0.00     0.001 C 
ATOM     16  C   UNL d   1      62.137  45.202  49.193  0.00  0.00     0.000 A 
ATOM     17  C   UNL d   1      61.641  45.083  49.845  0.00  0.00     0.001 A 
ATOM     18  C   UNL d   1      61.382  45.744  50.279  0.00  0.00     0.013 A 
ATOM     19  C   UNL d   1      61.406  44.323  50.065  0.00  0.00     0.000 C 
ENDBRANCH   9  12
ENDBRANCH   8   9
ENDBRANCH   7   8
ENDBRANCH   4   7
BRANCH   1  20
ATOM     20  C   UNL d   1      57.641  49.299  50.546  0.00  0.00     0.265 C 
ATOM     21  N   UNL d   1      57.235  49.401  51.267  0.00  0.00    -0.273 N 
ATOM     22  C   UNL d   1      56.435  49.604  51.268  0.00  0.00     0.067 A 
ATOM     23  C   UNL d   1      57.633  49.298  51.978  0.00  0.00     0.083 A 
ATOM     24  C   UNL d   1      56.033  49.708  50.553  0.00  0.00     0.019 C 
ATOM     25  C   UNL d   1      56.037  49.704  51.982  0.00  0.00     0.018 A 
ATOM     26  C   UNL d   1      56.444  49.599  52.683  0.00  0.00     0.003 A 
ATOM     27  C   UNL d   1      57.237  49.397  52.684  0.00  0.00     0.019 A 
ATOM     28  O   UNL d   1      57.243  49.402  49.830  0.00  0.00    -0.267 OA
ENDBRANCH   1  20
TORSDOF 5
ENDMDL
