MODEL 1
REMARK VINA RESULT:      -0.6      0.000      0.000
REMARK  8 active torsions:
REMARK  status: ('A' for Active; 'I' for Inactive)
REMARK    1  A    between atoms: C_8  and  N_1 
REMARK    2  A    between atoms: C_6  and  C_2 
REMARK    3  A    between atoms: S_7  and  C_4 
REMARK    4  A    between atoms: C_12  and  S_7 
REMARK    5  A    between atoms: C_9  and  C_12 
REMARK    6  A    between atoms: O_14  and  C_9 
REMARK    7  A    between atoms: O_16  and  C_13 
REMARK    8  A    between atoms: C_21  and  O_14 
ROOT
ATOM      1  N   UNL d   1      58.614   0.238  30.698  0.00  0.00    -0.269 N 
ATOM      2  C   UNL d   1      59.430   0.288  30.774  0.00  0.00     0.171 A 
ATOM      3  N   UNL d   1      59.579   0.524  31.560  0.00  0.00    -0.128 NA
ATOM      4  C   UNL d   1      58.271   0.439  31.422  0.00  0.00     0.201 A 
ATOM      5  N   UNL d   1      58.892   0.618  31.959  0.00  0.00    -0.121 NA
ENDROOT
BRANCH   2   6
ATOM      6  C   UNL d   1      59.925   0.125  30.164  0.00  0.00     0.038 A 
ATOM      7  C   UNL d   1      60.278  -0.617  30.100  0.00  0.00     0.027 A 
ATOM      8  C   UNL d   1      60.775  -0.807  29.503  0.00  0.00     0.094 A 
ATOM      9  C   UNL d   1      60.949  -0.229  28.911  0.00  0.00     0.024 A 
ATOM     10  C   UNL d   1      60.596   0.514  28.975  0.00  0.00     0.002 A 
ATOM     11  C   UNL d   1      60.087   0.681  29.603  0.00  0.00     0.003 A 
BRANCH   8  12
ATOM     12  O   UNL d   1      61.120  -1.577  29.466  0.00  0.00    -0.328 OA
ATOM     13  C   UNL d   1      61.073  -2.006  28.762  0.00  0.00     0.181 C 
ENDBRANCH   8  12
ENDBRANCH   2   6
BRANCH   1  14
ATOM     14  C   UNL d   1      58.324   0.009  29.955  0.00  0.00     0.067 A 
ATOM     15  C   UNL d   1      58.242  -0.791  29.792  0.00  0.00     0.018 A 
ATOM     16  C   UNL d   1      57.951  -1.014  29.046  0.00  0.00     0.002 A 
ATOM     17  C   UNL d   1      57.746  -0.456  28.474  0.00  0.00     0.000 A 
ATOM     18  C   UNL d   1      57.832   0.351  28.646  0.00  0.00     0.002 A 
ATOM     19  C   UNL d   1      58.122   0.574  29.392  0.00  0.00     0.018 A 
ENDBRANCH   1  14
BRANCH   4  20
ATOM     20  S   UNL d   1      57.433   0.458  31.586  0.00  0.00    -0.042 SA
BRANCH  20  21
ATOM     21  C   UNL d   1      57.127   0.681  32.323  0.00  0.00     0.107 C 
BRANCH  21  22
ATOM     22  C   UNL d   1      56.505   0.271  32.666  0.00  0.00     0.307 C 
ATOM     23  O   UNL d   1      56.298  -0.502  32.423  0.00  0.00    -0.258 OA
BRANCH  22  24
ATOM     24  O   UNL d   1      56.072   0.637  33.271  0.00  0.00    -0.271 OA
BRANCH  24  25
ATOM     25  C   UNL d   1      55.322   0.354  33.497  0.00  0.00     0.126 C 
ATOM     26  C   UNL d   1      55.151   0.172  34.288  0.00  0.00     0.029 C 
ENDBRANCH  24  25
ENDBRANCH  22  24
ENDBRANCH  21  22
ENDBRANCH  20  21
ENDBRANCH   4  20
TORSDOF 8
ENDMDL
MODEL 2
REMARK VINA RESULT:      -0.3      1.226      1.897
REMARK  8 active torsions:
REMARK  status: ('A' for Active; 'I' for Inactive)
REMARK    1  A    between atoms: C_8  and  N_1 
REMARK    2  A    between atoms: C_6  and  C_2 
REMARK    3  A    between atoms: S_7  and  C_4 
REMARK    4  A    between atoms: C_12  and  S_7 
REMARK    5  A    between atoms: C_9  and  C_12 
REMARK    6  A    between atoms: O_14  and  C_9 
REMARK    7  A    between atoms: O_16  and  C_13 
REMARK    8  A    between atoms: C_21  and  O_14 
ROOT
ATOM      1  N   UNL d   1      58.206  -0.851  30.617  0.00  0.00    -0.269 N 
ATOM      2  C   UNL d   1      58.208  -1.618  30.323  0.00  0.00     0.171 A 
ATOM      3  N   UNL d   1      57.577  -2.015  30.697  0.00  0.00    -0.128 NA
ATOM      4  C   UNL d   1      57.587  -0.781  31.160  0.00  0.00     0.201 A 
ATOM      5  N   UNL d   1      57.198  -1.523  31.201  0.00  0.00    -0.121 NA
ENDROOT
BRANCH   2   6
ATOM      6  C   UNL d   1      58.745  -1.864  29.780  0.00  0.00     0.038 A 
ATOM      7  C   UNL d   1      59.356  -2.373  30.000  0.00  0.00     0.027 A 
ATOM      8  C   UNL d   1      59.905  -2.634  29.482  0.00  0.00     0.094 A 
ATOM      9  C   UNL d   1      59.864  -2.384  28.675  0.00  0.00     0.024 A 
ATOM     10  C   UNL d   1      59.253  -1.875  28.455  0.00  0.00     0.002 A 
ATOM     11  C   UNL d   1      58.701  -1.621  29.013  0.00  0.00     0.003 A 
BRANCH   8  12
ATOM     12  O   UNL d   1      60.519  -3.155  29.739  0.00  0.00    -0.328 OA
ATOM     13  C   UNL d   1      60.973  -3.552  29.174  0.00  0.00     0.181 C 
ENDBRANCH   8  12
ENDBRANCH   2   6
BRANCH   1  14
ATOM     14  C   UNL d   1      58.791  -0.340  30.324  0.00  0.00     0.067 A 
ATOM     15  C   UNL d   1      59.490  -0.257  30.746  0.00  0.00     0.018 A 
ATOM     16  C   UNL d   1      60.072   0.256  30.448  0.00  0.00     0.002 A 
ATOM     17  C   UNL d   1      59.964   0.677  29.747  0.00  0.00     0.000 A 
ATOM     18  C   UNL d   1      59.255   0.588  29.326  0.00  0.00     0.002 A 
ATOM     19  C   UNL d   1      58.672   0.076  29.624  0.00  0.00     0.018 A 
ENDBRANCH   1  14
BRANCH   4  20
ATOM     20  S   UNL d   1      57.388  -0.074  31.595  0.00  0.00    -0.042 SA
BRANCH  20  21
ATOM     21  C   UNL d   1      57.034  -0.096  32.344  0.00  0.00     0.107 C 
BRANCH  21  22
ATOM     22  C   UNL d   1      56.341   0.315  32.499  0.00  0.00     0.307 C 
ATOM     23  O   UNL d   1      55.887   0.660  31.888  0.00  0.00    -0.258 OA
BRANCH  22  24
ATOM     24  O   UNL d   1      56.088   0.388  33.285  0.00  0.00    -0.271 OA
BRANCH  24  25
ATOM     25  C   UNL d   1      55.330   0.679  33.469  0.00  0.00     0.126 C 
ATOM     26  C   UNL d   1      54.865   0.326  34.059  0.00  0.00     0.029 C 
ENDBRANCH  24  25
ENDBRANCH  22  24
ENDBRANCH  21  22
ENDBRANCH  20  21
ENDBRANCH   4  20
TORSDOF 8
ENDMDL
MODEL 3
REMARK VINA RESULT:       1.8      1.422      2.129
REMARK  8 active torsions:
REMARK  status: ('A' for Active; 'I' for Inactive)
REMARK    1  A    between atoms: C_8  and  N_1 
REMARK    2  A    between atoms: C_6  and  C_2 
REMARK    3  A    between atoms: S_7  and  C_4 
REMARK    4  A    between atoms: C_12  and  S_7 
REMARK    5  A    between atoms: C_9  and  C_12 
REMARK    6  A    between atoms: O_14  and  C_9 
REMARK    7  A    between atoms: O_16  and  C_13 
REMARK    8  A    between atoms: C_21  and  O_14 
ROOT
ATOM      1  N   UNL d   1      57.848  -0.717  30.775  0.00  0.00    -0.269 N 
ATOM      2  C   UNL d   1      57.758  -1.454  30.424  0.00  0.00     0.171 A 
ATOM      3  N   UNL d   1      57.097  -1.809  30.788  0.00  0.00    -0.128 NA
ATOM      4  C   UNL d   1      57.254  -0.624  31.342  0.00  0.00     0.201 A 
ATOM      5  N   UNL d   1      56.786  -1.321  31.340  0.00  0.00    -0.121 NA
ENDROOT
BRANCH   2   6
ATOM      6  C   UNL d   1      58.251  -1.714  29.847  0.00  0.00     0.038 A 
ATOM      7  C   UNL d   1      58.565  -2.476  29.878  0.00  0.00     0.027 A 
ATOM      8  C   UNL d   1      59.059  -2.761  29.318  0.00  0.00     0.094 A 
ATOM      9  C   UNL d   1      59.272  -2.267  28.666  0.00  0.00     0.024 A 
ATOM     10  C   UNL d   1      58.958  -1.505  28.635  0.00  0.00     0.002 A 
ATOM     11  C   UNL d   1      58.451  -1.238  29.228  0.00  0.00     0.003 A 
BRANCH   8  12
ATOM     12  O   UNL d   1      59.363  -3.547  29.380  0.00  0.00    -0.328 OA
ATOM     13  C   UNL d   1      59.121  -4.116  28.831  0.00  0.00     0.181 C 
ENDBRANCH   8  12
ENDBRANCH   2   6
BRANCH   1  14
ATOM     14  C   UNL d   1      58.478  -0.252  30.503  0.00  0.00     0.067 A 
ATOM     15  C   UNL d   1      58.368   0.208  29.832  0.00  0.00     0.018 A 
ATOM     16  C   UNL d   1      59.003   0.673  29.564  0.00  0.00     0.002 A 
ATOM     17  C   UNL d   1      59.730   0.682  29.952  0.00  0.00     0.000 A 
ATOM     18  C   UNL d   1      59.834   0.215  30.630  0.00  0.00     0.002 A 
ATOM     19  C   UNL d   1      59.200  -0.250  30.899  0.00  0.00     0.018 A 
ENDBRANCH   1  14
BRANCH   4  20
ATOM     20  S   UNL d   1      57.145   0.063  31.837  0.00  0.00    -0.042 SA
BRANCH  20  21
ATOM     21  C   UNL d   1      56.524   0.127  32.382  0.00  0.00     0.107 C 
BRANCH  21  22
ATOM     22  C   UNL d   1      56.667   0.306  33.169  0.00  0.00     0.307 C 
ATOM     23  O   UNL d   1      57.439   0.448  33.457  0.00  0.00    -0.258 OA
BRANCH  22  24
ATOM     24  O   UNL d   1      56.024   0.346  33.692  0.00  0.00    -0.271 OA
BRANCH  24  25
ATOM     25  C   UNL d   1      56.132   0.275  34.515  0.00  0.00     0.126 C 
ATOM     26  C   UNL d   1      55.542  -0.048  35.000  0.00  0.00     0.029 C 
ENDBRANCH  24  25
ENDBRANCH  22  24
ENDBRANCH  21  22
ENDBRANCH  20  21
ENDBRANCH   4  20
TORSDOF 8
ENDMDL
