MODEL 1
REMARK VINA RESULT:      -2.9      0.000      0.000
REMARK  3 active torsions:
REMARK  status: ('A' for Active; 'I' for Inactive)
REMARK    1  A    between atoms: C_10  and  C_4 
REMARK    2  A    between atoms: S_9  and  C_10 
REMARK    3  A    between atoms: C_11  and  S_9 
ROOT
ATOM      1  C   UNL d   1      33.241  20.559 -21.797  0.00  0.00     0.056 C 
ENDROOT
BRANCH   1   2
ATOM      2  S   UNL d   1      32.598  20.814 -21.384  0.00  0.00    -0.085 SA
BRANCH   2   3
ATOM      3  C   UNL d   1      32.645  21.509 -20.942  0.00  0.00     0.030 A 
ATOM      4  C   UNL d   1      32.212  22.171 -21.171  0.00  0.00     0.007 A 
ATOM      5  C   UNL d   1      32.268  22.859 -20.720  0.00  0.00     0.012 A 
ATOM      6  C   UNL d   1      32.745  22.894 -20.052  0.00  0.00     0.058 A 
ATOM      7  C   UNL d   1      33.175  22.227 -19.831  0.00  0.00     0.012 A 
ATOM      8 CL   UNL d   1      32.792  23.593 -19.607  0.00  0.00    -0.082 Cl
ATOM      9  C   UNL d   1      33.128  21.536 -20.270  0.00  0.00     0.007 A 
ENDBRANCH   2   3
ENDBRANCH   1   2
BRANCH   1  10
ATOM     10  C   UNL d   1      33.168  19.935 -22.311  0.00  0.00     0.107 A 
ATOM     11  N   UNL d   1      33.138  19.121 -22.095  0.00  0.00    -0.220 NA
ATOM     12  C   UNL d   1      33.060  18.664 -22.808  0.00  0.00     0.180 A 
ATOM     13  N   UNL d   1      33.042  19.208 -23.466  0.00  0.00    -0.282 N 
ATOM     14  S   UNL d   1      32.993  17.875 -23.122  0.00  0.00    -0.048 SA
ATOM     15  C   UNL d   1      33.109  19.991 -23.147  0.00  0.00     0.102 A 
ATOM     16  C   UNL d   1      32.963  18.750 -24.180  0.00  0.00     0.089 A 
ATOM     17  C   UNL d   1      32.933  17.929 -23.963  0.00  0.00     0.057 A 
ENDBRANCH   1  10
TORSDOF 3
ENDMDL
MODEL 2
REMARK VINA RESULT:      -2.9      2.274      4.559
REMARK  3 active torsions:
REMARK  status: ('A' for Active; 'I' for Inactive)
REMARK    1  A    between atoms: C_10  and  C_4 
REMARK    2  A    between atoms: S_9  and  C_10 
REMARK    3  A    between atoms: C_11  and  S_9 
ROOT
ATOM      1  C   UNL d   1      32.569  20.530 -21.731  0.00  0.00     0.056 C 
ENDROOT
BRANCH   1   2
ATOM      2  S   UNL d   1      33.240  20.170 -21.992  0.00  0.00    -0.085 SA
BRANCH   2   3
ATOM      3  C   UNL d   1      33.189  19.557 -22.542  0.00  0.00     0.030 A 
ATOM      4  C   UNL d   1      33.131  18.778 -22.283  0.00  0.00     0.007 A 
ATOM      5  C   UNL d   1      33.080  18.174 -22.843  0.00  0.00     0.012 A 
ATOM      6  C   UNL d   1      33.087  18.337 -23.648  0.00  0.00     0.058 A 
ATOM      7  C   UNL d   1      33.146  19.120 -23.898  0.00  0.00     0.012 A 
ATOM      8 CL   UNL d   1      33.036  17.721 -24.201  0.00  0.00    -0.082 Cl
ATOM      9  C   UNL d   1      33.197  19.730 -23.351  0.00  0.00     0.007 A 
ENDBRANCH   2   3
ENDBRANCH   1   2
BRANCH   1  10
ATOM     10  C   UNL d   1      32.622  21.191 -21.264  0.00  0.00     0.107 A 
ATOM     11  N   UNL d   1      32.177  21.900 -21.363  0.00  0.00    -0.220 NA
ATOM     12  C   UNL d   1      32.411  22.443 -20.751  0.00  0.00     0.180 A 
ATOM     13  N   UNL d   1      33.007  22.059 -20.275  0.00  0.00    -0.282 N 
ATOM     14  S   UNL d   1      32.283  23.221 -20.430  0.00  0.00    -0.048 SA
ATOM     15  C   UNL d   1      33.129  21.286 -20.601  0.00  0.00     0.102 A 
ATOM     16  C   UNL d   1      33.241  22.603 -19.663  0.00  0.00     0.089 A 
ATOM     17  C   UNL d   1      32.792  23.318 -19.762  0.00  0.00     0.057 A 
ENDBRANCH   1  10
TORSDOF 3
ENDMDL
MODEL 3
REMARK VINA RESULT:      -2.5      0.934      1.342
REMARK  3 active torsions:
REMARK  status: ('A' for Active; 'I' for Inactive)
REMARK    1  A    between atoms: C_10  and  C_4 
REMARK    2  A    between atoms: S_9  and  C_10 
REMARK    3  A    between atoms: C_11  and  S_9 
ROOT
ATOM      1  C   UNL d   1      32.773  19.722 -22.805  0.00  0.00     0.056 C 
ENDROOT
BRANCH   1   2
ATOM      2  S   UNL d   1      33.215  19.966 -22.178  0.00  0.00    -0.085 SA
BRANCH   2   3
ATOM      3  C   UNL d   1      33.048  20.687 -21.814  0.00  0.00     0.030 A 
ATOM      4  C   UNL d   1      33.241  21.392 -22.194  0.00  0.00     0.007 A 
ATOM      5  C   UNL d   1      33.068  22.106 -21.819  0.00  0.00     0.012 A 
ATOM      6  C   UNL d   1      32.710  22.126 -21.080  0.00  0.00     0.058 A 
ATOM      7  C   UNL d   1      32.521  21.415 -20.708  0.00  0.00     0.012 A 
ATOM      8 CL   UNL d   1      32.542  22.851 -20.715  0.00  0.00    -0.082 Cl
ATOM      9  C   UNL d   1      32.687  20.697 -21.069  0.00  0.00     0.007 A 
ENDBRANCH   2   3
ENDBRANCH   1   2
BRANCH   1  10
ATOM     10  C   UNL d   1      32.884  18.979 -23.112  0.00  0.00     0.107 A 
ATOM     11  N   UNL d   1      32.905  18.262 -22.669  0.00  0.00    -0.220 NA
ATOM     12  C   UNL d   1      33.033  17.622 -23.214  0.00  0.00     0.180 A 
ATOM     13  N   UNL d   1      33.091  17.954 -23.999  0.00  0.00    -0.282 N 
ATOM     14  S   UNL d   1      33.126  16.778 -23.282  0.00  0.00    -0.048 SA
ATOM     15  C   UNL d   1      32.998  18.794 -23.923  0.00  0.00     0.102 A 
ATOM     16  C   UNL d   1      33.220  17.313 -24.544  0.00  0.00     0.089 A 
ATOM     17  C   UNL d   1      33.241  16.589 -24.098  0.00  0.00     0.057 A 
ENDBRANCH   1  10
TORSDOF 3
ENDMDL
MODEL 4
REMARK VINA RESULT:      -2.3      2.428      4.746
REMARK  3 active torsions:
REMARK  status: ('A' for Active; 'I' for Inactive)
REMARK    1  A    between atoms: C_10  and  C_4 
REMARK    2  A    between atoms: S_9  and  C_10 
REMARK    3  A    between atoms: C_11  and  S_9 
ROOT
ATOM      1  C   UNL d   1      33.233  19.312 -22.983  0.00  0.00     0.056 C 
ENDROOT
BRANCH   1   2
ATOM      2  S   UNL d   1      32.742  18.688 -22.854  0.00  0.00    -0.085 SA
BRANCH   2   3
ATOM      3  C   UNL d   1      32.715  18.068 -23.398  0.00  0.00     0.030 A 
ATOM      4  C   UNL d   1      32.168  18.085 -24.012  0.00  0.00     0.007 A 
ATOM      5  C   UNL d   1      32.153  17.459 -24.549  0.00  0.00     0.012 A 
ATOM      6  C   UNL d   1      32.670  16.824 -24.481  0.00  0.00     0.058 A 
ATOM      7  C   UNL d   1      33.214  16.817 -23.862  0.00  0.00     0.012 A 
ATOM      8 CL   UNL d   1      32.643  16.201 -25.027  0.00  0.00    -0.082 Cl
ATOM      9  C   UNL d   1      33.240  17.433 -23.321  0.00  0.00     0.007 A 
ENDBRANCH   2   3
ENDBRANCH   1   2
BRANCH   1  10
ATOM     10  C   UNL d   1      33.211  19.952 -22.485  0.00  0.00     0.107 A 
ATOM     11  N   UNL d   1      33.154  19.920 -21.645  0.00  0.00    -0.220 NA
ATOM     12  C   UNL d   1      33.148  20.719 -21.352  0.00  0.00     0.180 A 
ATOM     13  N   UNL d   1      33.203  21.243 -22.023  0.00  0.00    -0.282 N 
ATOM     14  S   UNL d   1      33.110  21.198 -20.649  0.00  0.00    -0.048 SA
ATOM     15  C   UNL d   1      33.241  20.759 -22.718  0.00  0.00     0.102 A 
ATOM     16  C   UNL d   1      33.197  22.043 -21.730  0.00  0.00     0.089 A 
ATOM     17  C   UNL d   1      33.139  22.011 -20.882  0.00  0.00     0.057 A 
ENDBRANCH   1  10
TORSDOF 3
ENDMDL
MODEL 5
REMARK VINA RESULT:      -1.2      2.852      3.282
REMARK  3 active torsions:
REMARK  status: ('A' for Active; 'I' for Inactive)
REMARK    1  A    between atoms: C_10  and  C_4 
REMARK    2  A    between atoms: S_9  and  C_10 
REMARK    3  A    between atoms: C_11  and  S_9 
ROOT
ATOM      1  C   UNL d   1      33.093  23.094 -21.449  0.00  0.00     0.056 C 
ENDROOT
BRANCH   1   2
ATOM      2  S   UNL d   1      32.457  23.230 -20.974  0.00  0.00    -0.085 SA
BRANCH   2   3
ATOM      3  C   UNL d   1      32.540  23.180 -20.154  0.00  0.00     0.030 A 
ATOM      4  C   UNL d   1      33.057  22.629 -19.827  0.00  0.00     0.007 A 
ATOM      5  C   UNL d   1      33.129  22.590 -19.006  0.00  0.00     0.012 A 
ATOM      6  C   UNL d   1      32.698  23.087 -18.514  0.00  0.00     0.058 A 
ATOM      7  C   UNL d   1      32.183  23.634 -18.852  0.00  0.00     0.012 A 
ATOM      8 CL   UNL d   1      32.780  23.036 -17.691  0.00  0.00    -0.082 Cl
ATOM      9  C   UNL d   1      32.101  23.684 -19.666  0.00  0.00     0.007 A 
ENDBRANCH   2   3
ENDBRANCH   1   2
BRANCH   1  10
ATOM     10  C   UNL d   1      32.994  23.054 -22.253  0.00  0.00     0.107 A 
ATOM     11  N   UNL d   1      32.679  23.664 -22.741  0.00  0.00    -0.220 NA
ATOM     12  C   UNL d   1      32.677  23.383 -23.543  0.00  0.00     0.180 A 
ATOM     13  N   UNL d   1      32.996  22.590 -23.543  0.00  0.00    -0.282 N 
ATOM     14  S   UNL d   1      32.481  23.583 -24.347  0.00  0.00    -0.048 SA
ATOM     15  C   UNL d   1      33.189  22.398 -22.740  0.00  0.00     0.102 A 
ATOM     16  C   UNL d   1      32.994  22.309 -24.347  0.00  0.00     0.089 A 
ATOM     17  C   UNL d   1      32.676  22.924 -24.840  0.00  0.00     0.057 A 
ENDBRANCH   1  10
TORSDOF 3
ENDMDL
MODEL 6
REMARK VINA RESULT:      -1.0      3.990      5.406
REMARK  3 active torsions:
REMARK  status: ('A' for Active; 'I' for Inactive)
REMARK    1  A    between atoms: C_10  and  C_4 
REMARK    2  A    between atoms: S_9  and  C_10 
REMARK    3  A    between atoms: C_11  and  S_9 
ROOT
ATOM      1  C   UNL d   1      30.537  17.101 -24.674  0.00  0.00     0.056 C 
ENDROOT
BRANCH   1   2
ATOM      2  S   UNL d   1      31.235  17.105 -24.272  0.00  0.00    -0.085 SA
BRANCH   2   3
ATOM      3  C   UNL d   1      31.732  17.762 -24.323  0.00  0.00     0.030 A 
ATOM      4  C   UNL d   1      31.933  18.067 -25.061  0.00  0.00     0.007 A 
ATOM      5  C   UNL d   1      32.432  18.724 -25.097  0.00  0.00     0.012 A 
ATOM      6  C   UNL d   1      32.728  19.074 -24.416  0.00  0.00     0.058 A 
ATOM      7  C   UNL d   1      32.521  18.760 -23.682  0.00  0.00     0.012 A 
ATOM      8 CL   UNL d   1      33.228  19.733 -24.467  0.00  0.00    -0.082 Cl
ATOM      9  C   UNL d   1      32.026  18.108 -23.631  0.00  0.00     0.007 A 
ENDBRANCH   2   3
ENDBRANCH   1   2
BRANCH   1  10
ATOM     10  C   UNL d   1      29.896  16.712 -24.363  0.00  0.00     0.107 A 
ATOM     11  N   UNL d   1      29.126  16.684 -24.703  0.00  0.00    -0.220 NA
ATOM     12  C   UNL d   1      28.631  16.216 -24.192  0.00  0.00     0.180 A 
ATOM     13  N   UNL d   1      29.108  15.957 -23.533  0.00  0.00    -0.282 N 
ATOM     14  S   UNL d   1      27.845  15.907 -24.083  0.00  0.00    -0.048 SA
ATOM     15  C   UNL d   1      29.888  16.269 -23.649  0.00  0.00     0.102 A 
ATOM     16  C   UNL d   1      28.613  15.489 -23.022  0.00  0.00     0.089 A 
ATOM     17  C   UNL d   1      27.835  15.461 -23.364  0.00  0.00     0.057 A 
ENDBRANCH   1  10
TORSDOF 3
ENDMDL
