MODEL 1
REMARK VINA RESULT:      -9.3      0.000      0.000
REMARK  4 active torsions:
REMARK  status: ('A' for Active; 'I' for Inactive)
REMARK    1  A    between atoms: C_12  and  C_2 
REMARK    2  A    between atoms: C_13  and  C_3 
REMARK    3  A    between atoms: N_8  and  C_6 
REMARK       I    between atoms: C_7  and  N_9 
REMARK    4  A    between atoms: N_9  and  N_8 
ROOT
ATOM      1  C   UNL d   1      53.466  33.722  54.034  0.00  0.00     0.196 A 
ATOM      2  C   UNL d   1      52.863  33.510  53.488  0.00  0.00     0.041 A 
ATOM      3  C   UNL d   1      53.999  33.185  54.296  0.00  0.00     0.041 A 
ATOM      4  C   UNL d   1      52.816  32.719  53.210  0.00  0.00     0.024 A 
ATOM      5  C   UNL d   1      53.964  32.403  54.031  0.00  0.00     0.024 A 
ATOM      6  C   UNL d   1      53.381  32.174  53.496  0.00  0.00     0.103 A 
ATOM      7  O   UNL d   1      53.540  34.523  54.336  0.00  0.00    -0.287 OA
ENDROOT
BRANCH   6   8
ATOM      8  N   UNL d   1      53.340  31.370  53.218  0.00  0.00    -0.144 NA
BRANCH   8   9
ATOM      9  N   UNL d   1      53.342  30.714  53.734  0.00  0.00    -0.087 NA
ATOM     10  C   UNL d   1      53.171  29.940  53.477  0.00  0.00     0.404 C 
ATOM     11  O   UNL d   1      52.992  29.812  52.673  0.00  0.00    -0.239 OA
ATOM     12  N   UNL d   1      53.181  29.303  54.015  0.00  0.00    -0.083 N 
ENDBRANCH   8   9
ENDBRANCH   6   8
BRANCH   3  13
ATOM     13  C   UNL d   1      54.578  33.428  54.832  0.00  0.00     0.003 C 
ATOM     14  C   UNL d   1      54.439  33.395  55.625  0.00  0.00     0.000 C 
ATOM     15  C   UNL d   1      55.302  33.706  54.549  0.00  0.00     0.000 C 
ENDBRANCH   3  13
BRANCH   2  16
ATOM     16  C   UNL d   1      52.332  34.060  53.232  0.00  0.00     0.003 C 
ATOM     17  C   UNL d   1      51.590  34.065  53.552  0.00  0.00     0.000 C 
ATOM     18  C   UNL d   1      52.533  34.592  52.672  0.00  0.00     0.000 C 
ENDBRANCH   2  16
TORSDOF 4
ENDMDL
MODEL 2
REMARK VINA RESULT:      -9.2      0.062      2.081
REMARK  4 active torsions:
REMARK  status: ('A' for Active; 'I' for Inactive)
REMARK    1  A    between atoms: C_12  and  C_2 
REMARK    2  A    between atoms: C_13  and  C_3 
REMARK    3  A    between atoms: N_8  and  C_6 
REMARK       I    between atoms: C_7  and  N_9 
REMARK    4  A    between atoms: N_9  and  N_8 
ROOT
ATOM      1  C   UNL d   1      53.415  33.722  54.002  0.00  0.00     0.196 A 
ATOM      2  C   UNL d   1      53.997  33.187  54.289  0.00  0.00     0.041 A 
ATOM      3  C   UNL d   1      52.848  33.484  53.490  0.00  0.00     0.041 A 
ATOM      4  C   UNL d   1      53.986  32.387  54.035  0.00  0.00     0.024 A 
ATOM      5  C   UNL d   1      52.825  32.699  53.232  0.00  0.00     0.024 A 
ATOM      6  C   UNL d   1      53.385  32.159  53.500  0.00  0.00     0.103 A 
ATOM      7  O   UNL d   1      53.401  34.546  54.243  0.00  0.00    -0.287 OA
ENDROOT
BRANCH   6   8
ATOM      8  N   UNL d   1      53.367  31.348  53.239  0.00  0.00    -0.144 NA
BRANCH   8   9
ATOM      9  N   UNL d   1      53.363  30.704  53.769  0.00  0.00    -0.087 NA
ATOM     10  C   UNL d   1      53.204  29.923  53.524  0.00  0.00     0.404 C 
ATOM     11  O   UNL d   1      53.042  29.777  52.720  0.00  0.00    -0.239 OA
ATOM     12  N   UNL d   1      53.206  29.298  54.076  0.00  0.00    -0.083 N 
ENDBRANCH   8   9
ENDBRANCH   6   8
BRANCH   3  13
ATOM     13  C   UNL d   1      52.291  34.035  53.228  0.00  0.00     0.003 C 
ATOM     14  C   UNL d   1      52.482  34.562  52.649  0.00  0.00     0.000 C 
ATOM     15  C   UNL d   1      51.538  34.042  53.565  0.00  0.00     0.000 C 
ENDBRANCH   3  13
BRANCH   2  16
ATOM     16  C   UNL d   1      54.564  33.439  54.805  0.00  0.00     0.003 C 
ATOM     17  C   UNL d   1      54.424  33.379  55.598  0.00  0.00     0.000 C 
ATOM     18  C   UNL d   1      55.252  33.744  54.538  0.00  0.00     0.000 C 
ENDBRANCH   2  16
TORSDOF 4
ENDMDL
MODEL 3
REMARK VINA RESULT:      -9.0      1.872      3.493
REMARK  4 active torsions:
REMARK  status: ('A' for Active; 'I' for Inactive)
REMARK    1  A    between atoms: C_12  and  C_2 
REMARK    2  A    between atoms: C_13  and  C_3 
REMARK    3  A    between atoms: N_8  and  C_6 
REMARK       I    between atoms: C_7  and  N_9 
REMARK    4  A    between atoms: N_9  and  N_8 
ROOT
ATOM      1  C   UNL d   1      53.560  31.725  53.729  0.00  0.00     0.196 A 
ATOM      2  C   UNL d   1      53.650  32.549  53.872  0.00  0.00     0.041 A 
ATOM      3  C   UNL d   1      52.991  31.449  53.238  0.00  0.00     0.041 A 
ATOM      4  C   UNL d   1      53.136  33.094  53.496  0.00  0.00     0.024 A 
ATOM      5  C   UNL d   1      52.477  31.975  52.861  0.00  0.00     0.024 A 
ATOM      6  C   UNL d   1      52.548  32.785  52.987  0.00  0.00     0.103 A 
ATOM      7  O   UNL d   1      54.071  31.143  54.100  0.00  0.00    -0.287 OA
ENDROOT
BRANCH   6   8
ATOM      8  N   UNL d   1      52.022  33.332  52.601  0.00  0.00    -0.144 NA
BRANCH   8   9
ATOM      9  N   UNL d   1      51.338  33.637  52.971  0.00  0.00    -0.087 NA
ATOM     10  C   UNL d   1      50.807  34.146  52.580  0.00  0.00     0.404 C 
ATOM     11  O   UNL d   1      50.961  34.362  51.790  0.00  0.00    -0.239 OA
ATOM     12  N   UNL d   1      50.131  34.435  52.974  0.00  0.00    -0.083 N 
ENDBRANCH   8   9
ENDBRANCH   6   8
BRANCH   3  13
ATOM     13  C   UNL d   1      52.930  30.633  53.120  0.00  0.00     0.003 C 
ATOM     14  C   UNL d   1      53.357  30.273  52.539  0.00  0.00     0.000 C 
ATOM     15  C   UNL d   1      52.427  30.190  53.602  0.00  0.00     0.000 C 
ENDBRANCH   3  13
BRANCH   2  16
ATOM     16  C   UNL d   1      54.228  32.816  54.369  0.00  0.00     0.003 C 
ATOM     17  C   UNL d   1      54.931  33.060  54.053  0.00  0.00     0.000 C 
ATOM     18  C   UNL d   1      54.109  32.839  55.157  0.00  0.00     0.000 C 
ENDBRANCH   2  16
TORSDOF 4
ENDMDL
MODEL 4
REMARK VINA RESULT:      -9.0      1.867      3.179
REMARK  4 active torsions:
REMARK  status: ('A' for Active; 'I' for Inactive)
REMARK    1  A    between atoms: C_12  and  C_2 
REMARK    2  A    between atoms: C_13  and  C_3 
REMARK    3  A    between atoms: N_8  and  C_6 
REMARK       I    between atoms: C_7  and  N_9 
REMARK    4  A    between atoms: N_9  and  N_8 
ROOT
ATOM      1  C   UNL d   1      53.581  31.759  53.742  0.00  0.00     0.196 A 
ATOM      2  C   UNL d   1      52.988  31.439  53.239  0.00  0.00     0.041 A 
ATOM      3  C   UNL d   1      53.648  32.549  53.856  0.00  0.00     0.041 A 
ATOM      4  C   UNL d   1      52.454  31.954  52.848  0.00  0.00     0.024 A 
ATOM      5  C   UNL d   1      53.129  33.068  53.477  0.00  0.00     0.024 A 
ATOM      6  C   UNL d   1      52.541  32.775  52.981  0.00  0.00     0.103 A 
ATOM      7  O   UNL d   1      54.142  31.257  54.155  0.00  0.00    -0.287 OA
ENDROOT
BRANCH   6   8
ATOM      8  N   UNL d   1      52.002  33.305  52.587  0.00  0.00    -0.144 NA
BRANCH   8   9
ATOM      9  N   UNL d   1      51.333  33.630  52.965  0.00  0.00    -0.087 NA
ATOM     10  C   UNL d   1      50.804  34.143  52.576  0.00  0.00     0.404 C 
ATOM     11  O   UNL d   1      50.945  34.342  51.779  0.00  0.00    -0.239 OA
ATOM     12  N   UNL d   1      50.142  34.454  52.979  0.00  0.00    -0.083 N 
ENDBRANCH   8   9
ENDBRANCH   6   8
BRANCH   3  13
ATOM     13  C   UNL d   1      54.242  32.829  54.356  0.00  0.00     0.003 C 
ATOM     14  C   UNL d   1      54.121  32.866  55.152  0.00  0.00     0.000 C 
ATOM     15  C   UNL d   1      54.963  33.072  54.034  0.00  0.00     0.000 C 
ENDBRANCH   3  13
BRANCH   2  16
ATOM     16  C   UNL d   1      52.931  30.641  53.132  0.00  0.00     0.003 C 
ATOM     17  C   UNL d   1      53.331  30.301  52.518  0.00  0.00     0.000 C 
ATOM     18  C   UNL d   1      52.488  30.194  53.622  0.00  0.00     0.000 C 
ENDBRANCH   2  16
TORSDOF 4
ENDMDL
MODEL 5
REMARK VINA RESULT:      -7.9      1.649      3.490
REMARK  4 active torsions:
REMARK  status: ('A' for Active; 'I' for Inactive)
REMARK    1  A    between atoms: C_12  and  C_2 
REMARK    2  A    between atoms: C_13  and  C_3 
REMARK    3  A    between atoms: N_8  and  C_6 
REMARK       I    between atoms: C_7  and  N_9 
REMARK    4  A    between atoms: N_9  and  N_8 
ROOT
ATOM      1  C   UNL d   1      52.451  32.098  53.069  0.00  0.00     0.196 A 
ATOM      2  C   UNL d   1      53.030  31.577  53.388  0.00  0.00     0.041 A 
ATOM      3  C   UNL d   1      52.407  32.863  53.302  0.00  0.00     0.041 A 
ATOM      4  C   UNL d   1      53.573  31.862  53.961  0.00  0.00     0.024 A 
ATOM      5  C   UNL d   1      52.936  33.156  53.865  0.00  0.00     0.024 A 
ATOM      6  C   UNL d   1      53.510  32.664  54.190  0.00  0.00     0.103 A 
ATOM      7  O   UNL d   1      51.882  31.836  52.482  0.00  0.00    -0.287 OA
ENDROOT
BRANCH   6   8
ATOM      8  N   UNL d   1      54.058  32.960  54.771  0.00  0.00    -0.144 NA
BRANCH   8   9
ATOM      9  N   UNL d   1      54.764  33.354  54.565  0.00  0.00    -0.087 NA
ATOM     10  C   UNL d   1      55.237  33.749  55.125  0.00  0.00     0.404 C 
ATOM     11  O   UNL d   1      54.999  33.753  55.924  0.00  0.00    -0.239 OA
ATOM     12  N   UNL d   1      55.938  34.135  54.891  0.00  0.00    -0.083 N 
ENDBRANCH   8   9
ENDBRANCH   6   8
BRANCH   3  13
ATOM     13  C   UNL d   1      51.826  33.347  52.968  0.00  0.00     0.003 C 
ATOM     14  C   UNL d   1      51.078  33.349  53.266  0.00  0.00     0.000 C 
ATOM     15  C   UNL d   1      52.020  33.829  52.327  0.00  0.00     0.000 C 
ENDBRANCH   3  13
BRANCH   2  16
ATOM     16  C   UNL d   1      53.064  30.808  53.146  0.00  0.00     0.003 C 
ATOM     17  C   UNL d   1      53.554  30.614  52.533  0.00  0.00     0.000 C 
ATOM     18  C   UNL d   1      52.623  30.247  53.503  0.00  0.00     0.000 C 
ENDBRANCH   2  16
TORSDOF 4
ENDMDL
MODEL 6
REMARK VINA RESULT:      -7.4      1.628      3.148
REMARK  4 active torsions:
REMARK  status: ('A' for Active; 'I' for Inactive)
REMARK    1  A    between atoms: C_12  and  C_2 
REMARK    2  A    between atoms: C_13  and  C_3 
REMARK    3  A    between atoms: N_8  and  C_6 
REMARK       I    between atoms: C_7  and  N_9 
REMARK    4  A    between atoms: N_9  and  N_8 
ROOT
ATOM      1  C   UNL d   1      52.459  32.018  53.100  0.00  0.00     0.196 A 
ATOM      2  C   UNL d   1      52.397  32.831  53.311  0.00  0.00     0.041 A 
ATOM      3  C   UNL d   1      53.021  31.548  53.421  0.00  0.00     0.041 A 
ATOM      4  C   UNL d   1      52.932  33.156  53.869  0.00  0.00     0.024 A 
ATOM      5  C   UNL d   1      53.556  31.855  53.972  0.00  0.00     0.024 A 
ATOM      6  C   UNL d   1      53.512  32.647  54.192  0.00  0.00     0.103 A 
ATOM      7  O   UNL d   1      51.925  31.657  52.533  0.00  0.00    -0.287 OA
ENDROOT
BRANCH   6   8
ATOM      8  N   UNL d   1      54.059  32.971  54.759  0.00  0.00    -0.144 NA
BRANCH   8   9
ATOM      9  N   UNL d   1      54.763  33.360  54.535  0.00  0.00    -0.087 NA
ATOM     10  C   UNL d   1      55.241  33.772  55.079  0.00  0.00     0.404 C 
ATOM     11  O   UNL d   1      55.010  33.798  55.880  0.00  0.00    -0.239 OA
ATOM     12  N   UNL d   1      55.939  34.151  54.827  0.00  0.00    -0.083 N 
ENDBRANCH   8   9
ENDBRANCH   6   8
BRANCH   3  13
ATOM     13  C   UNL d   1      53.054  30.755  53.192  0.00  0.00     0.003 C 
ATOM     14  C   UNL d   1      53.441  30.542  52.518  0.00  0.00     0.000 C 
ATOM     15  C   UNL d   1      52.687  30.182  53.659  0.00  0.00     0.000 C 
ENDBRANCH   3  13
BRANCH   2  16
ATOM     16  C   UNL d   1      51.826  33.295  52.981  0.00  0.00     0.003 C 
ATOM     17  C   UNL d   1      51.086  33.293  53.305  0.00  0.00     0.000 C 
ATOM     18  C   UNL d   1      51.987  33.749  52.345  0.00  0.00     0.000 C 
ENDBRANCH   2  16
TORSDOF 4
ENDMDL
