MODEL 1
REMARK VINA RESULT:      -6.6      0.000      0.000
REMARK  6 active torsions:
REMARK  status: ('A' for Active; 'I' for Inactive)
REMARK    1  A    between atoms: C_10  and  C_3 
REMARK    2  A    between atoms: S_9  and  C_4 
REMARK       I    between atoms: N_6  and  C_7 
REMARK    3  A    between atoms: C_8  and  N_6 
REMARK    4  A    between atoms: C_7  and  C_14 
REMARK    5  A    between atoms: C_14  and  S_9 
REMARK    6  A    between atoms: O_15  and  C_12 
ROOT
ATOM      1  S   UNL d   1     -46.723  13.567  23.035  0.00  0.00    -0.036 SA
ENDROOT
BRANCH   1   2
ATOM      2  C   UNL d   1     -46.038  13.108  22.836  0.00  0.00     0.236 A 
ATOM      3  O   UNL d   1     -45.883  12.400  23.226  0.00  0.00    -0.263 OA
ATOM      4  C   UNL d   1     -45.201  12.085  22.926  0.00  0.00     0.205 A 
ATOM      5  N   UNL d   1     -44.924  12.599  22.341  0.00  0.00    -0.120 NA
ATOM      6  N   UNL d   1     -45.434  13.223  22.286  0.00  0.00    -0.114 NA
BRANCH   4   7
ATOM      7  C   UNL d   1     -44.821  11.387  23.135  0.00  0.00     0.046 A 
ATOM      8  C   UNL d   1     -45.243  10.781  23.481  0.00  0.00     0.024 A 
ATOM      9  C   UNL d   1     -44.851  10.069  23.694  0.00  0.00     0.099 A 
ATOM     10  N   UNL d   1     -44.044   9.991  23.550  0.00  0.00    -0.242 NA
ATOM     11  C   UNL d   1     -43.610  10.624  23.189  0.00  0.00     0.099 A 
ATOM     12  C   UNL d   1     -44.003  11.312  22.987  0.00  0.00     0.024 A 
ENDBRANCH   4   7
ENDBRANCH   1   2
BRANCH   1  13
ATOM     13  C   UNL d   1     -47.369  13.551  22.520  0.00  0.00     0.101 C 
BRANCH  13  14
ATOM     14  C   UNL d   1     -48.018  14.020  22.707  0.00  0.00     0.286 C 
ATOM     15  N   UNL d   1     -48.711  13.960  22.251  0.00  0.00    -0.206 NA
ATOM     16  O   UNL d   1     -48.009  14.552  23.335  0.00  0.00    -0.265 OA
BRANCH  15  17
ATOM     17  C   UNL d   1     -49.369  14.422  22.424  0.00  0.00     0.107 A 
ATOM     18  C   UNL d   1     -50.148  14.185  22.192  0.00  0.00     0.112 A 
ATOM     19  C   UNL d   1     -50.783  14.648  22.370  0.00  0.00     0.026 A 
ATOM     20  C   UNL d   1     -50.706  15.361  22.777  0.00  0.00     0.002 A 
ATOM     21  C   UNL d   1     -49.960  15.622  23.018  0.00  0.00     0.002 A 
ATOM     22  C   UNL d   1     -49.295  15.155  22.843  0.00  0.00     0.021 A 
BRANCH  18  23
ATOM     23  O   UNL d   1     -50.222  13.452  21.774  0.00  0.00    -0.327 OA
ATOM     24  C   UNL d   1     -50.997  13.116  21.714  0.00  0.00     0.181 C 
ENDBRANCH  18  23
ENDBRANCH  15  17
ENDBRANCH  13  14
ENDBRANCH   1  13
TORSDOF 6
ENDMDL
MODEL 2
REMARK VINA RESULT:      -6.4      1.033      5.846
REMARK  6 active torsions:
REMARK  status: ('A' for Active; 'I' for Inactive)
REMARK    1  A    between atoms: C_10  and  C_3 
REMARK    2  A    between atoms: S_9  and  C_4 
REMARK       I    between atoms: N_6  and  C_7 
REMARK    3  A    between atoms: C_8  and  N_6 
REMARK    4  A    between atoms: C_7  and  C_14 
REMARK    5  A    between atoms: C_14  and  S_9 
REMARK    6  A    between atoms: O_15  and  C_12 
ROOT
ATOM      1  S   UNL d   1     -46.879  13.589  23.272  0.00  0.00    -0.036 SA
ENDROOT
BRANCH   1   2
ATOM      2  C   UNL d   1     -47.429  14.166  22.981  0.00  0.00     0.236 A 
ATOM      3  O   UNL d   1     -48.228  14.115  23.172  0.00  0.00    -0.263 OA
ATOM      4  C   UNL d   1     -48.617  14.732  22.822  0.00  0.00     0.205 A 
ATOM      5  N   UNL d   1     -48.058  15.177  22.407  0.00  0.00    -0.120 NA
ATOM      6  N   UNL d   1     -47.334  14.832  22.504  0.00  0.00    -0.114 NA
BRANCH   4   7
ATOM      7  C   UNL d   1     -49.417  14.918  22.849  0.00  0.00     0.046 A 
ATOM      8  C   UNL d   1     -49.925  14.616  22.287  0.00  0.00     0.024 A 
ATOM      9  C   UNL d   1     -50.742  14.808  22.318  0.00  0.00     0.099 A 
ATOM     10  N   UNL d   1     -51.021  15.300  22.917  0.00  0.00    -0.242 NA
ATOM     11  C   UNL d   1     -50.488  15.611  23.500  0.00  0.00     0.099 A 
ATOM     12  C   UNL d   1     -49.695  15.416  23.458  0.00  0.00     0.024 A 
ENDBRANCH   4   7
ENDBRANCH   1   2
BRANCH   1  13
ATOM     13  C   UNL d   1     -46.504  13.095  22.726  0.00  0.00     0.101 C 
BRANCH  13  14
ATOM     14  C   UNL d   1     -46.055  12.473  23.021  0.00  0.00     0.286 C 
ATOM     15  N   UNL d   1     -45.356  12.252  22.629  0.00  0.00    -0.206 NA
ATOM     16  O   UNL d   1     -46.273  12.055  23.696  0.00  0.00    -0.265 OA
BRANCH  15  17
ATOM     17  C   UNL d   1     -44.895  11.631  22.911  0.00  0.00     0.107 A 
ATOM     18  C   UNL d   1     -44.074  11.566  22.713  0.00  0.00     0.112 A 
ATOM     19  C   UNL d   1     -43.635  10.953  22.997  0.00  0.00     0.026 A 
ATOM     20  C   UNL d   1     -43.959  10.371  23.483  0.00  0.00     0.002 A 
ATOM     21  C   UNL d   1     -44.756  10.404  23.695  0.00  0.00     0.002 A 
ATOM     22  C   UNL d   1     -45.222  11.031  23.411  0.00  0.00     0.021 A 
BRANCH  18  23
ATOM     23  O   UNL d   1     -43.747  12.167  22.214  0.00  0.00    -0.327 OA
ATOM     24  C   UNL d   1     -42.957  12.050  21.933  0.00  0.00     0.181 C 
ENDBRANCH  18  23
ENDBRANCH  15  17
ENDBRANCH  13  14
ENDBRANCH   1  13
TORSDOF 6
ENDMDL
MODEL 3
REMARK VINA RESULT:      -6.4      1.160      1.451
REMARK  6 active torsions:
REMARK  status: ('A' for Active; 'I' for Inactive)
REMARK    1  A    between atoms: C_10  and  C_3 
REMARK    2  A    between atoms: S_9  and  C_4 
REMARK       I    between atoms: N_6  and  C_7 
REMARK    3  A    between atoms: C_8  and  N_6 
REMARK    4  A    between atoms: C_7  and  C_14 
REMARK    5  A    between atoms: C_14  and  S_9 
REMARK    6  A    between atoms: O_15  and  C_12 
ROOT
ATOM      1  S   UNL d   1     -46.952  13.883  22.940  0.00  0.00    -0.036 SA
ENDROOT
BRANCH   1   2
ATOM      2  C   UNL d   1     -46.321  13.316  22.956  0.00  0.00     0.236 A 
ATOM      3  O   UNL d   1     -45.673  13.400  22.454  0.00  0.00    -0.263 OA
ATOM      4  C   UNL d   1     -45.163  12.786  22.588  0.00  0.00     0.205 A 
ATOM      5  N   UNL d   1     -45.492  12.312  23.180  0.00  0.00    -0.120 NA
ATOM      6  N   UNL d   1     -46.198  12.635  23.403  0.00  0.00    -0.114 NA
BRANCH   4   7
ATOM      7  C   UNL d   1     -44.443  12.628  22.227  0.00  0.00     0.046 A 
ATOM      8  C   UNL d   1     -43.968  12.027  22.509  0.00  0.00     0.024 A 
ATOM      9  C   UNL d   1     -43.232  11.868  22.136  0.00  0.00     0.099 A 
ATOM     10  N   UNL d   1     -42.998  12.321  21.489  0.00  0.00    -0.242 NA
ATOM     11  C   UNL d   1     -43.496  12.944  21.199  0.00  0.00     0.099 A 
ATOM     12  C   UNL d   1     -44.210  13.089  21.571  0.00  0.00     0.024 A 
ENDBRANCH   4   7
ENDBRANCH   1   2
BRANCH   1  13
ATOM     13  C   UNL d   1     -47.725  13.611  23.039  0.00  0.00     0.101 C 
BRANCH  13  14
ATOM     14  C   UNL d   1     -48.330  14.167  23.029  0.00  0.00     0.286 C 
ATOM     15  N   UNL d   1     -49.121  13.913  23.061  0.00  0.00    -0.206 NA
ATOM     16  O   UNL d   1     -48.181  14.976  22.987  0.00  0.00    -0.265 OA
BRANCH  15  17
ATOM     17  C   UNL d   1     -49.738  14.457  23.052  0.00  0.00     0.107 A 
ATOM     18  C   UNL d   1     -50.407  14.358  22.542  0.00  0.00     0.112 A 
ATOM     19  C   UNL d   1     -51.003  14.900  22.544  0.00  0.00     0.026 A 
ATOM     20  C   UNL d   1     -50.991  15.563  23.033  0.00  0.00     0.002 A 
ATOM     21  C   UNL d   1     -50.354  15.690  23.543  0.00  0.00     0.002 A 
ATOM     22  C   UNL d   1     -49.731  15.141  23.553  0.00  0.00     0.021 A 
BRANCH  18  23
ATOM     23  O   UNL d   1     -50.414  13.675  22.042  0.00  0.00    -0.327 OA
ATOM     24  C   UNL d   1     -51.064  13.594  21.504  0.00  0.00     0.181 C 
ENDBRANCH  18  23
ENDBRANCH  15  17
ENDBRANCH  13  14
ENDBRANCH   1  13
TORSDOF 6
ENDMDL
MODEL 4
REMARK VINA RESULT:      -5.4      1.532      5.417
REMARK  6 active torsions:
REMARK  status: ('A' for Active; 'I' for Inactive)
REMARK    1  A    between atoms: C_10  and  C_3 
REMARK    2  A    between atoms: S_9  and  C_4 
REMARK       I    between atoms: N_6  and  C_7 
REMARK    3  A    between atoms: C_8  and  N_6 
REMARK    4  A    between atoms: C_7  and  C_14 
REMARK    5  A    between atoms: C_14  and  S_9 
REMARK    6  A    between atoms: O_15  and  C_12 
ROOT
ATOM      1  S   UNL d   1     -47.014  13.994  22.609  0.00  0.00    -0.036 SA
ENDROOT
BRANCH   1   2
ATOM      2  C   UNL d   1     -47.822  14.047  22.859  0.00  0.00     0.236 A 
ATOM      3  O   UNL d   1     -48.289  13.370  22.907  0.00  0.00    -0.263 OA
ATOM      4  C   UNL d   1     -49.028  13.585  23.158  0.00  0.00     0.205 A 
ATOM      5  N   UNL d   1     -49.027  14.404  23.268  0.00  0.00    -0.120 NA
ATOM      6  N   UNL d   1     -48.292  14.685  23.086  0.00  0.00    -0.114 NA
BRANCH   4   7
ATOM      7  C   UNL d   1     -49.684  13.109  23.290  0.00  0.00     0.046 A 
ATOM      8  C   UNL d   1     -50.395  13.445  23.506  0.00  0.00     0.024 A 
ATOM      9  C   UNL d   1     -51.064  12.955  23.641  0.00  0.00     0.099 A 
ATOM     10  N   UNL d   1     -50.993  12.139  23.553  0.00  0.00    -0.242 NA
ATOM     11  C   UNL d   1     -50.252  11.794  23.329  0.00  0.00     0.099 A 
ATOM     12  C   UNL d   1     -49.608  12.282  23.201  0.00  0.00     0.024 A 
ENDBRANCH   4   7
ENDBRANCH   1   2
BRANCH   1  13
ATOM     13  C   UNL d   1     -46.570  13.342  22.852  0.00  0.00     0.101 C 
BRANCH  13  14
ATOM     14  C   UNL d   1     -45.800  13.277  22.572  0.00  0.00     0.286 C 
ATOM     15  N   UNL d   1     -45.420  12.538  22.585  0.00  0.00    -0.206 NA
ATOM     16  O   UNL d   1     -45.385  13.924  22.276  0.00  0.00    -0.265 OA
BRANCH  15  17
ATOM     17  C   UNL d   1     -44.649  12.456  22.308  0.00  0.00     0.107 A 
ATOM     18  C   UNL d   1     -44.140  11.844  22.596  0.00  0.00     0.112 A 
ATOM     19  C   UNL d   1     -43.387  11.777  22.315  0.00  0.00     0.026 A 
ATOM     20  C   UNL d   1     -43.085  12.291  21.746  0.00  0.00     0.002 A 
ATOM     21  C   UNL d   1     -43.555  12.899  21.444  0.00  0.00     0.002 A 
ATOM     22  C   UNL d   1     -44.333  12.981  21.724  0.00  0.00     0.021 A 
BRANCH  18  23
ATOM     23  O   UNL d   1     -44.456  11.319  23.180  0.00  0.00    -0.327 OA
ATOM     24  C   UNL d   1     -44.009  10.622  23.358  0.00  0.00     0.181 C 
ENDBRANCH  18  23
ENDBRANCH  15  17
ENDBRANCH  13  14
ENDBRANCH   1  13
TORSDOF 6
ENDMDL
MODEL 5
REMARK VINA RESULT:      -5.3      3.989      6.827
REMARK  6 active torsions:
REMARK  status: ('A' for Active; 'I' for Inactive)
REMARK    1  A    between atoms: C_10  and  C_3 
REMARK    2  A    between atoms: S_9  and  C_4 
REMARK       I    between atoms: N_6  and  C_7 
REMARK    3  A    between atoms: C_8  and  N_6 
REMARK    4  A    between atoms: C_7  and  C_14 
REMARK    5  A    between atoms: C_14  and  S_9 
REMARK    6  A    between atoms: O_15  and  C_12 
ROOT
ATOM      1  S   UNL d   1     -43.354  13.072  21.111  0.00  0.00    -0.036 SA
ENDROOT
BRANCH   1   2
ATOM      2  C   UNL d   1     -43.931  12.814  21.677  0.00  0.00     0.236 A 
ATOM      3  O   UNL d   1     -44.631  13.235  21.780  0.00  0.00    -0.263 OA
ATOM      4  C   UNL d   1     -45.072  12.866  22.349  0.00  0.00     0.205 A 
ATOM      5  N   UNL d   1     -44.646  12.207  22.607  0.00  0.00    -0.120 NA
ATOM      6  N   UNL d   1     -43.951  12.175  22.197  0.00  0.00    -0.114 NA
BRANCH   4   7
ATOM      7  C   UNL d   1     -45.809  13.075  22.645  0.00  0.00     0.046 A 
ATOM      8  C   UNL d   1     -46.069  13.846  22.585  0.00  0.00     0.024 A 
ATOM      9  C   UNL d   1     -46.824  14.056  22.888  0.00  0.00     0.099 A 
ATOM     10  N   UNL d   1     -47.294  13.480  23.242  0.00  0.00    -0.242 NA
ATOM     11  C   UNL d   1     -47.019  12.679  23.302  0.00  0.00     0.099 A 
ATOM     12  C   UNL d   1     -46.282  12.488  23.003  0.00  0.00     0.024 A 
ENDBRANCH   4   7
ENDBRANCH   1   2
BRANCH   1  13
ATOM     13  C   UNL d   1     -42.595  13.254  21.380  0.00  0.00     0.101 C 
BRANCH  13  14
ATOM     14  C   UNL d   1     -42.056  13.549  20.834  0.00  0.00     0.286 C 
ATOM     15  N   UNL d   1     -41.500  14.119  21.074  0.00  0.00    -0.206 NA
ATOM     16  O   UNL d   1     -42.045  13.298  20.050  0.00  0.00    -0.265 OA
BRANCH  15  17
ATOM     17  C   UNL d   1     -40.954  14.424  20.539  0.00  0.00     0.107 A 
ATOM     18  C   UNL d   1     -40.430  15.053  20.754  0.00  0.00     0.112 A 
ATOM     19  C   UNL d   1     -39.900  15.341  20.219  0.00  0.00     0.026 A 
ATOM     20  C   UNL d   1     -39.845  15.042  19.452  0.00  0.00     0.002 A 
ATOM     21  C   UNL d   1     -40.341  14.428  19.210  0.00  0.00     0.002 A 
ATOM     22  C   UNL d   1     -40.893  14.121  19.750  0.00  0.00     0.021 A 
BRANCH  18  23
ATOM     23  O   UNL d   1     -40.491  15.356  21.542  0.00  0.00    -0.327 OA
ATOM     24  C   UNL d   1     -39.910  15.922  21.786  0.00  0.00     0.181 C 
ENDBRANCH  18  23
ENDBRANCH  15  17
ENDBRANCH  13  14
ENDBRANCH   1  13
TORSDOF 6
ENDMDL
MODEL 6
REMARK VINA RESULT:      -5.2      3.499      4.842
REMARK  6 active torsions:
REMARK  status: ('A' for Active; 'I' for Inactive)
REMARK    1  A    between atoms: C_10  and  C_3 
REMARK    2  A    between atoms: S_9  and  C_4 
REMARK       I    between atoms: N_6  and  C_7 
REMARK    3  A    between atoms: C_8  and  N_6 
REMARK    4  A    between atoms: C_7  and  C_14 
REMARK    5  A    between atoms: C_14  and  S_9 
REMARK    6  A    between atoms: O_15  and  C_12 
ROOT
ATOM      1  S   UNL d   1     -43.192  12.795  21.627  0.00  0.00    -0.036 SA
ENDROOT
BRANCH   1   2
ATOM      2  C   UNL d   1     -42.580  13.155  21.163  0.00  0.00     0.236 A 
ATOM      3  O   UNL d   1     -42.055  13.689  21.506  0.00  0.00    -0.263 OA
ATOM      4  C   UNL d   1     -41.536  13.941  20.939  0.00  0.00     0.205 A 
ATOM      5  N   UNL d   1     -41.736  13.563  20.231  0.00  0.00    -0.120 NA
ATOM      6  N   UNL d   1     -42.372  13.084  20.368  0.00  0.00    -0.114 NA
BRANCH   4   7
ATOM      7  C   UNL d   1     -40.914  14.472  21.011  0.00  0.00     0.046 A 
ATOM      8  C   UNL d   1     -40.187  14.215  21.276  0.00  0.00     0.024 A 
ATOM      9  C   UNL d   1     -39.552  14.761  21.348  0.00  0.00     0.099 A 
ATOM     10  N   UNL d   1     -39.673  15.551  21.150  0.00  0.00    -0.242 NA
ATOM     11  C   UNL d   1     -40.431  15.814  20.875  0.00  0.00     0.099 A 
ATOM     12  C   UNL d   1     -41.040  15.272  20.809  0.00  0.00     0.024 A 
ENDBRANCH   4   7
ENDBRANCH   1   2
BRANCH   1  13
ATOM     13  C   UNL d   1     -43.973  13.027  21.493  0.00  0.00     0.101 C 
BRANCH  13  14
ATOM     14  C   UNL d   1     -44.544  12.774  22.028  0.00  0.00     0.286 C 
ATOM     15  N   UNL d   1     -45.261  13.190  22.089  0.00  0.00    -0.206 NA
ATOM     16  O   UNL d   1     -44.431  12.116  22.511  0.00  0.00    -0.265 OA
BRANCH  15  17
ATOM     17  C   UNL d   1     -45.842  12.949  22.619  0.00  0.00     0.107 A 
ATOM     18  C   UNL d   1     -46.450  13.479  22.878  0.00  0.00     0.112 A 
ATOM     19  C   UNL d   1     -47.013  13.228  23.398  0.00  0.00     0.026 A 
ATOM     20  C   UNL d   1     -47.023  12.460  23.696  0.00  0.00     0.002 A 
ATOM     21  C   UNL d   1     -46.444  11.918  23.464  0.00  0.00     0.002 A 
ATOM     22  C   UNL d   1     -45.857  12.161  22.929  0.00  0.00     0.021 A 
BRANCH  18  23
ATOM     23  O   UNL d   1     -46.435  14.267  22.568  0.00  0.00    -0.327 OA
ATOM     24  C   UNL d   1     -47.122  14.746  22.693  0.00  0.00     0.181 C 
ENDBRANCH  18  23
ENDBRANCH  15  17
ENDBRANCH  13  14
ENDBRANCH   1  13
TORSDOF 6
ENDMDL
MODEL 7
REMARK VINA RESULT:      -4.6      8.003      9.596
REMARK  6 active torsions:
REMARK  status: ('A' for Active; 'I' for Inactive)
REMARK    1  A    between atoms: C_10  and  C_3 
REMARK    2  A    between atoms: S_9  and  C_4 
REMARK       I    between atoms: N_6  and  C_7 
REMARK    3  A    between atoms: C_8  and  N_6 
REMARK    4  A    between atoms: C_7  and  C_14 
REMARK    5  A    between atoms: C_14  and  S_9 
REMARK    6  A    between atoms: O_15  and  C_12 
ROOT
ATOM      1  S   UNL d   1     -40.370  15.009  19.451  0.00  0.00    -0.036 SA
ENDROOT
BRANCH   1   2
ATOM      2  C   UNL d   1     -40.379  14.697  20.239  0.00  0.00     0.236 A 
ATOM      3  O   UNL d   1     -39.693  14.694  20.695  0.00  0.00    -0.263 OA
ATOM      4  C   UNL d   1     -39.863  14.368  21.415  0.00  0.00     0.205 A 
ATOM      5  N   UNL d   1     -40.664  14.163  21.414  0.00  0.00    -0.120 NA
ATOM      6  N   UNL d   1     -40.978  14.364  20.697  0.00  0.00    -0.114 NA
BRANCH   4   7
ATOM      7  C   UNL d   1     -39.363  14.245  22.055  0.00  0.00     0.046 A 
ATOM      8  C   UNL d   1     -39.101  13.493  22.229  0.00  0.00     0.024 A 
ATOM      9  C   UNL d   1     -38.589  13.371  22.885  0.00  0.00     0.099 A 
ATOM     10  N   UNL d   1     -38.359  14.014  23.345  0.00  0.00    -0.242 NA
ATOM     11  C   UNL d   1     -38.635  14.795  23.160  0.00  0.00     0.099 A 
ATOM     12  C   UNL d   1     -39.132  14.900  22.519  0.00  0.00     0.024 A 
ENDBRANCH   4   7
ENDBRANCH   1   2
BRANCH   1  13
ATOM     13  C   UNL d   1     -40.344  14.478  18.819  0.00  0.00     0.101 C 
BRANCH  13  14
ATOM     14  C   UNL d   1     -40.034  14.746  18.106  0.00  0.00     0.286 C 
ATOM     15  N   UNL d   1     -39.376  14.360  17.775  0.00  0.00    -0.206 NA
ATOM     16  O   UNL d   1     -40.354  15.389  17.703  0.00  0.00    -0.265 OA
BRANCH  15  17
ATOM     17  C   UNL d   1     -39.054  14.616  17.062  0.00  0.00     0.107 A 
ATOM     18  C   UNL d   1     -38.647  14.083  16.545  0.00  0.00     0.112 A 
ATOM     19  C   UNL d   1     -38.337  14.348  15.850  0.00  0.00     0.026 A 
ATOM     20  C   UNL d   1     -38.401  15.136  15.615  0.00  0.00     0.002 A 
ATOM     21  C   UNL d   1     -38.792  15.682  16.095  0.00  0.00     0.002 A 
ATOM     22  C   UNL d   1     -39.117  15.423  16.815  0.00  0.00     0.021 A 
BRANCH  18  23
ATOM     23  O   UNL d   1     -38.585  13.275  16.793  0.00  0.00    -0.327 OA
ATOM     24  C   UNL d   1     -37.940  12.823  16.482  0.00  0.00     0.181 C 
ENDBRANCH  18  23
ENDBRANCH  15  17
ENDBRANCH  13  14
ENDBRANCH   1  13
TORSDOF 6
ENDMDL
MODEL 8
REMARK VINA RESULT:      -4.5      3.076      4.184
REMARK  6 active torsions:
REMARK  status: ('A' for Active; 'I' for Inactive)
REMARK    1  A    between atoms: C_10  and  C_3 
REMARK    2  A    between atoms: S_9  and  C_4 
REMARK       I    between atoms: N_6  and  C_7 
REMARK    3  A    between atoms: C_8  and  N_6 
REMARK    4  A    between atoms: C_7  and  C_14 
REMARK    5  A    between atoms: C_14  and  S_9 
REMARK    6  A    between atoms: O_15  and  C_12 
ROOT
ATOM      1  S   UNL d   1     -44.174  12.973  21.440  0.00  0.00    -0.036 SA
ENDROOT
BRANCH   1   2
ATOM      2  C   UNL d   1     -43.329  13.038  21.441  0.00  0.00     0.236 A 
ATOM      3  O   UNL d   1     -42.961  13.699  21.116  0.00  0.00    -0.263 OA
ATOM      4  C   UNL d   1     -42.160  13.612  21.193  0.00  0.00     0.205 A 
ATOM      5  N   UNL d   1     -42.022  12.890  21.570  0.00  0.00    -0.120 NA
ATOM      6  N   UNL d   1     -42.734  12.540  21.721  0.00  0.00    -0.114 NA
BRANCH   4   7
ATOM      7  C   UNL d   1     -41.562  14.122  20.954  0.00  0.00     0.046 A 
ATOM      8  C   UNL d   1     -40.880  13.824  20.621  0.00  0.00     0.024 A 
ATOM      9  C   UNL d   1     -40.270  14.349  20.378  0.00  0.00     0.099 A 
ATOM     10  N   UNL d   1     -40.370  15.160  20.480  0.00  0.00    -0.242 NA
ATOM     11  C   UNL d   1     -41.081  15.466  20.827  0.00  0.00     0.099 A 
ATOM     12  C   UNL d   1     -41.666  14.944  21.059  0.00  0.00     0.024 A 
ENDBRANCH   4   7
ENDBRANCH   1   2
BRANCH   1  13
ATOM     13  C   UNL d   1     -44.555  12.804  22.153  0.00  0.00     0.101 C 
BRANCH  13  14
ATOM     14  C   UNL d   1     -45.351  13.002  22.218  0.00  0.00     0.286 C 
ATOM     15  N   UNL d   1     -45.750  12.866  22.934  0.00  0.00    -0.206 NA
ATOM     16  O   UNL d   1     -45.772  13.334  21.593  0.00  0.00    -0.265 OA
BRANCH  15  17
ATOM     17  C   UNL d   1     -46.546  13.058  23.015  0.00  0.00     0.107 A 
ATOM     18  C   UNL d   1     -47.110  12.492  23.294  0.00  0.00     0.112 A 
ATOM     19  C   UNL d   1     -47.887  12.695  23.368  0.00  0.00     0.026 A 
ATOM     20  C   UNL d   1     -48.162  13.449  23.178  0.00  0.00     0.002 A 
ATOM     21  C   UNL d   1     -47.638  14.025  22.903  0.00  0.00     0.002 A 
ATOM     22  C   UNL d   1     -46.834  13.831  22.821  0.00  0.00     0.021 A 
BRANCH  18  23
ATOM     23  O   UNL d   1     -46.822  11.720  23.487  0.00  0.00    -0.327 OA
ATOM     24  C   UNL d   1     -47.395  11.133  23.698  0.00  0.00     0.181 C 
ENDBRANCH  18  23
ENDBRANCH  15  17
ENDBRANCH  13  14
ENDBRANCH   1  13
TORSDOF 6
ENDMDL
