MODEL 1
REMARK VINA RESULT:      -5.7      0.000      0.000
REMARK  4 active torsions:
REMARK  status: ('A' for Active; 'I' for Inactive)
REMARK    1  A    between atoms: C_2  and  S_1 
REMARK    2  A    between atoms: N_3  and  S_1 
REMARK    3  A    between atoms: C_14  and  N_3 
REMARK       I    between atoms: C_7  and  N_8 
REMARK    4  A    between atoms: N_8  and  C_15 
ROOT
ATOM      1  S   UNL d   1      58.049   0.187  30.332  0.00  0.00     0.285 S 
ATOM      2  O   UNL d   1      58.660   0.618  30.698  0.00  0.00    -0.198 OA
ATOM      3  O   UNL d   1      57.446  -0.241  29.957  0.00  0.00    -0.198 OA
ENDROOT
BRANCH   1   4
ATOM      4  C   UNL d   1      57.668   0.114  31.078  0.00  0.00     0.105 A 
ATOM      5  C   UNL d   1      57.164  -0.497  31.233  0.00  0.00     0.013 A 
ATOM      6  C   UNL d   1      56.795  -0.560  31.968  0.00  0.00     0.001 A 
ATOM      7  C   UNL d   1      56.269  -1.212  32.106  0.00  0.00     0.000 A 
ATOM      8  C   UNL d   1      56.927  -0.011  32.555  0.00  0.00     0.000 A 
ATOM      9  C   UNL d   1      55.888  -1.300  32.828  0.00  0.00     0.000 A 
ATOM     10  C   UNL d   1      56.029  -0.724  33.438  0.00  0.00     0.000 A 
ATOM     11  C   UNL d   1      56.550  -0.084  33.294  0.00  0.00     0.000 A 
ATOM     12  C   UNL d   1      57.460   0.639  32.399  0.00  0.00     0.001 A 
ATOM     13  C   UNL d   1      57.816   0.682  31.660  0.00  0.00     0.013 A 
ENDBRANCH   1   4
BRANCH   1  14
ATOM     14  N   UNL d   1      58.434   0.265  29.598  0.00  0.00    -0.158 NA
BRANCH  14  15
ATOM     15  C   UNL d   1      58.948  -0.327  29.352  0.00  0.00     0.094 A 
ATOM     16  C   UNL d   1      58.636  -0.903  28.855  0.00  0.00     0.021 A 
ATOM     17  C   UNL d   1      59.139  -1.521  28.588  0.00  0.00     0.021 A 
ATOM     18  C   UNL d   1      59.928  -1.533  28.831  0.00  0.00     0.085 A 
ATOM     19  C   UNL d   1      60.210  -0.940  29.330  0.00  0.00     0.021 A 
ATOM     20  C   UNL d   1      59.721  -0.340  29.590  0.00  0.00     0.021 A 
BRANCH  18  21
ATOM     21  N   UNL d   1      60.434  -2.159  28.559  0.00  0.00    -0.208 NA
ATOM     22  C   UNL d   1      60.431  -2.909  28.955  0.00  0.00     0.279 C 
ATOM     23  O   UNL d   1      59.937  -3.044  29.609  0.00  0.00    -0.265 OA
ATOM     24  C   UNL d   1      60.922  -3.490  28.679  0.00  0.00     0.068 C 
ENDBRANCH  18  21
ENDBRANCH  14  15
ENDBRANCH   1  14
TORSDOF 4
ENDMDL
MODEL 2
REMARK VINA RESULT:      -4.7      1.276      4.456
REMARK  4 active torsions:
REMARK  status: ('A' for Active; 'I' for Inactive)
REMARK    1  A    between atoms: C_2  and  S_1 
REMARK    2  A    between atoms: N_3  and  S_1 
REMARK    3  A    between atoms: C_14  and  N_3 
REMARK       I    between atoms: C_7  and  N_8 
REMARK    4  A    between atoms: N_8  and  C_15 
ROOT
ATOM      1  S   UNL d   1      58.715  -0.003  29.755  0.00  0.00     0.285 S 
ATOM      2  O   UNL d   1      59.386   0.107  30.236  0.00  0.00    -0.198 OA
ATOM      3  O   UNL d   1      58.042  -0.104  29.281  0.00  0.00    -0.198 OA
ENDROOT
BRANCH   1   4
ATOM      4  C   UNL d   1      59.074  -0.691  29.431  0.00  0.00     0.105 A 
ATOM      5  C   UNL d   1      58.685  -1.398  29.412  0.00  0.00     0.013 A 
ATOM      6  C   UNL d   1      59.046  -2.067  29.092  0.00  0.00     0.001 A 
ATOM      7  C   UNL d   1      58.615  -2.799  29.085  0.00  0.00     0.000 A 
ATOM      8  C   UNL d   1      59.800  -2.034  28.788  0.00  0.00     0.000 A 
ATOM      9  C   UNL d   1      58.950  -3.481  28.772  0.00  0.00     0.000 A 
ATOM     10  C   UNL d   1      59.738  -3.442  28.455  0.00  0.00     0.000 A 
ATOM     11  C   UNL d   1      60.155  -2.716  28.467  0.00  0.00     0.000 A 
ATOM     12  C   UNL d   1      60.220  -1.290  28.803  0.00  0.00     0.001 A 
ATOM     13  C   UNL d   1      59.841  -0.637  29.127  0.00  0.00     0.013 A 
ENDBRANCH   1   4
BRANCH   1  14
ATOM     14  N   UNL d   1      58.368   0.679  30.082  0.00  0.00    -0.158 NA
BRANCH  14  15
ATOM     15  C   UNL d   1      57.909   0.607  30.760  0.00  0.00     0.094 A 
ATOM     16  C   UNL d   1      57.096   0.676  30.665  0.00  0.00     0.021 A 
ATOM     17  C   UNL d   1      56.603   0.607  31.341  0.00  0.00     0.021 A 
ATOM     18  C   UNL d   1      56.946   0.473  32.079  0.00  0.00     0.085 A 
ATOM     19  C   UNL d   1      57.766   0.409  32.142  0.00  0.00     0.021 A 
ATOM     20  C   UNL d   1      58.245   0.476  31.484  0.00  0.00     0.021 A 
BRANCH  18  21
ATOM     21  N   UNL d   1      56.445   0.404  32.762  0.00  0.00    -0.208 NA
ATOM     22  C   UNL d   1      56.082  -0.340  32.948  0.00  0.00     0.279 C 
ATOM     23  O   UNL d   1      56.209  -1.007  32.470  0.00  0.00    -0.265 OA
ATOM     24  C   UNL d   1      55.609  -0.383  33.603  0.00  0.00     0.068 C 
ENDBRANCH  18  21
ENDBRANCH  14  15
ENDBRANCH   1  14
TORSDOF 4
ENDMDL
MODEL 3
REMARK VINA RESULT:      -3.0      1.625      2.022
REMARK  4 active torsions:
REMARK  status: ('A' for Active; 'I' for Inactive)
REMARK    1  A    between atoms: C_2  and  S_1 
REMARK    2  A    between atoms: N_3  and  S_1 
REMARK    3  A    between atoms: C_14  and  N_3 
REMARK       I    between atoms: C_7  and  N_8 
REMARK    4  A    between atoms: N_8  and  C_15 
ROOT
ATOM      1  S   UNL d   1      56.794  -0.135  31.463  0.00  0.00     0.285 S 
ATOM      2  O   UNL d   1      56.679   0.669  31.280  0.00  0.00    -0.198 OA
ATOM      3  O   UNL d   1      56.909  -0.938  31.635  0.00  0.00    -0.198 OA
ENDROOT
BRANCH   1   4
ATOM      4  C   UNL d   1      56.634   0.037  32.270  0.00  0.00     0.105 A 
ATOM      5  C   UNL d   1      55.918  -0.135  32.602  0.00  0.00     0.013 A 
ATOM      6  C   UNL d   1      55.771   0.039  33.395  0.00  0.00     0.001 A 
ATOM      7  C   UNL d   1      55.010  -0.152  33.719  0.00  0.00     0.000 A 
ATOM      8  C   UNL d   1      56.339   0.385  33.863  0.00  0.00     0.000 A 
ATOM      9  C   UNL d   1      54.835   0.009  34.506  0.00  0.00     0.000 A 
ATOM     10  C   UNL d   1      55.433   0.372  34.992  0.00  0.00     0.000 A 
ATOM     11  C   UNL d   1      56.180   0.556  34.663  0.00  0.00     0.000 A 
ATOM     12  C   UNL d   1      57.100   0.571  33.520  0.00  0.00     0.001 A 
ATOM     13  C   UNL d   1      57.225   0.390  32.729  0.00  0.00     0.013 A 
ENDBRANCH   1   4
BRANCH   1  14
ATOM     14  N   UNL d   1      56.950  -0.296  30.662  0.00  0.00    -0.158 NA
BRANCH  14  15
ATOM     15  C   UNL d   1      57.730  -0.346  30.410  0.00  0.00     0.094 A 
ATOM     16  C   UNL d   1      57.995  -1.087  30.173  0.00  0.00     0.021 A 
ATOM     17  C   UNL d   1      58.789  -1.167  29.911  0.00  0.00     0.021 A 
ATOM     18  C   UNL d   1      59.279  -0.504  29.897  0.00  0.00     0.085 A 
ATOM     19  C   UNL d   1      58.983   0.227  30.141  0.00  0.00     0.021 A 
ATOM     20  C   UNL d   1      58.211   0.305  30.396  0.00  0.00     0.021 A 
BRANCH  18  21
ATOM     21  N   UNL d   1      60.082  -0.587  29.631  0.00  0.00    -0.208 NA
ATOM     22  C   UNL d   1      60.365  -0.118  28.984  0.00  0.00     0.279 C 
ATOM     23  O   UNL d   1      59.868   0.427  28.603  0.00  0.00    -0.265 OA
ATOM     24  C   UNL d   1      61.133  -0.215  28.748  0.00  0.00     0.068 C 
ENDBRANCH  18  21
ENDBRANCH  14  15
ENDBRANCH   1  14
TORSDOF 4
ENDMDL
