MODEL 1
REMARK VINA RESULT:      -4.7      0.000      0.000
REMARK  4 active torsions:
REMARK  status: ('A' for Active; 'I' for Inactive)
REMARK    1  A    between atoms: N_2  and  C_1 
REMARK    2  A    between atoms: C_4  and  C_1 
REMARK    3  A    between atoms: C_8  and  N_2 
REMARK    4  A    between atoms: N_7  and  C_6 
ROOT
ATOM      1  C   UNL d   1      55.942   0.102  33.133  0.00  0.00     0.064 A 
ATOM      2  C   UNL d   1      56.705  -0.255  31.719  0.00  0.00     0.083 A 
ATOM      3  C   UNL d   1      56.028   0.682  32.551  0.00  0.00     0.019 A 
ATOM      4  C   UNL d   1      56.239  -0.657  33.003  0.00  0.00     0.019 A 
ATOM      5  C   UNL d   1      56.410   0.507  31.840  0.00  0.00     0.021 A 
ATOM      6  C   UNL d   1      56.622  -0.841  32.297  0.00  0.00     0.021 A 
ENDROOT
BRANCH   2   7
ATOM      7  N   UNL d   1      57.088  -0.437  31.010  0.00  0.00    -0.233 NA
BRANCH   7   8
ATOM      8  C   UNL d   1      57.760  -0.010  30.787  0.00  0.00     0.153 C 
ATOM      9  S   UNL d   1      58.081   0.559  31.295  0.00  0.00    -0.056 SA
BRANCH   8  10
ATOM     10  C   UNL d   1      58.115  -0.153  30.048  0.00  0.00     0.109 A 
ATOM     11  N   UNL d   1      58.048   0.411  29.442  0.00  0.00    -0.242 NA
ATOM     12  C   UNL d   1      58.398   0.273  28.707  0.00  0.00     0.099 A 
ATOM     13  C   UNL d   1      58.815  -0.428  28.577  0.00  0.00     0.021 A 
ATOM     14  C   UNL d   1      58.882  -0.992  29.183  0.00  0.00     0.003 A 
ATOM     15  C   UNL d   1      58.531  -0.853  29.917  0.00  0.00     0.021 A 
ENDBRANCH   8  10
ENDBRANCH   7   8
ENDBRANCH   2   7
BRANCH   1  16
ATOM     16  N   UNL d   1      55.560   0.277  33.843  0.00  0.00    -0.301 N 
ATOM     17  C   UNL d   1      55.966   0.670  34.446  0.00  0.00     0.100 C 
ATOM     18  C   UNL d   1      54.772   0.059  33.949  0.00  0.00     0.100 C 
ENDBRANCH   1  16
TORSDOF 4
ENDMDL
MODEL 2
REMARK VINA RESULT:      -4.5      0.950      4.391
REMARK  4 active torsions:
REMARK  status: ('A' for Active; 'I' for Inactive)
REMARK    1  A    between atoms: N_2  and  C_1 
REMARK    2  A    between atoms: C_4  and  C_1 
REMARK    3  A    between atoms: C_8  and  N_2 
REMARK    4  A    between atoms: N_7  and  C_6 
ROOT
ATOM      1  C   UNL d   1      59.051  -0.058  29.339  0.00  0.00     0.064 A 
ATOM      2  C   UNL d   1      57.750  -0.114  30.345  0.00  0.00     0.083 A 
ATOM      3  C   UNL d   1      58.703   0.642  29.605  0.00  0.00     0.019 A 
ATOM      4  C   UNL d   1      58.745  -0.786  29.579  0.00  0.00     0.019 A 
ATOM      5  C   UNL d   1      58.051   0.618  30.110  0.00  0.00     0.021 A 
ATOM      6  C   UNL d   1      58.093  -0.819  30.083  0.00  0.00     0.021 A 
ENDROOT
BRANCH   2   7
ATOM      7  N   UNL d   1      57.097  -0.144  30.850  0.00  0.00    -0.233 NA
BRANCH   7   8
ATOM      8  C   UNL d   1      57.183   0.072  31.644  0.00  0.00     0.153 C 
ATOM      9  S   UNL d   1      57.840   0.511  31.888  0.00  0.00    -0.056 SA
BRANCH   8  10
ATOM     10  C   UNL d   1      56.605  -0.153  32.198  0.00  0.00     0.109 A 
ATOM     11  N   UNL d   1      56.498  -0.957  32.379  0.00  0.00    -0.242 NA
ATOM     12  C   UNL d   1      55.926  -1.185  32.929  0.00  0.00     0.099 A 
ATOM     13  C   UNL d   1      55.460  -0.612  33.298  0.00  0.00     0.021 A 
ATOM     14  C   UNL d   1      55.567   0.192  33.117  0.00  0.00     0.003 A 
ATOM     15  C   UNL d   1      56.139   0.419  32.567  0.00  0.00     0.021 A 
ENDBRANCH   8  10
ENDBRANCH   7   8
ENDBRANCH   2   7
BRANCH   1  16
ATOM     16  N   UNL d   1      59.704  -0.035  28.835  0.00  0.00    -0.301 N 
ATOM     17  C   UNL d   1      60.087   0.682  28.685  0.00  0.00     0.100 C 
ATOM     18  C   UNL d   1      59.973  -0.730  28.480  0.00  0.00     0.100 C 
ENDBRANCH   1  16
TORSDOF 4
ENDMDL
MODEL 3
REMARK VINA RESULT:      -4.3      0.805      1.119
REMARK  4 active torsions:
REMARK  status: ('A' for Active; 'I' for Inactive)
REMARK    1  A    between atoms: N_2  and  C_1 
REMARK    2  A    between atoms: C_4  and  C_1 
REMARK    3  A    between atoms: C_8  and  N_2 
REMARK    4  A    between atoms: N_7  and  C_6 
ROOT
ATOM      1  C   UNL d   1      56.218  -0.290  32.574  0.00  0.00     0.064 A 
ATOM      2  C   UNL d   1      57.047   0.076  31.201  0.00  0.00     0.083 A 
ATOM      3  C   UNL d   1      56.611  -0.885  32.157  0.00  0.00     0.019 A 
ATOM      4  C   UNL d   1      56.243   0.488  32.301  0.00  0.00     0.019 A 
ATOM      5  C   UNL d   1      57.028  -0.705  31.467  0.00  0.00     0.021 A 
ATOM      6  C   UNL d   1      56.657   0.677  31.614  0.00  0.00     0.021 A 
ENDROOT
BRANCH   2   7
ATOM      7  N   UNL d   1      57.463   0.262  30.511  0.00  0.00    -0.233 NA
BRANCH   7   8
ATOM      8  C   UNL d   1      58.273   0.426  30.553  0.00  0.00     0.153 C 
ATOM      9  S   UNL d   1      58.610   0.682  31.263  0.00  0.00    -0.056 SA
BRANCH   8  10
ATOM     10  C   UNL d   1      58.748   0.334  29.877  0.00  0.00     0.109 A 
ATOM     11  N   UNL d   1      58.474   0.603  29.140  0.00  0.00    -0.242 NA
ATOM     12  C   UNL d   1      58.943   0.513  28.467  0.00  0.00     0.099 A 
ATOM     13  C   UNL d   1      59.684   0.156  28.528  0.00  0.00     0.021 A 
ATOM     14  C   UNL d   1      59.958  -0.113  29.265  0.00  0.00     0.003 A 
ATOM     15  C   UNL d   1      59.489  -0.023  29.937  0.00  0.00     0.021 A 
ENDBRANCH   8  10
ENDBRANCH   7   8
ENDBRANCH   2   7
BRANCH   1  16
ATOM     16  N   UNL d   1      55.801  -0.469  33.264  0.00  0.00    -0.301 N 
ATOM     17  C   UNL d   1      55.666   0.116  33.830  0.00  0.00     0.100 C 
ATOM     18  C   UNL d   1      55.521  -1.236  33.385  0.00  0.00     0.100 C 
ENDBRANCH   1  16
TORSDOF 4
ENDMDL
MODEL 4
REMARK VINA RESULT:      -2.3      1.684      4.655
REMARK  4 active torsions:
REMARK  status: ('A' for Active; 'I' for Inactive)
REMARK    1  A    between atoms: N_2  and  C_1 
REMARK    2  A    between atoms: C_4  and  C_1 
REMARK    3  A    between atoms: C_8  and  N_2 
REMARK    4  A    between atoms: N_7  and  C_6 
ROOT
ATOM      1  C   UNL d   1      59.564  -2.467  28.917  0.00  0.00     0.064 A 
ATOM      2  C   UNL d   1      58.576  -1.258  29.438  0.00  0.00     0.083 A 
ATOM      3  C   UNL d   1      59.469  -1.784  28.462  0.00  0.00     0.019 A 
ATOM      4  C   UNL d   1      59.163  -2.541  29.635  0.00  0.00     0.019 A 
ATOM      5  C   UNL d   1      58.975  -1.176  28.719  0.00  0.00     0.021 A 
ATOM      6  C   UNL d   1      58.667  -1.938  29.900  0.00  0.00     0.021 A 
ENDROOT
BRANCH   2   7
ATOM      7  N   UNL d   1      58.080  -0.652  29.702  0.00  0.00    -0.233 NA
BRANCH   7   8
ATOM      8  C   UNL d   1      58.376  -0.074  30.213  0.00  0.00     0.153 C 
ATOM      9  S   UNL d   1      59.123   0.255  30.083  0.00  0.00    -0.056 SA
BRANCH   8  10
ATOM     10  C   UNL d   1      57.919   0.177  30.862  0.00  0.00     0.109 A 
ATOM     11  N   UNL d   1      57.090   0.168  30.810  0.00  0.00    -0.242 NA
ATOM     12  C   UNL d   1      56.632   0.416  31.450  0.00  0.00     0.099 A 
ATOM     13  C   UNL d   1      57.001   0.673  32.143  0.00  0.00     0.021 A 
ATOM     14  C   UNL d   1      57.830   0.682  32.194  0.00  0.00     0.003 A 
ATOM     15  C   UNL d   1      58.287   0.434  31.554  0.00  0.00     0.021 A 
ENDBRANCH   8  10
ENDBRANCH   7   8
ENDBRANCH   2   7
BRANCH   1  16
ATOM     16  N   UNL d   1      60.059  -3.075  28.659  0.00  0.00    -0.301 N 
ATOM     17  C   UNL d   1      60.872  -2.947  28.591  0.00  0.00     0.100 C 
ATOM     18  C   UNL d   1      59.738  -3.812  28.470  0.00  0.00     0.100 C 
ENDBRANCH   1  16
TORSDOF 4
ENDMDL
