MODEL 1
REMARK VINA RESULT:      29.8      0.000      0.000
REMARK  7 active torsions:
REMARK  status: ('A' for Active; 'I' for Inactive)
REMARK    1  A    between atoms: S_2  and  N_1 
REMARK    2  A    between atoms: C_3  and  N_1 
REMARK       I    between atoms: C_4  and  N_1 
REMARK    3  A    between atoms: C_10  and  S_2 
REMARK    4  A    between atoms: C_15  and  C_4 
REMARK    5  A    between atoms: C_6  and  O_8 
REMARK    6  A    between atoms: C_18  and  C_6 
REMARK    7  A    between atoms: O_8  and  C_7 
ROOT
ATOM      1  C   UNL d   1     -42.216-122.053 -51.677  0.00  0.00     0.078 A 
ATOM      2  C   UNL d   1     -42.887-122.019 -51.208  0.00  0.00     0.019 A 
ATOM      3  C   UNL d   1     -42.398-122.996 -50.338  0.00  0.00     0.103 A 
ATOM      4  C   UNL d   1     -42.980-122.479 -50.551  0.00  0.00     0.024 A 
ATOM      5  C   UNL d   1     -41.627-122.572 -51.467  0.00  0.00     0.020 A 
ATOM      6  C   UNL d   1     -41.719-123.038 -50.804  0.00  0.00     0.026 A 
ATOM      7  C   UNL d   1     -43.478-121.489 -51.431  0.00  0.00     0.002 A 
ATOM      8  C   UNL d   1     -43.659-122.443 -50.079  0.00  0.00     0.002 A 
ATOM      9  C   UNL d   1     -44.149-121.455 -50.962  0.00  0.00     0.000 A 
ATOM     10  C   UNL d   1     -44.243-121.915 -50.305  0.00  0.00     0.000 A 
ENDROOT
BRANCH   1  11
ATOM     11  N   UNL d   1     -42.128-121.565 -52.366  0.00  0.00    -0.198 N 
ATOM     12  C   UNL d   1     -41.933-120.750 -52.266  0.00  0.00     0.274 C 
ATOM     13  O   UNL d   1     -41.832-120.444 -51.515  0.00  0.00    -0.266 OA
BRANCH  11  14
ATOM     14  S   UNL d   1     -42.227-121.863 -53.134  0.00  0.00     0.274 S 
ATOM     15  O   UNL d   1     -42.995-121.474 -53.198  0.00  0.00    -0.200 OA
ATOM     16  O   UNL d   1     -41.493-122.233 -53.068  0.00  0.00    -0.200 OA
BRANCH  14  17
ATOM     17  C   UNL d   1     -42.307-122.184 -53.925  0.00  0.00     0.104 A 
ATOM     18  C   UNL d   1     -43.012-122.233 -54.261  0.00  0.00     0.013 A 
ATOM     19  C   UNL d   1     -43.123-122.546 -55.043  0.00  0.00     0.001 A 
ATOM     20  C   UNL d   1     -42.470-122.803 -55.456  0.00  0.00     0.000 A 
ATOM     21  C   UNL d   1     -41.674-122.758 -55.100  0.00  0.00     0.001 A 
ATOM     22  C   UNL d   1     -42.620-123.106 -56.225  0.00  0.00     0.000 C 
ATOM     23  C   UNL d   1     -41.603-122.435 -54.305  0.00  0.00     0.013 A 
ENDBRANCH  14  17
ENDBRANCH  11  14
BRANCH  12  24
ATOM     24  C   UNL d   1     -41.850-120.287 -52.933  0.00  0.00     0.060 A 
ATOM     25  C   UNL d   1     -42.498-119.799 -53.164  0.00  0.00     0.025 A 
ATOM     26  C   UNL d   1     -42.448-119.329 -53.819  0.00  0.00     0.099 A 
ATOM     27  N   UNL d   1     -41.769-119.317 -54.271  0.00  0.00    -0.242 NA
ATOM     28  C   UNL d   1     -41.123-119.795 -54.052  0.00  0.00     0.099 A 
ATOM     29  C   UNL d   1     -41.160-120.262 -53.409  0.00  0.00     0.025 A 
ENDBRANCH  12  24
ENDBRANCH   1  11
BRANCH   3  30
ATOM     30  O   UNL d   1     -42.486-123.485 -49.649  0.00  0.00    -0.273 OA
BRANCH  30  31
ATOM     31  C   UNL d   1     -41.878-123.658 -49.102  0.00  0.00     0.300 C 
ATOM     32  O   UNL d   1     -41.124-123.810 -49.317  0.00  0.00    -0.259 OA
BRANCH  31  33
ATOM     33  C   UNL d   1     -42.072-123.672 -48.304  0.00  0.00     0.067 A 
ATOM     34  C   UNL d   1     -42.854-123.561 -48.034  0.00  0.00     0.026 A 
ATOM     35  C   UNL d   1     -43.016-123.583 -47.195  0.00  0.00     0.099 A 
ATOM     36  N   UNL d   1     -42.434-123.706 -46.676  0.00  0.00    -0.242 NA
ATOM     37  C   UNL d   1     -41.668-123.817 -46.899  0.00  0.00     0.099 A 
ATOM     38  C   UNL d   1     -41.504-123.797 -47.719  0.00  0.00     0.026 A 
ENDBRANCH  31  33
ENDBRANCH  30  31
ENDBRANCH   3  30
TORSDOF 7
ENDMDL
