MODEL 1
REMARK VINA RESULT:       0.6      0.000      0.000
REMARK  2 active torsions:
REMARK  status: ('A' for Active; 'I' for Inactive)
REMARK    1  A    between atoms: N_9  and  C_3 
REMARK    2  A    between atoms: C_11  and  C_4 
ROOT
ATOM      1  N   UNL d   1      59.732  -9.433  31.744  0.00  0.00    -0.196 N 
ATOM      2  C   UNL d   1      59.745  -9.375  32.571  0.00  0.00     0.167 A 
ATOM      3  C   UNL d   1      59.022  -9.622  31.358  0.00  0.00     0.153 A 
ATOM      4  C   UNL d   1      60.439  -9.190  32.961  0.00  0.00     0.057 A 
ATOM      5  N   UNL d   1      61.125  -9.118  31.692  0.00  0.00    -0.161 NA
ATOM      6  N   UNL d   1      59.056  -9.504  33.004  0.00  0.00    -0.227 NA
ATOM      7  C   UNL d   1      58.344  -9.747  31.796  0.00  0.00     0.057 A 
ATOM      8  C   UNL d   1      61.133  -9.061  32.519  0.00  0.00     0.124 A 
ATOM      9  C   UNL d   1      58.361  -9.688  32.622  0.00  0.00     0.086 A 
ATOM     10  C   UNL d   1      57.672  -9.817  33.055  0.00  0.00     0.021 C 
ENDROOT
BRANCH   4  11
ATOM     11  C   UNL d   1      60.457  -9.132  33.784  0.00  0.00     0.004 A 
ATOM     12  C   UNL d   1      60.239  -8.423  34.151  0.00  0.00     0.000 A 
ATOM     13  C   UNL d   1      60.256  -8.365  34.974  0.00  0.00     0.000 A 
ATOM     14  C   UNL d   1      60.495  -9.026  35.430  0.00  0.00     0.000 A 
ATOM     15  C   UNL d   1      60.709  -9.722  35.048  0.00  0.00     0.000 A 
ATOM     16  C   UNL d   1      60.513  -8.968  36.253  0.00  0.00     0.000 C 
ATOM     17  C   UNL d   1      60.691  -9.781  34.230  0.00  0.00     0.000 A 
ENDBRANCH   4  11
BRANCH   3  18
ATOM     18  N   UNL d   1      59.004  -9.682  30.506  0.00  0.00    -0.285 N 
ATOM     19  C   UNL d   1      58.253  -9.756  30.105  0.00  0.00     0.108 A 
ATOM     20  C   UNL d   1      58.241  -9.816  29.260  0.00  0.00     0.142 A 
ATOM     21  O   UNL d   1      58.981  -9.803  28.803  0.00  0.00    -0.300 OA
ATOM     22  C   UNL d   1      59.709  -9.729  29.223  0.00  0.00     0.142 A 
ATOM     23  C   UNL d   1      59.726  -9.669  30.067  0.00  0.00     0.108 A 
ENDBRANCH   3  18
TORSDOF 2
ENDMDL
MODEL 2
REMARK VINA RESULT:       2.2      9.748     10.570
REMARK  2 active torsions:
REMARK  status: ('A' for Active; 'I' for Inactive)
REMARK    1  A    between atoms: N_9  and  C_3 
REMARK    2  A    between atoms: C_11  and  C_4 
ROOT
ATOM      1  N   UNL d   1      57.426   0.170  31.606  0.00  0.00    -0.196 N 
ATOM      2  C   UNL d   1      58.134   0.172  31.175  0.00  0.00     0.167 A 
ATOM      3  C   UNL d   1      57.441   0.340  32.418  0.00  0.00     0.153 A 
ATOM      4  C   UNL d   1      58.132   0.005  30.374  0.00  0.00     0.057 A 
ATOM      5  N   UNL d   1      56.699  -0.171  30.424  0.00  0.00    -0.161 NA
ATOM      6  N   UNL d   1      58.846   0.343  31.553  0.00  0.00    -0.227 NA
ATOM      7  C   UNL d   1      58.151   0.509  32.784  0.00  0.00     0.057 A 
ATOM      8  C   UNL d   1      57.410  -0.167  29.997  0.00  0.00     0.124 A 
ATOM      9  C   UNL d   1      58.857   0.510  32.349  0.00  0.00     0.086 A 
ATOM     10  C   UNL d   1      59.569   0.682  32.727  0.00  0.00     0.021 C 
ENDROOT
BRANCH   4  11
ATOM     11  C   UNL d   1      58.834   0.007  29.942  0.00  0.00     0.004 A 
ATOM     12  C   UNL d   1      59.030   0.662  29.476  0.00  0.00     0.000 A 
ATOM     13  C   UNL d   1      59.732   0.663  29.044  0.00  0.00     0.000 A 
ATOM     14  C   UNL d   1      60.242  -0.002  29.081  0.00  0.00     0.000 A 
ATOM     15  C   UNL d   1      60.031  -0.644  29.549  0.00  0.00     0.000 A 
ATOM     16  C   UNL d   1      60.944  -0.001  28.648  0.00  0.00     0.000 C 
ATOM     17  C   UNL d   1      59.332  -0.646  29.979  0.00  0.00     0.000 A 
ENDBRANCH   4  11
BRANCH   3  18
ATOM     18  N   UNL d   1      56.713   0.339  32.867  0.00  0.00    -0.285 N 
ATOM     19  C   UNL d   1      56.008   0.677  32.525  0.00  0.00     0.108 A 
ATOM     20  C   UNL d   1      55.289   0.673  32.973  0.00  0.00     0.142 A 
ATOM     21  O   UNL d   1      55.266   0.330  33.772  0.00  0.00    -0.300 OA
ATOM     22  C   UNL d   1      55.976   0.002  34.087  0.00  0.00     0.142 A 
ATOM     23  C   UNL d   1      56.697   0.004  33.642  0.00  0.00     0.108 A 
ENDBRANCH   3  18
TORSDOF 2
ENDMDL
MODEL 3
REMARK VINA RESULT:       2.4      1.917      4.249
REMARK  2 active torsions:
REMARK  status: ('A' for Active; 'I' for Inactive)
REMARK    1  A    between atoms: N_9  and  C_3 
REMARK    2  A    between atoms: C_11  and  C_4 
ROOT
ATOM      1  N   UNL d   1      59.710  -9.240  33.277  0.00  0.00    -0.196 N 
ATOM      2  C   UNL d   1      59.637  -9.368  32.461  0.00  0.00     0.167 A 
ATOM      3  C   UNL d   1      59.038  -9.296  33.762  0.00  0.00     0.153 A 
ATOM      4  C   UNL d   1      60.291  -9.315  31.974  0.00  0.00     0.057 A 
ATOM      5  N   UNL d   1      61.110  -9.003  33.121  0.00  0.00    -0.161 NA
ATOM      6  N   UNL d   1      58.901  -9.549  32.137  0.00  0.00    -0.227 NA
ATOM      7  C   UNL d   1      58.314  -9.476  33.431  0.00  0.00     0.057 A 
ATOM      8  C   UNL d   1      61.032  -9.131  32.306  0.00  0.00     0.124 A 
ATOM      9  C   UNL d   1      58.245  -9.603  32.615  0.00  0.00     0.086 A 
ATOM     10  C   UNL d   1      57.509  -9.785  32.291  0.00  0.00     0.021 C 
ENDROOT
BRANCH   4  11
ATOM     11  C   UNL d   1      60.222  -9.441  31.161  0.00  0.00     0.004 A 
ATOM     12  C   UNL d   1      60.893  -9.627  30.715  0.00  0.00     0.000 A 
ATOM     13  C   UNL d   1      60.825  -9.754  29.903  0.00  0.00     0.000 A 
ATOM     14  C   UNL d   1      60.072  -9.692  29.537  0.00  0.00     0.000 A 
ATOM     15  C   UNL d   1      59.416  -9.506  29.997  0.00  0.00     0.000 A 
ATOM     16  C   UNL d   1      60.003  -9.818  28.725  0.00  0.00     0.000 C 
ATOM     17  C   UNL d   1      59.485  -9.380  30.805  0.00  0.00     0.000 A 
ENDBRANCH   4  11
BRANCH   3  18
ATOM     18  N   UNL d   1      59.109  -9.165  34.604  0.00  0.00    -0.285 N 
ATOM     19  C   UNL d   1      59.242  -8.374  34.897  0.00  0.00     0.108 A 
ATOM     20  C   UNL d   1      59.312  -8.249  35.732  0.00  0.00     0.142 A 
ATOM     21  O   UNL d   1      59.250  -8.917  36.287  0.00  0.00    -0.300 OA
ATOM     22  C   UNL d   1      59.119  -9.688  35.972  0.00  0.00     0.142 A 
ATOM     23  C   UNL d   1      59.048  -9.818  35.138  0.00  0.00     0.108 A 
ENDBRANCH   3  18
TORSDOF 2
ENDMDL
MODEL 4
REMARK VINA RESULT:       2.9      9.018      9.480
REMARK  2 active torsions:
REMARK  status: ('A' for Active; 'I' for Inactive)
REMARK    1  A    between atoms: N_9  and  C_3 
REMARK    2  A    between atoms: C_11  and  C_4 
ROOT
ATOM      1  N   UNL d   1      57.359  -0.859  31.092  0.00  0.00    -0.196 N 
ATOM      2  C   UNL d   1      57.159  -0.515  31.819  0.00  0.00     0.167 A 
ATOM      3  C   UNL d   1      58.091  -0.683  30.743  0.00  0.00     0.153 A 
ATOM      4  C   UNL d   1      56.440  -0.681  32.172  0.00  0.00     0.057 A 
ATOM      5  N   UNL d   1      56.107  -1.547  31.065  0.00  0.00    -0.161 NA
ATOM      6  N   UNL d   1      57.686  -0.002  32.190  0.00  0.00    -0.227 NA
ATOM      7  C   UNL d   1      58.607  -0.174  31.118  0.00  0.00     0.057 A 
ATOM      8  C   UNL d   1      55.911  -1.201  31.793  0.00  0.00     0.124 A 
ATOM      9  C   UNL d   1      58.403   0.169  31.845  0.00  0.00     0.086 A 
ATOM     10  C   UNL d   1      58.930   0.682  32.216  0.00  0.00     0.021 C 
ENDROOT
BRANCH   4  11
ATOM     11  C   UNL d   1      56.238  -0.341  32.895  0.00  0.00     0.004 A 
ATOM     12  C   UNL d   1      55.751   0.327  32.914  0.00  0.00     0.000 A 
ATOM     13  C   UNL d   1      55.548   0.668  33.638  0.00  0.00     0.000 A 
ATOM     14  C   UNL d   1      55.840   0.332  34.349  0.00  0.00     0.000 A 
ATOM     15  C   UNL d   1      56.323  -0.333  34.311  0.00  0.00     0.000 A 
ATOM     16  C   UNL d   1      55.637   0.672  35.072  0.00  0.00     0.000 C 
ATOM     17  C   UNL d   1      56.524  -0.672  33.591  0.00  0.00     0.000 A 
ENDBRANCH   4  11
BRANCH   3  18
ATOM     18  N   UNL d   1      58.301  -1.036  29.993  0.00  0.00    -0.285 N 
ATOM     19  C   UNL d   1      58.611  -1.832  29.974  0.00  0.00     0.108 A 
ATOM     20  C   UNL d   1      58.817  -2.177  29.229  0.00  0.00     0.142 A 
ATOM     21  O   UNL d   1      58.716  -1.730  28.490  0.00  0.00    -0.300 OA
ATOM     22  C   UNL d   1      58.409  -0.946  28.535  0.00  0.00     0.142 A 
ATOM     23  C   UNL d   1      58.201  -0.596  29.278  0.00  0.00     0.108 A 
ENDBRANCH   3  18
TORSDOF 2
ENDMDL
