MODEL 1
REMARK VINA RESULT:       3.9      0.000      0.000
REMARK  2 active torsions:
REMARK  status: ('A' for Active; 'I' for Inactive)
REMARK    1  A    between atoms: C_5  and  C_1 
REMARK    2  A    between atoms: N_7  and  C_3 
REMARK       I    between atoms: C_8  and  N_7 
ROOT
ATOM      1  C   UNL d   1     -55.281-102.453 -37.637  0.00  0.00     0.231 A 
ATOM      2  O   UNL d   1     -54.711-102.485 -38.236  0.00  0.00    -0.252 OA
ATOM      3  C   UNL d   1     -55.081-102.750 -38.923  0.00  0.00     0.297 A 
ATOM      4  N   UNL d   1     -55.993-102.697 -37.959  0.00  0.00    -0.117 NA
ATOM      5  N   UNL d   1     -55.870-102.880 -38.751  0.00  0.00    -0.101 NA
ENDROOT
BRANCH   1   6
ATOM      6  C   UNL d   1     -55.145-102.215 -36.857  0.00  0.00     0.168 A 
ATOM      7  O   UNL d   1     -54.851-101.463 -36.707  0.00  0.00    -0.297 OA
ATOM      8  C   UNL d   1     -54.717-101.229 -35.938  0.00  0.00     0.149 A 
ATOM      9  C   UNL d   1     -54.874-101.738 -35.317  0.00  0.00     0.149 A 
ATOM     10  O   UNL d   1     -55.168-102.491 -35.454  0.00  0.00    -0.299 OA
ATOM     11  C   UNL d   1     -55.303-102.728 -36.227  0.00  0.00     0.151 A 
ENDBRANCH   1   6
BRANCH   3  12
ATOM     12  N   UNL d   1     -54.712-102.860 -39.649  0.00  0.00    -0.165 NA
ATOM     13  C   UNL d   1     -55.129-102.768 -40.342  0.00  0.00     0.282 C 
ATOM     14  O   UNL d   1     -55.935-102.561 -40.326  0.00  0.00    -0.265 OA
ATOM     15  C   UNL d   1     -54.757-102.880 -41.072  0.00  0.00     0.068 C 
ENDBRANCH   3  12
TORSDOF 2
ENDMDL
