MODEL 1
REMARK VINA RESULT:      13.5      0.000      0.000
REMARK  6 active torsions:
REMARK  status: ('A' for Active; 'I' for Inactive)
REMARK    1  A    between atoms: C_15  and  C_2 
REMARK    2  A    between atoms: C_19  and  C_3 
REMARK    3  A    between atoms: C_4  and  C_16 
REMARK       I    between atoms: N_7  and  C_4 
REMARK    4  A    between atoms: C_14  and  N_7 
REMARK    5  A    between atoms: C_8  and  C_9 
REMARK    6  A    between atoms: C_16  and  C_15 
ROOT
ATOM      1  C   UNL d   1      45.515 -16.789  44.574  0.00  0.00     0.279 C 
ATOM      2  N   UNL d   1      45.197 -16.132  44.955  0.00  0.00    -0.208 NA
ATOM      3  O   UNL d   1      45.408 -17.545  44.892  0.00  0.00    -0.265 OA
ENDROOT
BRANCH   1   4
ATOM      4  C   UNL d   1      45.942 -16.695  43.873  0.00  0.00     0.065 C 
BRANCH   4   5
ATOM      5  C   UNL d   1      46.573 -17.206  43.699  0.00  0.00     0.030 C 
BRANCH   5   6
ATOM      6  C   UNL d   1      46.480 -17.807  43.141  0.00  0.00     0.100 A 
ATOM      7  O   UNL d   1      46.426 -18.610  43.309  0.00  0.00    -0.307 OA
ATOM      8  C   UNL d   1      46.338 -19.007  42.594  0.00  0.00     0.100 A 
ATOM      9  C   UNL d   1      46.339 -18.437  41.980  0.00  0.00     0.027 A 
ATOM     10  C   UNL d   1      46.427 -17.700  42.329  0.00  0.00     0.027 A 
BRANCH   8  11
ATOM     11  C   UNL d   1      46.262 -19.818  42.492  0.00  0.00     0.025 C 
ATOM     12  C   UNL d   1      46.294 -20.329  43.137  0.00  0.00     0.002 C 
ENDBRANCH   8  11
ENDBRANCH   5   6
ENDBRANCH   4   5
ENDBRANCH   1   4
BRANCH   2  13
ATOM     13  C   UNL d   1      45.309 -15.373  44.628  0.00  0.00     0.085 A 
ATOM     14  C   UNL d   1      44.654 -14.921  44.419  0.00  0.00     0.019 A 
ATOM     15  C   UNL d   1      44.770 -14.167  44.094  0.00  0.00     0.005 A 
ATOM     16  C   UNL d   1      45.533 -13.871  43.982  0.00  0.00     0.039 A 
ATOM     17  C   UNL d   1      46.188 -14.345  44.200  0.00  0.00     0.005 A 
ATOM     18  C   UNL d   1      46.072 -15.090  44.521  0.00  0.00     0.019 A 
BRANCH  16  19
ATOM     19  C   UNL d   1      45.650 -13.123  43.659  0.00  0.00     0.196 C 
ATOM     20  O   UNL d   1      45.798 -13.036  42.851  0.00  0.00    -0.287 OA
ATOM     21  C   UNL d   1      45.621 -12.455  44.147  0.00  0.00     0.045 C 
ENDBRANCH  16  19
ENDBRANCH   2  13
TORSDOF 6
ENDMDL
