MODEL 1
REMARK VINA RESULT:      -6.7      0.000      0.000
REMARK  3 active torsions:
REMARK  status: ('A' for Active; 'I' for Inactive)
REMARK    1  A    between atoms: N_5  and  C_2 
REMARK    2  A    between atoms: C_9  and  C_3 
REMARK       I    between atoms: C_7  and  N_5 
REMARK    3  A    between atoms: C_8  and  C_7 
ROOT
ATOM      1  N   UNL d   1     -42.200-123.090 -51.150  0.00  0.00    -0.200 NA
ATOM      2  C   UNL d   1     -41.762-123.342 -51.793  0.00  0.00     0.216 A 
ATOM      3  C   UNL d   1     -41.843-123.380 -50.463  0.00  0.00     0.172 A 
ATOM      4  N   UNL d   1     -41.180-123.814 -50.691  0.00  0.00    -0.187 NA
ATOM      5  S   UNL d   1     -41.124-123.794 -51.518  0.00  0.00     0.054 SA
ENDROOT
BRANCH   2   6
ATOM      6  N   UNL d   1     -41.924-123.176 -52.583  0.00  0.00    -0.181 NA
ATOM      7  C   UNL d   1     -41.606-122.506 -52.930  0.00  0.00     0.281 C 
ATOM      8  O   UNL d   1     -41.127-121.999 -52.492  0.00  0.00    -0.265 OA
BRANCH   7   9
ATOM      9  C   UNL d   1     -41.769-122.340 -53.722  0.00  0.00     0.058 A 
ATOM     10  C   UNL d   1     -41.373-122.747 -54.318  0.00  0.00     0.006 A 
ATOM     11  C   UNL d   1     -41.535-122.581 -55.109  0.00  0.00     0.012 A 
ATOM     12  C   UNL d   1     -42.094-122.008 -55.305  0.00  0.00     0.058 A 
ATOM     13  C   UNL d   1     -42.490-121.602 -54.708  0.00  0.00     0.012 A 
ATOM     14 CL   UNL d   1     -42.257-121.842 -56.097  0.00  0.00    -0.082 Cl
ATOM     15  C   UNL d   1     -42.327-121.768 -53.917  0.00  0.00     0.006 A 
ENDBRANCH   7   9
ENDBRANCH   2   6
BRANCH   3  16
ATOM     16  C   UNL d   1     -42.099-123.261 -49.695  0.00  0.00     0.036 A 
ATOM     17  C   UNL d   1     -41.565-123.331 -49.070  0.00  0.00     0.003 A 
ATOM     18  C   UNL d   1     -41.826-123.210 -48.289  0.00  0.00     0.000 A 
ATOM     19  C   UNL d   1     -42.620-123.019 -48.139  0.00  0.00     0.000 A 
ATOM     20  C   UNL d   1     -43.150-122.950 -48.773  0.00  0.00     0.000 A 
ATOM     21  C   UNL d   1     -42.893-123.070 -49.546  0.00  0.00     0.003 A 
ENDBRANCH   3  16
TORSDOF 3
ENDMDL
MODEL 2
REMARK VINA RESULT:      -4.5      2.035      5.052
REMARK  3 active torsions:
REMARK  status: ('A' for Active; 'I' for Inactive)
REMARK    1  A    between atoms: N_5  and  C_2 
REMARK    2  A    between atoms: C_9  and  C_3 
REMARK       I    between atoms: C_7  and  N_5 
REMARK    3  A    between atoms: C_8  and  C_7 
ROOT
ATOM      1  N   UNL d   1     -42.253-122.627 -53.103  0.00  0.00    -0.200 NA
ATOM      2  C   UNL d   1     -41.818-122.587 -52.412  0.00  0.00     0.216 A 
ATOM      3  C   UNL d   1     -41.840-122.222 -53.693  0.00  0.00     0.172 A 
ATOM      4  N   UNL d   1     -41.145-121.932 -53.357  0.00  0.00    -0.187 NA
ATOM      5  S   UNL d   1     -41.126-122.156 -52.558  0.00  0.00     0.054 SA
ENDROOT
BRANCH   2   6
ATOM      6  N   UNL d   1     -42.030-122.919 -51.688  0.00  0.00    -0.181 NA
ATOM      7  C   UNL d   1     -42.298-122.435 -51.083  0.00  0.00     0.281 C 
ATOM      8  O   UNL d   1     -42.356-121.621 -51.198  0.00  0.00    -0.265 OA
BRANCH   7   9
ATOM      9  C   UNL d   1     -42.510-122.766 -50.358  0.00  0.00     0.058 A 
ATOM     10  C   UNL d   1     -43.054-122.383 -49.873  0.00  0.00     0.006 A 
ATOM     11  C   UNL d   1     -43.266-122.715 -49.148  0.00  0.00     0.012 A 
ATOM     12  C   UNL d   1     -42.934-123.430 -48.909  0.00  0.00     0.058 A 
ATOM     13  C   UNL d   1     -42.391-123.812 -49.395  0.00  0.00     0.012 A 
ATOM     14 CL   UNL d   1     -43.146-123.762 -48.184  0.00  0.00    -0.082 Cl
ATOM     15  C   UNL d   1     -42.179-123.481 -50.120  0.00  0.00     0.006 A 
ENDBRANCH   7   9
ENDBRANCH   2   6
BRANCH   3  16
ATOM     16  C   UNL d   1     -42.074-122.125 -54.471  0.00  0.00     0.036 A 
ATOM     17  C   UNL d   1     -42.721-122.546 -54.760  0.00  0.00     0.003 A 
ATOM     18  C   UNL d   1     -42.959-122.447 -55.552  0.00  0.00     0.000 A 
ATOM     19  C   UNL d   1     -42.545-121.924 -56.049  0.00  0.00     0.000 A 
ATOM     20  C   UNL d   1     -41.896-121.505 -55.750  0.00  0.00     0.000 A 
ATOM     21  C   UNL d   1     -41.661-121.603 -54.967  0.00  0.00     0.003 A 
ENDBRANCH   3  16
TORSDOF 3
ENDMDL
