MODEL 1
REMARK VINA RESULT:      -1.6      0.000      0.000
REMARK  8 active torsions:
REMARK  status: ('A' for Active; 'I' for Inactive)
REMARK    1  A    between atoms: C_7  and  C_1 
REMARK    2  A    between atoms: S_2  and  N_8 
REMARK    3  A    between atoms: C_11  and  S_2 
REMARK    4  A    between atoms: O_17  and  C_7 
REMARK    5  A    between atoms: N_8  and  C_13 
REMARK    6  A    between atoms: C_22  and  O_17 
REMARK    7  A    between atoms: O_19  and  C_23 
REMARK    8  A    between atoms: C_23  and  C_22 
ROOT
ATOM      1  C   UNL d   1      56.358   0.312  33.293  0.00  0.00     0.088 A 
ATOM      2  C   UNL d   1      56.721   0.463  34.015  0.00  0.00     0.105 A 
ATOM      3  C   UNL d   1      56.922   0.380  32.702  0.00  0.00     0.031 A 
ATOM      4  O   UNL d   1      57.526   0.628  33.863  0.00  0.00    -0.307 OA
ATOM      5  C   UNL d   1      57.642   0.576  33.054  0.00  0.00     0.100 A 
ATOM      6  C   UNL d   1      56.873   0.290  31.882  0.00  0.00     0.022 A 
ATOM      7  C   UNL d   1      57.543   0.395  31.421  0.00  0.00     0.094 A 
ATOM      8  C   UNL d   1      58.314   0.680  32.585  0.00  0.00     0.026 A 
ATOM      9  C   UNL d   1      58.263   0.590  31.772  0.00  0.00     0.022 A 
ATOM     10  C   UNL d   1      56.406   0.466  34.771  0.00  0.00     0.027 C 
ENDROOT
BRANCH   7  11
ATOM     11  N   UNL d   1      57.481   0.297  30.560  0.00  0.00    -0.158 NA
BRANCH  11  12
ATOM     12  S   UNL d   1      58.035  -0.165  30.143  0.00  0.00     0.285 S 
ATOM     13  O   UNL d   1      57.622  -0.862  30.305  0.00  0.00    -0.198 OA
ATOM     14  O   UNL d   1      58.484   0.540  29.959  0.00  0.00    -0.198 OA
BRANCH  12  15
ATOM     15  C   UNL d   1      58.619  -0.603  29.710  0.00  0.00     0.105 A 
ATOM     16  C   UNL d   1      58.449  -1.392  29.536  0.00  0.00     0.013 A 
ATOM     17  C   UNL d   1      58.994  -1.848  29.117  0.00  0.00     0.001 A 
ATOM     18  C   UNL d   1      59.709  -1.515  28.872  0.00  0.00     0.000 A 
ATOM     19  C   UNL d   1      59.874  -0.731  29.046  0.00  0.00     0.001 A 
ATOM     20  C   UNL d   1      59.329  -0.275  29.465  0.00  0.00     0.013 A 
ENDBRANCH  12  15
ENDBRANCH  11  12
ENDBRANCH   7  11
BRANCH   1  21
ATOM     21  C   UNL d   1      55.539   0.123  33.232  0.00  0.00     0.302 C 
ATOM     22  O   UNL d   1      55.273  -0.495  32.745  0.00  0.00    -0.259 OA
BRANCH  21  23
ATOM     23  O   UNL d   1      54.990   0.570  33.672  0.00  0.00    -0.269 OA
BRANCH  23  24
ATOM     24  C   UNL d   1      54.192   0.340  33.718  0.00  0.00     0.152 C 
BRANCH  24  25
ATOM     25  C   UNL d   1      53.720   0.570  34.352  0.00  0.00     0.143 C 
BRANCH  25  26
ATOM     26  O   UNL d   1      52.888   0.601  34.298  0.00  0.00    -0.324 OA
ATOM     27  C   UNL d   1      52.452   0.682  34.969  0.00  0.00     0.182 C 
ENDBRANCH  25  26
ENDBRANCH  24  25
ENDBRANCH  23  24
ENDBRANCH  21  23
ENDBRANCH   1  21
TORSDOF 8
ENDMDL
MODEL 2
REMARK VINA RESULT:      -1.0      1.429      1.879
REMARK  8 active torsions:
REMARK  status: ('A' for Active; 'I' for Inactive)
REMARK    1  A    between atoms: C_7  and  C_1 
REMARK    2  A    between atoms: S_2  and  N_8 
REMARK    3  A    between atoms: C_11  and  S_2 
REMARK    4  A    between atoms: O_17  and  C_7 
REMARK    5  A    between atoms: N_8  and  C_13 
REMARK    6  A    between atoms: C_22  and  O_17 
REMARK    7  A    between atoms: O_19  and  C_23 
REMARK    8  A    between atoms: C_23  and  C_22 
ROOT
ATOM      1  C   UNL d   1      56.014  -0.419  32.777  0.00  0.00     0.088 A 
ATOM      2  C   UNL d   1      55.849  -1.200  32.978  0.00  0.00     0.105 A 
ATOM      3  C   UNL d   1      56.486  -0.420  32.108  0.00  0.00     0.031 A 
ATOM      4  O   UNL d   1      56.230  -1.689  32.418  0.00  0.00    -0.307 OA
ATOM      5  C   UNL d   1      56.620  -1.203  31.886  0.00  0.00     0.100 A 
ATOM      6  C   UNL d   1      56.816   0.196  31.666  0.00  0.00     0.022 A 
ATOM      7  C   UNL d   1      57.275   0.025  31.009  0.00  0.00     0.094 A 
ATOM      8  C   UNL d   1      57.083  -1.371  31.223  0.00  0.00     0.026 A 
ATOM      9  C   UNL d   1      57.408  -0.758  30.787  0.00  0.00     0.022 A 
ATOM     10  C   UNL d   1      55.404  -1.500  33.596  0.00  0.00     0.027 C 
ENDROOT
BRANCH   7  11
ATOM     11  N   UNL d   1      57.617   0.680  30.551  0.00  0.00    -0.158 NA
BRANCH  11  12
ATOM     12  S   UNL d   1      58.376   0.613  30.214  0.00  0.00     0.285 S 
ATOM     13  O   UNL d   1      58.741   0.643  30.954  0.00  0.00    -0.198 OA
ATOM     14  O   UNL d   1      58.026   0.579  29.434  0.00  0.00    -0.198 OA
BRANCH  12  15
ATOM     15  C   UNL d   1      59.132   0.544  29.835  0.00  0.00     0.105 A 
ATOM     16  C   UNL d   1      59.800   0.541  30.321  0.00  0.00     0.013 A 
ATOM     17  C   UNL d   1      60.552   0.475  29.987  0.00  0.00     0.001 A 
ATOM     18  C   UNL d   1      60.635   0.411  29.167  0.00  0.00     0.000 A 
ATOM     19  C   UNL d   1      59.969   0.414  28.689  0.00  0.00     0.001 A 
ATOM     20  C   UNL d   1      59.218   0.480  29.023  0.00  0.00     0.013 A 
ENDBRANCH  12  15
ENDBRANCH  11  12
ENDBRANCH   7  11
BRANCH   1  21
ATOM     21  C   UNL d   1      55.718   0.233  33.223  0.00  0.00     0.302 C 
ATOM     22  O   UNL d   1      55.043   0.651  32.981  0.00  0.00    -0.259 OA
BRANCH  21  23
ATOM     23  O   UNL d   1      56.118   0.456  33.920  0.00  0.00    -0.269 OA
BRANCH  23  24
ATOM     24  C   UNL d   1      55.695   0.681  34.600  0.00  0.00     0.152 C 
BRANCH  24  25
ATOM     25  C   UNL d   1      55.967   0.485  35.352  0.00  0.00     0.143 C 
BRANCH  25  26
ATOM     26  O   UNL d   1      55.447   0.357  35.992  0.00  0.00    -0.324 OA
ATOM     27  C   UNL d   1      54.712   0.682  35.975  0.00  0.00     0.182 C 
ENDBRANCH  25  26
ENDBRANCH  24  25
ENDBRANCH  23  24
ENDBRANCH  21  23
ENDBRANCH   1  21
TORSDOF 8
ENDMDL
