MODEL 1
REMARK VINA RESULT:      -9.6      0.000      0.000
REMARK  5 active torsions:
REMARK  status: ('A' for Active; 'I' for Inactive)
REMARK    1  A    between atoms: C_8  and  C_1 
REMARK    2  A    between atoms: N_4  and  C_2 
REMARK       I    between atoms: C_6  and  N_4 
REMARK    3  A    between atoms: C_9  and  C_6 
REMARK    4  A    between atoms: O_20  and  C_15 
REMARK    5  A    between atoms: C_21  and  O_20 
ROOT
ATOM      1  C   UNL d   1      53.196  32.064  53.494  0.00  0.00     0.177 A 
ATOM      2  C   UNL d   1      52.871  32.793  53.704  0.00  0.00     0.114 A 
ATOM      3  O   UNL d   1      53.945  31.995  53.857  0.00  0.00    -0.301 OA
ATOM      4  C   UNL d   1      53.407  33.182  54.194  0.00  0.00     0.043 A 
ATOM      5  C   UNL d   1      54.081  32.678  54.289  0.00  0.00     0.102 A 
ATOM      6  C   UNL d   1      53.385  33.913  54.567  0.00  0.00     0.004 A 
ATOM      7  C   UNL d   1      54.707  32.929  54.755  0.00  0.00     0.025 A 
ATOM      8  C   UNL d   1      54.018  34.168  55.040  0.00  0.00     0.000 A 
ATOM      9  C   UNL d   1      54.673  33.686  55.136  0.00  0.00     0.002 A 
ENDROOT
BRANCH   2  10
ATOM     10  N   UNL d   1      52.113  33.073  53.446  0.00  0.00    -0.206 NA
ATOM     11  C   UNL d   1      52.070  33.712  52.924  0.00  0.00     0.279 C 
ATOM     12  O   UNL d   1      52.748  34.086  52.648  0.00  0.00    -0.265 OA
BRANCH  11  13
ATOM     13  C   UNL d   1      51.331  33.985  52.672  0.00  0.00     0.058 A 
ATOM     14  C   UNL d   1      50.750  34.116  53.221  0.00  0.00     0.007 A 
ATOM     15  C   UNL d   1      49.995  34.394  52.964  0.00  0.00     0.025 A 
ATOM     16  C   UNL d   1      49.865  34.526  52.165  0.00  0.00     0.100 A 
ATOM     17  C   UNL d   1      50.460  34.392  51.596  0.00  0.00     0.025 A 
ATOM     18  C   UNL d   1      51.215  34.114  51.853  0.00  0.00     0.007 A 
BRANCH  16  19
ATOM     19  O   UNL d   1      49.110  34.803  51.908  0.00  0.00    -0.305 OA
BRANCH  19  20
ATOM     20  C   UNL d   1      48.833  34.609  51.157  0.00  0.00     0.123 C 
ATOM     21  C   UNL d   1      48.098  34.872  50.911  0.00  0.00     0.029 C 
ENDBRANCH  19  20
ENDBRANCH  16  19
ENDBRANCH  11  13
ENDBRANCH   2  10
BRANCH   1  22
ATOM     22  C   UNL d   1      52.818  31.519  53.006  0.00  0.00     0.321 C 
ATOM     23  O   UNL d   1      53.020  31.479  52.190  0.00  0.00    -0.261 OA
ATOM     24  N   UNL d   1      52.234  31.005  53.314  0.00  0.00    -0.101 N 
ENDBRANCH   1  22
TORSDOF 5
ENDMDL
MODEL 2
REMARK VINA RESULT:      -8.7      1.146      2.188
REMARK  5 active torsions:
REMARK  status: ('A' for Active; 'I' for Inactive)
REMARK    1  A    between atoms: C_8  and  C_1 
REMARK    2  A    between atoms: N_4  and  C_2 
REMARK       I    between atoms: C_6  and  N_4 
REMARK    3  A    between atoms: C_9  and  C_6 
REMARK    4  A    between atoms: O_20  and  C_15 
REMARK    5  A    between atoms: C_21  and  O_20 
ROOT
ATOM      1  C   UNL d   1      53.928  32.196  53.898  0.00  0.00     0.177 A 
ATOM      2  C   UNL d   1      53.149  32.019  53.686  0.00  0.00     0.114 A 
ATOM      3  O   UNL d   1      54.374  31.492  53.870  0.00  0.00    -0.301 OA
ATOM      4  C   UNL d   1      53.103  31.212  53.526  0.00  0.00     0.043 A 
ATOM      5  C   UNL d   1      53.875  30.882  53.643  0.00  0.00     0.102 A 
ATOM      6  C   UNL d   1      52.482  30.730  53.294  0.00  0.00     0.004 A 
ATOM      7  C   UNL d   1      53.991  30.080  53.522  0.00  0.00     0.025 A 
ATOM      8  C   UNL d   1      52.598  29.917  53.171  0.00  0.00     0.000 A 
ATOM      9  C   UNL d   1      53.341  29.591  53.282  0.00  0.00     0.002 A 
ENDROOT
BRANCH   2  10
ATOM     10  N   UNL d   1      52.522  32.588  53.647  0.00  0.00    -0.206 NA
ATOM     11  C   UNL d   1      52.212  32.803  52.911  0.00  0.00     0.279 C 
ATOM     12  O   UNL d   1      52.498  32.477  52.214  0.00  0.00    -0.265 OA
BRANCH  11  13
ATOM     13  C   UNL d   1      51.600  33.358  52.873  0.00  0.00     0.058 A 
ATOM     14  C   UNL d   1      51.000  33.323  53.415  0.00  0.00     0.007 A 
ATOM     15  C   UNL d   1      50.375  33.890  53.376  0.00  0.00     0.025 A 
ATOM     16  C   UNL d   1      50.387  34.464  52.790  0.00  0.00     0.100 A 
ATOM     17  C   UNL d   1      51.004  34.504  52.229  0.00  0.00     0.025 A 
ATOM     18  C   UNL d   1      51.629  33.937  52.268  0.00  0.00     0.007 A 
BRANCH  16  19
ATOM     19  O   UNL d   1      49.763  35.030  52.751  0.00  0.00    -0.305 OA
BRANCH  19  20
ATOM     20  C   UNL d   1      49.090  34.871  52.302  0.00  0.00     0.123 C 
ATOM     21  C   UNL d   1      48.449  35.380  52.332  0.00  0.00     0.029 C 
ENDBRANCH  19  20
ENDBRANCH  16  19
ENDBRANCH  11  13
ENDBRANCH   2  10
BRANCH   1  22
ATOM     22  C   UNL d   1      54.186  32.952  54.097  0.00  0.00     0.321 C 
ATOM     23  O   UNL d   1      54.606  33.413  53.532  0.00  0.00    -0.261 OA
ATOM     24  N   UNL d   1      54.034  33.267  54.858  0.00  0.00    -0.101 N 
ENDBRANCH   1  22
TORSDOF 5
ENDMDL
MODEL 3
REMARK VINA RESULT:      -8.5      1.238      2.109
REMARK  5 active torsions:
REMARK  status: ('A' for Active; 'I' for Inactive)
REMARK    1  A    between atoms: C_8  and  C_1 
REMARK    2  A    between atoms: N_4  and  C_2 
REMARK       I    between atoms: C_6  and  N_4 
REMARK    3  A    between atoms: C_9  and  C_6 
REMARK    4  A    between atoms: O_20  and  C_15 
REMARK    5  A    between atoms: C_21  and  O_20 
ROOT
ATOM      1  C   UNL d   1      53.158  33.900  53.837  0.00  0.00     0.177 A 
ATOM      2  C   UNL d   1      52.648  33.498  53.327  0.00  0.00     0.114 A 
ATOM      3  O   UNL d   1      53.708  33.353  54.144  0.00  0.00    -0.301 OA
ATOM      4  C   UNL d   1      52.874  32.706  53.310  0.00  0.00     0.043 A 
ATOM      5  C   UNL d   1      53.541  32.617  53.825  0.00  0.00     0.102 A 
ATOM      6  C   UNL d   1      52.576  32.056  52.908  0.00  0.00     0.004 A 
ATOM      7  C   UNL d   1      53.882  31.878  53.915  0.00  0.00     0.025 A 
ATOM      8  C   UNL d   1      52.921  31.306  52.998  0.00  0.00     0.000 A 
ATOM      9  C   UNL d   1      53.566  31.213  53.494  0.00  0.00     0.002 A 
ENDROOT
BRANCH   2  10
ATOM     10  N   UNL d   1      52.009  33.861  52.903  0.00  0.00    -0.206 NA
ATOM     11  C   UNL d   1      51.230  33.713  53.135  0.00  0.00     0.279 C 
ATOM     12  O   UNL d   1      51.059  33.220  53.770  0.00  0.00    -0.265 OA
BRANCH  11  13
ATOM     13  C   UNL d   1      50.607  34.066  52.722  0.00  0.00     0.058 A 
ATOM     14  C   UNL d   1      50.561  33.971  51.920  0.00  0.00     0.007 A 
ATOM     15  C   UNL d   1      49.924  34.332  51.498  0.00  0.00     0.025 A 
ATOM     16  C   UNL d   1      49.366  34.772  51.908  0.00  0.00     0.100 A 
ATOM     17  C   UNL d   1      49.410  34.873  52.735  0.00  0.00     0.025 A 
ATOM     18  C   UNL d   1      50.046  34.512  53.157  0.00  0.00     0.007 A 
BRANCH  16  19
ATOM     19  O   UNL d   1      48.730  35.132  51.486  0.00  0.00    -0.305 OA
BRANCH  19  20
ATOM     20  C   UNL d   1      47.990  35.207  51.841  0.00  0.00     0.123 C 
ATOM     21  C   UNL d   1      47.375  35.561  51.434  0.00  0.00     0.029 C 
ENDBRANCH  19  20
ENDBRANCH  16  19
ENDBRANCH  11  13
ENDBRANCH   2  10
BRANCH   1  22
ATOM     22  C   UNL d   1      53.103  34.707  53.995  0.00  0.00     0.321 C 
ATOM     23  O   UNL d   1      53.258  35.264  53.384  0.00  0.00    -0.261 OA
ATOM     24  N   UNL d   1      52.895  34.978  54.760  0.00  0.00    -0.101 N 
ENDBRANCH   1  22
TORSDOF 5
ENDMDL
MODEL 4
REMARK VINA RESULT:      -8.1      1.597      4.116
REMARK  5 active torsions:
REMARK  status: ('A' for Active; 'I' for Inactive)
REMARK    1  A    between atoms: C_8  and  C_1 
REMARK    2  A    between atoms: N_4  and  C_2 
REMARK       I    between atoms: C_6  and  N_4 
REMARK    3  A    between atoms: C_9  and  C_6 
REMARK    4  A    between atoms: O_20  and  C_15 
REMARK    5  A    between atoms: C_21  and  O_20 
ROOT
ATOM      1  C   UNL d   1      51.892  34.148  53.168  0.00  0.00     0.177 A 
ATOM      2  C   UNL d   1      52.403  33.758  53.686  0.00  0.00     0.114 A 
ATOM      3  O   UNL d   1      52.014  34.969  53.247  0.00  0.00    -0.301 OA
ATOM      4  C   UNL d   1      52.844  34.326  54.089  0.00  0.00     0.043 A 
ATOM      5  C   UNL d   1      52.598  35.087  53.810  0.00  0.00     0.102 A 
ATOM      6  C   UNL d   1      53.428  34.267  54.662  0.00  0.00     0.004 A 
ATOM      7  C   UNL d   1      52.949  35.760  54.120  0.00  0.00     0.025 A 
ATOM      8  C   UNL d   1      53.785  34.948  54.976  0.00  0.00     0.000 A 
ATOM      9  C   UNL d   1      53.552  35.687  54.712  0.00  0.00     0.002 A 
ENDROOT
BRANCH   2  10
ATOM     10  N   UNL d   1      52.448  32.915  53.772  0.00  0.00    -0.206 NA
ATOM     11  C   UNL d   1      53.099  32.508  53.466  0.00  0.00     0.279 C 
ATOM     12  O   UNL d   1      53.706  32.902  53.078  0.00  0.00    -0.265 OA
BRANCH  11  13
ATOM     13  C   UNL d   1      53.142  31.686  53.550  0.00  0.00     0.058 A 
ATOM     14  C   UNL d   1      53.445  31.375  54.232  0.00  0.00     0.007 A 
ATOM     15  C   UNL d   1      53.489  30.535  54.318  0.00  0.00     0.025 A 
ATOM     16  C   UNL d   1      53.226  30.053  53.709  0.00  0.00     0.100 A 
ATOM     17  C   UNL d   1      52.914  30.370  53.003  0.00  0.00     0.025 A 
ATOM     18  C   UNL d   1      52.869  31.210  52.917  0.00  0.00     0.007 A 
BRANCH  16  19
ATOM     19  O   UNL d   1      53.271  29.215  53.795  0.00  0.00    -0.305 OA
BRANCH  19  20
ATOM     20  C   UNL d   1      53.280  28.877  54.547  0.00  0.00     0.123 C 
ATOM     21  C   UNL d   1      53.587  28.126  54.654  0.00  0.00     0.029 C 
ENDBRANCH  19  20
ENDBRANCH  16  19
ENDBRANCH  11  13
ENDBRANCH   2  10
BRANCH   1  22
ATOM     22  C   UNL d   1      51.363  33.760  52.671  0.00  0.00     0.321 C 
ATOM     23  O   UNL d   1      51.528  33.700  51.849  0.00  0.00    -0.261 OA
ATOM     24  N   UNL d   1      50.660  33.423  52.977  0.00  0.00    -0.101 N 
ENDBRANCH   1  22
TORSDOF 5
ENDMDL
MODEL 5
REMARK VINA RESULT:      -7.8      1.591      4.580
REMARK  5 active torsions:
REMARK  status: ('A' for Active; 'I' for Inactive)
REMARK    1  A    between atoms: C_8  and  C_1 
REMARK    2  A    between atoms: N_4  and  C_2 
REMARK       I    between atoms: C_6  and  N_4 
REMARK    3  A    between atoms: C_9  and  C_6 
REMARK    4  A    between atoms: O_20  and  C_15 
REMARK    5  A    between atoms: C_21  and  O_20 
ROOT
ATOM      1  C   UNL d   1      52.592  34.208  53.713  0.00  0.00     0.177 A 
ATOM      2  C   UNL d   1      52.152  33.528  53.553  0.00  0.00     0.114 A 
ATOM      3  O   UNL d   1      52.164  34.869  53.438  0.00  0.00    -0.301 OA
ATOM      4  C   UNL d   1      51.452  33.756  53.182  0.00  0.00     0.043 A 
ATOM      5  C   UNL d   1      51.462  34.600  53.110  0.00  0.00     0.102 A 
ATOM      6  C   UNL d   1      50.812  33.327  52.899  0.00  0.00     0.004 A 
ATOM      7  C   UNL d   1      50.828  34.980  52.757  0.00  0.00     0.025 A 
ATOM      8  C   UNL d   1      50.168  33.711  52.542  0.00  0.00     0.000 A 
ATOM      9  C   UNL d   1      50.171  34.526  52.469  0.00  0.00     0.002 A 
ENDROOT
BRANCH   2  10
ATOM     10  N   UNL d   1      52.398  32.740  53.748  0.00  0.00    -0.206 NA
ATOM     11  C   UNL d   1      52.644  32.229  53.147  0.00  0.00     0.279 C 
ATOM     12  O   UNL d   1      52.655  32.467  52.361  0.00  0.00    -0.265 OA
BRANCH  11  13
ATOM     13  C   UNL d   1      52.884  31.461  53.337  0.00  0.00     0.058 A 
ATOM     14  C   UNL d   1      53.648  31.332  53.568  0.00  0.00     0.007 A 
ATOM     15  C   UNL d   1      53.894  30.547  53.763  0.00  0.00     0.025 A 
ATOM     16  C   UNL d   1      53.354  29.932  53.713  0.00  0.00     0.100 A 
ATOM     17  C   UNL d   1      52.564  30.060  53.475  0.00  0.00     0.025 A 
ATOM     18  C   UNL d   1      52.319  30.845  53.281  0.00  0.00     0.007 A 
BRANCH  16  19
ATOM     19  O   UNL d   1      53.599  29.148  53.908  0.00  0.00    -0.305 OA
BRANCH  19  20
ATOM     20  C   UNL d   1      53.366  28.809  54.622  0.00  0.00     0.123 C 
ATOM     21  C   UNL d   1      53.698  28.101  54.866  0.00  0.00     0.029 C 
ENDBRANCH  19  20
ENDBRANCH  16  19
ENDBRANCH  11  13
ENDBRANCH   2  10
BRANCH   1  22
ATOM     22  C   UNL d   1      53.328  34.199  54.082  0.00  0.00     0.321 C 
ATOM     23  O   UNL d   1      54.028  34.262  53.622  0.00  0.00    -0.261 OA
ATOM     24  N   UNL d   1      53.385  34.128  54.915  0.00  0.00    -0.101 N 
ENDBRANCH   1  22
TORSDOF 5
ENDMDL
