MODEL 1
REMARK VINA RESULT:      -7.5      0.000      0.000
REMARK  5 active torsions:
REMARK  status: ('A' for Active; 'I' for Inactive)
REMARK    1  A    between atoms: C_11  and  C_8 
REMARK       I    between atoms: N_22  and  C_11 
REMARK    2  A    between atoms: N_14  and  C_24 
REMARK    3  A    between atoms: C_27  and  N_22 
REMARK    4  A    between atoms: C_24  and  C_25 
REMARK    5  A    between atoms: C_25  and  C_27 
ROOT
ATOM      1  C   UNL d   1      52.170  33.391  53.222  0.00  0.00     0.154 A 
ATOM      2  C   UNL d   1      51.566  32.829  53.219  0.00  0.00     0.093 A 
ATOM      3  N   UNL d   1      52.962  33.145  53.259  0.00  0.00    -0.210 NA
ATOM      4  N   UNL d   1      52.542  31.781  53.289  0.00  0.00    -0.258 N 
ATOM      5  C   UNL d   1      51.755  32.021  53.252  0.00  0.00     0.269 A 
ATOM      6  N   UNL d   1      51.826  34.134  53.186  0.00  0.00    -0.285 N 
ATOM      7  C   UNL d   1      53.146  32.343  53.292  0.00  0.00     0.152 A 
ATOM      8  C   UNL d   1      51.009  34.038  53.159  0.00  0.00     0.124 A 
ATOM      9  C   UNL d   1      50.847  33.222  53.180  0.00  0.00     0.030 A 
ATOM     10  C   UNL d   1      52.724  30.979  53.321  0.00  0.00     0.084 A 
ATOM     11  C   UNL d   1      53.932  32.103  53.328  0.00  0.00     0.038 A 
ATOM     12  C   UNL d   1      53.512  30.739  53.358  0.00  0.00     0.018 A 
ATOM     13  C   UNL d   1      54.115  31.301  53.361  0.00  0.00     0.005 A 
ATOM     14  O   UNL d   1      51.151  31.458  53.249  0.00  0.00    -0.266 OA
ATOM     15  C   UNL d   1      52.226  34.859  53.177  0.00  0.00     0.101 C 
ATOM     16  C   UNL d   1      53.703  29.927  53.391  0.00  0.00     0.002 C 
ENDROOT
BRANCH   8  17
ATOM     17  C   UNL d   1      50.448  34.642  53.119  0.00  0.00     0.295 C 
ATOM     18  O   UNL d   1      50.532  35.316  53.585  0.00  0.00    -0.264 OA
ATOM     19  N   UNL d   1      49.802  34.572  52.614  0.00  0.00    -0.205 NA
BRANCH  19  20
ATOM     20  C   UNL d   1      49.240  35.175  52.574  0.00  0.00     0.104 C 
BRANCH  20  21
ATOM     21  C   UNL d   1      48.585  35.096  52.082  0.00  0.00     0.040 C 
BRANCH  21  22
ATOM     22  C   UNL d   1      48.008  35.698  52.055  0.00  0.00     0.083 C 
BRANCH  22  23
ATOM     23  N   UNL d   1      47.296  35.569  51.663  0.00  0.00    -0.285 N 
ATOM     24  C   UNL d   1      47.106  35.143  50.985  0.00  0.00     0.183 A 
ATOM     25  N   UNL d   1      46.297  35.211  50.855  0.00  0.00    -0.222 NA
ATOM     26  C   UNL d   1      45.972  35.681  51.451  0.00  0.00     0.120 A 
ATOM     27  C   UNL d   1      46.598  35.902  51.954  0.00  0.00     0.102 A 
ENDBRANCH  22  23
ENDBRANCH  21  22
ENDBRANCH  20  21
ENDBRANCH  19  20
ENDBRANCH   8  17
TORSDOF 5
ENDMDL
MODEL 2
REMARK VINA RESULT:      -7.4      1.254      5.969
REMARK  5 active torsions:
REMARK  status: ('A' for Active; 'I' for Inactive)
REMARK    1  A    between atoms: C_11  and  C_8 
REMARK       I    between atoms: N_22  and  C_11 
REMARK    2  A    between atoms: N_14  and  C_24 
REMARK    3  A    between atoms: C_27  and  N_22 
REMARK    4  A    between atoms: C_24  and  C_25 
REMARK    5  A    between atoms: C_25  and  C_27 
ROOT
ATOM      1  C   UNL d   1      49.847  34.918  52.909  0.00  0.00     0.154 A 
ATOM      2  C   UNL d   1      49.721  34.595  52.161  0.00  0.00     0.093 A 
ATOM      3  N   UNL d   1      49.269  35.408  53.249  0.00  0.00    -0.210 NA
ATOM      4  N   UNL d   1      48.446  35.248  52.093  0.00  0.00    -0.258 N 
ATOM      5  C   UNL d   1      49.017  34.761  51.752  0.00  0.00     0.269 A 
ATOM      6  N   UNL d   1      50.578  34.663  53.177  0.00  0.00    -0.285 N 
ATOM      7  C   UNL d   1      48.572  35.571  52.842  0.00  0.00     0.152 A 
ATOM      8  C   UNL d   1      50.910  34.182  52.598  0.00  0.00     0.124 A 
ATOM      9  C   UNL d   1      50.375  34.139  51.963  0.00  0.00     0.030 A 
ATOM     10  C   UNL d   1      47.750  35.410  51.685  0.00  0.00     0.084 A 
ATOM     11  C   UNL d   1      48.002  36.056  53.182  0.00  0.00     0.038 A 
ATOM     12  C   UNL d   1      47.179  35.896  52.026  0.00  0.00     0.018 A 
ATOM     13  C   UNL d   1      47.305  36.220  52.774  0.00  0.00     0.005 A 
ATOM     14  O   UNL d   1      48.892  34.438  51.003  0.00  0.00    -0.266 OA
ATOM     15  C   UNL d   1      50.928  34.854  53.903  0.00  0.00     0.101 C 
ATOM     16  C   UNL d   1      46.472  36.065  51.617  0.00  0.00     0.002 C 
ENDROOT
BRANCH   8  17
ATOM     17  C   UNL d   1      51.644  33.806  52.637  0.00  0.00     0.295 C 
ATOM     18  O   UNL d   1      52.336  34.237  52.514  0.00  0.00    -0.264 OA
ATOM     19  N   UNL d   1      51.687  33.000  52.798  0.00  0.00    -0.205 NA
BRANCH  19  20
ATOM     20  C   UNL d   1      52.421  32.624  52.837  0.00  0.00     0.104 C 
BRANCH  20  21
ATOM     21  C   UNL d   1      52.462  31.802  52.852  0.00  0.00     0.040 C 
BRANCH  21  22
ATOM     22  C   UNL d   1      53.097  31.423  53.239  0.00  0.00     0.083 C 
BRANCH  22  23
ATOM     23  N   UNL d   1      53.058  30.618  53.402  0.00  0.00    -0.285 N 
ATOM     24  C   UNL d   1      52.610  30.008  53.079  0.00  0.00     0.183 A 
ATOM     25  N   UNL d   1      52.806  29.309  53.465  0.00  0.00    -0.222 NA
ATOM     26  C   UNL d   1      53.379  29.475  54.036  0.00  0.00     0.120 A 
ATOM     27  C   UNL d   1      53.534  30.292  53.994  0.00  0.00     0.102 A 
ENDBRANCH  22  23
ENDBRANCH  21  22
ENDBRANCH  20  21
ENDBRANCH  19  20
ENDBRANCH   8  17
TORSDOF 5
ENDMDL
MODEL 3
REMARK VINA RESULT:      -7.0      1.611      6.293
REMARK  5 active torsions:
REMARK  status: ('A' for Active; 'I' for Inactive)
REMARK    1  A    between atoms: C_11  and  C_8 
REMARK       I    between atoms: N_22  and  C_11 
REMARK    2  A    between atoms: N_14  and  C_24 
REMARK    3  A    between atoms: C_27  and  N_22 
REMARK    4  A    between atoms: C_24  and  C_25 
REMARK    5  A    between atoms: C_25  and  C_27 
ROOT
ATOM      1  C   UNL d   1      48.740  34.887  51.827  0.00  0.00     0.154 A 
ATOM      2  C   UNL d   1      48.826  35.178  52.594  0.00  0.00     0.093 A 
ATOM      3  N   UNL d   1      48.033  35.021  51.412  0.00  0.00    -0.210 NA
ATOM      4  N   UNL d   1      47.505  35.733  52.532  0.00  0.00    -0.258 N 
ATOM      5  C   UNL d   1      48.205  35.603  52.947  0.00  0.00     0.269 A 
ATOM      6  N   UNL d   1      49.431  34.497  51.625  0.00  0.00    -0.285 N 
ATOM      7  C   UNL d   1      47.419  35.442  51.764  0.00  0.00     0.152 A 
ATOM      8  C   UNL d   1      49.949  34.542  52.262  0.00  0.00     0.124 A 
ATOM      9  C   UNL d   1      49.571  34.968  52.869  0.00  0.00     0.030 A 
ATOM     10  C   UNL d   1      46.892  36.153  52.885  0.00  0.00     0.084 A 
ATOM     11  C   UNL d   1      46.720  35.572  51.350  0.00  0.00     0.038 A 
ATOM     12  C   UNL d   1      46.192  36.283  52.470  0.00  0.00     0.018 A 
ATOM     13  C   UNL d   1      46.106  35.992  51.702  0.00  0.00     0.005 A 
ATOM     14  O   UNL d   1      48.290  35.893  53.714  0.00  0.00    -0.266 OA
ATOM     15  C   UNL d   1      49.587  34.119  50.904  0.00  0.00     0.101 C 
ATOM     16  C   UNL d   1      45.567  36.709  52.822  0.00  0.00     0.002 C 
ENDROOT
BRANCH   8  17
ATOM     17  C   UNL d   1      50.709  34.223  52.298  0.00  0.00     0.295 C 
ATOM     18  O   UNL d   1      51.152  34.132  51.609  0.00  0.00    -0.264 OA
ATOM     19  N   UNL d   1      51.028  33.995  53.022  0.00  0.00    -0.205 NA
BRANCH  19  20
ATOM     20  C   UNL d   1      51.788  33.677  53.058  0.00  0.00     0.104 C 
BRANCH  20  21
ATOM     21  C   UNL d   1      52.233  33.750  53.747  0.00  0.00     0.040 C 
BRANCH  21  22
ATOM     22  C   UNL d   1      52.933  33.307  53.840  0.00  0.00     0.083 C 
BRANCH  22  23
ATOM     23  N   UNL d   1      53.473  33.508  54.428  0.00  0.00    -0.285 N 
ATOM     24  C   UNL d   1      53.614  34.209  54.834  0.00  0.00     0.183 A 
ATOM     25  N   UNL d   1      54.229  34.083  55.365  0.00  0.00    -0.222 NA
ATOM     26  C   UNL d   1      54.480  33.299  55.295  0.00  0.00     0.120 A 
ATOM     27  C   UNL d   1      54.007  32.943  54.710  0.00  0.00     0.102 A 
ENDBRANCH  22  23
ENDBRANCH  21  22
ENDBRANCH  20  21
ENDBRANCH  19  20
ENDBRANCH   8  17
TORSDOF 5
ENDMDL
MODEL 4
REMARK VINA RESULT:      -6.3      1.073      6.163
REMARK  5 active torsions:
REMARK  status: ('A' for Active; 'I' for Inactive)
REMARK    1  A    between atoms: C_11  and  C_8 
REMARK       I    between atoms: N_22  and  C_11 
REMARK    2  A    between atoms: N_14  and  C_24 
REMARK    3  A    between atoms: C_27  and  N_22 
REMARK    4  A    between atoms: C_24  and  C_25 
REMARK    5  A    between atoms: C_25  and  C_27 
ROOT
ATOM      1  C   UNL d   1      48.616  35.286  52.658  0.00  0.00     0.154 A 
ATOM      2  C   UNL d   1      48.686  34.893  51.937  0.00  0.00     0.093 A 
ATOM      3  N   UNL d   1      47.912  35.688  52.841  0.00  0.00    -0.210 NA
ATOM      4  N   UNL d   1      47.358  35.301  51.584  0.00  0.00    -0.258 N 
ATOM      5  C   UNL d   1      48.054  34.901  51.398  0.00  0.00     0.269 A 
ATOM      6  N   UNL d   1      49.316  35.186  53.072  0.00  0.00    -0.285 N 
ATOM      7  C   UNL d   1      47.287  35.695  52.305  0.00  0.00     0.152 A 
ATOM      8  C   UNL d   1      49.824  34.731  52.613  0.00  0.00     0.124 A 
ATOM      9  C   UNL d   1      49.430  34.547  51.902  0.00  0.00     0.030 A 
ATOM     10  C   UNL d   1      46.734  35.306  51.047  0.00  0.00     0.084 A 
ATOM     11  C   UNL d   1      46.592  36.094  52.490  0.00  0.00     0.038 A 
ATOM     12  C   UNL d   1      46.038  35.707  51.233  0.00  0.00     0.018 A 
ATOM     13  C   UNL d   1      45.967  36.101  51.954  0.00  0.00     0.005 A 
ATOM     14  O   UNL d   1      48.124  34.507  50.677  0.00  0.00    -0.266 OA
ATOM     15  C   UNL d   1      49.487  35.488  53.824  0.00  0.00     0.101 C 
ATOM     16  C   UNL d   1      45.401  35.716  50.693  0.00  0.00     0.002 C 
ENDROOT
BRANCH   8  17
ATOM     17  C   UNL d   1      50.588  34.496  52.816  0.00  0.00     0.295 C 
ATOM     18  O   UNL d   1      51.191  35.055  52.872  0.00  0.00    -0.264 OA
ATOM     19  N   UNL d   1      50.751  33.703  52.963  0.00  0.00    -0.205 NA
BRANCH  19  20
ATOM     20  C   UNL d   1      51.515  33.468  53.166  0.00  0.00     0.104 C 
BRANCH  20  21
ATOM     21  C   UNL d   1      51.727  32.673  53.123  0.00  0.00     0.040 C 
BRANCH  21  22
ATOM     22  C   UNL d   1      52.513  32.442  53.281  0.00  0.00     0.083 C 
BRANCH  22  23
ATOM     23  N   UNL d   1      52.728  31.650  53.225  0.00  0.00    -0.285 N 
ATOM     24  C   UNL d   1      52.407  31.016  52.810  0.00  0.00     0.183 A 
ATOM     25  N   UNL d   1      52.859  30.347  52.966  0.00  0.00    -0.222 NA
ATOM     26  C   UNL d   1      53.469  30.556  53.482  0.00  0.00     0.120 A 
ATOM     27  C   UNL d   1      53.385  31.369  53.642  0.00  0.00     0.102 A 
ENDBRANCH  22  23
ENDBRANCH  21  22
ENDBRANCH  20  21
ENDBRANCH  19  20
ENDBRANCH   8  17
TORSDOF 5
ENDMDL
