MODEL 1
REMARK VINA RESULT:      -2.8      0.000      0.000
REMARK  4 active torsions:
REMARK  status: ('A' for Active; 'I' for Inactive)
REMARK    1  A    between atoms: C_3  and  N_5 
REMARK    2  A    between atoms: S_13  and  C_4 
REMARK       I    between atoms: N_5  and  C_12 
REMARK    3  A    between atoms: C_12  and  C_18 
REMARK    4  A    between atoms: C_18  and  S_13 
ROOT
ATOM      1  N   UNL d   1      33.223  21.483 -21.352  0.00  0.00    -0.238 NA
ATOM      2  C   UNL d   1      33.200  22.375 -22.471  0.00  0.00     0.092 A 
ATOM      3  C   UNL d   1      33.222  21.600 -22.189  0.00  0.00     0.120 A 
ATOM      4  C   UNL d   1      33.197  22.537 -23.302  0.00  0.00     0.103 C 
ATOM      5  C   UNL d   1      33.204  22.094 -20.830  0.00  0.00     0.082 A 
ATOM      6  N   UNL d   1      33.195  22.692 -24.120  0.00  0.00    -0.191 NA
ATOM      7  C   UNL d   1      33.179  23.040 -21.920  0.00  0.00     0.014 A 
ATOM      8  C   UNL d   1      33.182  22.869 -21.112  0.00  0.00     0.018 A 
ATOM      9  C   UNL d   1      33.209  21.847 -20.048  0.00  0.00     0.019 A 
ATOM     10  C   UNL d   1      33.160  23.596 -20.685  0.00  0.00     0.002 A 
ATOM     11  C   UNL d   1      33.194  22.286 -19.365  0.00  0.00     0.002 A 
ATOM     12  C   UNL d   1      33.154  23.702 -19.881  0.00  0.00     0.000 A 
ATOM     13  C   UNL d   1      33.171  23.086 -19.276  0.00  0.00     0.000 A 
ENDROOT
BRANCH   3  14
ATOM     14  S   UNL d   1      33.241  20.980 -22.734  0.00  0.00    -0.062 SA
BRANCH  14  15
ATOM     15  C   UNL d   1      33.216  20.205 -22.453  0.00  0.00     0.099 C 
BRANCH  15  16
ATOM     16  C   UNL d   1      33.078  19.600 -22.984  0.00  0.00     0.288 C 
ATOM     17  N   UNL d   1      32.763  18.900 -22.680  0.00  0.00    -0.182 NA
ATOM     18  O   UNL d   1      33.240  19.665 -23.789  0.00  0.00    -0.265 OA
BRANCH  17  19
ATOM     19  C   UNL d   1      32.623  18.285 -23.216  0.00  0.00     0.197 A 
ATOM     20  N   UNL d   1      32.057  18.194 -23.783  0.00  0.00    -0.219 NA
ATOM     21  C   UNL d   1      32.156  17.496 -24.159  0.00  0.00     0.108 A 
ATOM     22  C   UNL d   1      32.815  17.114 -23.824  0.00  0.00     0.059 A 
ATOM     23  S   UNL d   1      33.096  17.606 -23.243  0.00  0.00    -0.046 SA
ENDBRANCH  17  19
ENDBRANCH  15  16
ENDBRANCH  14  15
ENDBRANCH   3  14
TORSDOF 4
ENDMDL
MODEL 2
REMARK VINA RESULT:      -2.7      1.359      1.940
REMARK  4 active torsions:
REMARK  status: ('A' for Active; 'I' for Inactive)
REMARK    1  A    between atoms: C_3  and  N_5 
REMARK    2  A    between atoms: S_13  and  C_4 
REMARK       I    between atoms: N_5  and  C_12 
REMARK    3  A    between atoms: C_12  and  C_18 
REMARK    4  A    between atoms: C_18  and  S_13 
ROOT
ATOM      1  N   UNL d   1      33.020  19.995 -22.108  0.00  0.00    -0.238 NA
ATOM      2  C   UNL d   1      33.144  20.572 -23.412  0.00  0.00     0.092 A 
ATOM      3  C   UNL d   1      33.065  19.896 -22.946  0.00  0.00     0.120 A 
ATOM      4  C   UNL d   1      33.193  20.519 -24.255  0.00  0.00     0.103 C 
ATOM      5  C   UNL d   1      33.050  20.718 -21.756  0.00  0.00     0.082 A 
ATOM      6  N   UNL d   1      33.241  20.461 -25.084  0.00  0.00    -0.191 NA
ATOM      7  C   UNL d   1      33.177  21.355 -23.045  0.00  0.00     0.014 A 
ATOM      8  C   UNL d   1      33.128  21.394 -22.222  0.00  0.00     0.018 A 
ATOM      9  C   UNL d   1      32.996  20.677 -20.939  0.00  0.00     0.019 A 
ATOM     10  C   UNL d   1      33.172  22.203 -21.990  0.00  0.00     0.002 A 
ATOM     11  C   UNL d   1      33.004  21.274 -20.388  0.00  0.00     0.002 A 
ATOM     12  C   UNL d   1      33.147  22.510 -21.240  0.00  0.00     0.000 A 
ATOM     13  C   UNL d   1      33.069  22.068 -20.500  0.00  0.00     0.000 A 
ENDROOT
BRANCH   3  14
ATOM     14  S   UNL d   1      33.036  19.160 -23.319  0.00  0.00    -0.062 SA
BRANCH  14  15
ATOM     15  C   UNL d   1      32.560  18.570 -22.992  0.00  0.00     0.099 C 
BRANCH  15  16
ATOM     16  C   UNL d   1      32.553  17.833 -23.343  0.00  0.00     0.288 C 
ATOM     17  N   UNL d   1      31.817  17.472 -23.441  0.00  0.00    -0.182 NA
ATOM     18  O   UNL d   1      33.239  17.450 -23.593  0.00  0.00    -0.265 OA
BRANCH  17  19
ATOM     19  C   UNL d   1      31.808  16.724 -23.797  0.00  0.00     0.197 A 
ATOM     20  N   UNL d   1      32.113  16.019 -23.555  0.00  0.00    -0.219 NA
ATOM     21  C   UNL d   1      31.957  15.453 -24.097  0.00  0.00     0.108 A 
ATOM     22  C   UNL d   1      31.532  15.803 -24.720  0.00  0.00     0.059 A 
ATOM     23  S   UNL d   1      31.444  16.586 -24.527  0.00  0.00    -0.046 SA
ENDBRANCH  17  19
ENDBRANCH  15  16
ENDBRANCH  14  15
ENDBRANCH   3  14
TORSDOF 4
ENDMDL
MODEL 3
REMARK VINA RESULT:      -2.6      1.357      5.023
REMARK  4 active torsions:
REMARK  status: ('A' for Active; 'I' for Inactive)
REMARK    1  A    between atoms: C_3  and  N_5 
REMARK    2  A    between atoms: S_13  and  C_4 
REMARK       I    between atoms: N_5  and  C_12 
REMARK    3  A    between atoms: C_12  and  C_18 
REMARK    4  A    between atoms: C_18  and  S_13 
ROOT
ATOM      1  N   UNL d   1      33.219  18.555 -22.872  0.00  0.00    -0.238 NA
ATOM      2  C   UNL d   1      33.226  19.234 -24.132  0.00  0.00     0.092 A 
ATOM      3  C   UNL d   1      33.226  19.279 -23.308  0.00  0.00     0.120 A 
ATOM      4  C   UNL d   1      33.233  19.934 -24.607  0.00  0.00     0.103 C 
ATOM      5  C   UNL d   1      33.212  17.835 -23.230  0.00  0.00     0.082 A 
ATOM      6  N   UNL d   1      33.239  20.626 -25.070  0.00  0.00    -0.191 NA
ATOM      7  C   UNL d   1      33.219  18.466 -24.528  0.00  0.00     0.014 A 
ATOM      8  C   UNL d   1      33.213  17.790 -24.054  0.00  0.00     0.018 A 
ATOM      9  C   UNL d   1      33.206  17.213 -22.695  0.00  0.00     0.019 A 
ATOM     10  C   UNL d   1      33.207  17.112 -24.555  0.00  0.00     0.002 A 
ATOM     11  C   UNL d   1      33.199  16.412 -22.831  0.00  0.00     0.002 A 
ATOM     12  C   UNL d   1      33.199  16.331 -24.337  0.00  0.00     0.000 A 
ATOM     13  C   UNL d   1      33.196  16.016 -23.532  0.00  0.00     0.000 A 
ENDROOT
BRANCH   3  14
ATOM     14  S   UNL d   1      33.232  20.024 -22.952  0.00  0.00    -0.062 SA
BRANCH  14  15
ATOM     15  C   UNL d   1      33.157  20.071 -22.131  0.00  0.00     0.099 C 
BRANCH  15  16
ATOM     16  C   UNL d   1      33.053  20.804 -21.789  0.00  0.00     0.288 C 
ATOM     17  N   UNL d   1      32.904  20.821 -20.977  0.00  0.00    -0.182 NA
ATOM     18  O   UNL d   1      33.092  21.508 -22.216  0.00  0.00    -0.265 OA
BRANCH  17  19
ATOM     19  C   UNL d   1      32.799  21.564 -20.627  0.00  0.00     0.197 A 
ATOM     20  N   UNL d   1      32.302  22.170 -20.810  0.00  0.00    -0.219 NA
ATOM     21  C   UNL d   1      32.412  22.777 -20.301  0.00  0.00     0.108 A 
ATOM     22  C   UNL d   1      33.007  22.557 -19.763  0.00  0.00     0.059 A 
ATOM     23  S   UNL d   1      33.240  21.809 -19.970  0.00  0.00    -0.046 SA
ENDBRANCH  17  19
ENDBRANCH  15  16
ENDBRANCH  14  15
ENDBRANCH   3  14
TORSDOF 4
ENDMDL
