MODEL 1
REMARK VINA RESULT:      69.8      0.000      0.000
REMARK  6 active torsions:
REMARK  status: ('A' for Active; 'I' for Inactive)
REMARK    1  A    between atoms: N_2  and  S_1 
REMARK    2  A    between atoms: C_11  and  S_1 
REMARK    3  A    between atoms: C_3  and  N_2 
REMARK    4  A    between atoms: C_4  and  C_3 
REMARK    5  A    between atoms: N_5  and  C_4 
REMARK    6  A    between atoms: C_6  and  C_4 
ROOT
ATOM      1  C   UNL d   1     -50.760  26.466  34.020  0.00  0.00     0.089 C 
ENDROOT
BRANCH   1   2
ATOM      2  C   UNL d   1     -50.576  25.670  33.928  0.00  0.00     0.110 C 
ATOM      3  C   UNL d   1     -49.803  25.409  34.046  0.00  0.00     0.023 C 
BRANCH   2   4
ATOM      4  N   UNL d   1     -51.161  25.136  33.719  0.00  0.00    -0.157 NA
BRANCH   4   5
ATOM      5  S   UNL d   1     -50.981  24.344  33.587  0.00  0.00     0.285 S 
ATOM      6  O   UNL d   1     -50.234  24.611  33.347  0.00  0.00    -0.198 OA
ATOM      7  O   UNL d   1     -50.407  23.803  33.339  0.00  0.00    -0.198 OA
BRANCH   5   8
ATOM      8  C   UNL d   1     -51.700  24.013  33.811  0.00  0.00     0.105 A 
ATOM      9  C   UNL d   1     -51.763  23.632  34.539  0.00  0.00     0.013 A 
ATOM     10  C   UNL d   1     -52.488  23.303  34.757  0.00  0.00     0.001 A 
ATOM     11  C   UNL d   1     -53.140  23.350  34.259  0.00  0.00     0.000 A 
ATOM     12  C   UNL d   1     -53.072  23.731  33.531  0.00  0.00     0.001 A 
ATOM     13  C   UNL d   1     -52.348  24.061  33.314  0.00  0.00     0.013 A 
ENDBRANCH   5   8
ENDBRANCH   4   5
ENDBRANCH   2   4
ENDBRANCH   1   2
BRANCH   1  14
ATOM     14  N   UNL d   1     -50.172  27.007  34.206  0.00  0.00    -0.300 N 
ATOM     15  C   UNL d   1     -49.858  27.033  34.969  0.00  0.00     0.100 A 
ATOM     16  C   UNL d   1     -49.264  27.580  35.155  0.00  0.00     0.100 A 
ATOM     17  N   UNL d   1     -48.984  28.099  34.583  0.00  0.00    -0.299 N 
ATOM     18  C   UNL d   1     -49.298  28.074  33.816  0.00  0.00     0.100 A 
ATOM     19  C   UNL d   1     -48.389  28.645  34.773  0.00  0.00     0.100 C 
ATOM     20  C   UNL d   1     -49.886  27.533  33.630  0.00  0.00     0.100 A 
ENDBRANCH   1  14
BRANCH   1  21
ATOM     21  C   UNL d   1     -51.539  26.721  33.924  0.00  0.00     0.047 A 
ATOM     22  S   UNL d   1     -52.049  26.511  33.306  0.00  0.00    -0.085 SA
ATOM     23  C   UNL d   1     -52.770  26.895  33.436  0.00  0.00     0.035 A 
ATOM     24  C   UNL d   1     -52.716  27.338  34.121  0.00  0.00     0.007 A 
ATOM     25  C   UNL d   1     -51.949  27.232  34.428  0.00  0.00     0.009 A 
ENDBRANCH   1  21
TORSDOF 6
ENDMDL
MODEL 2
REMARK VINA RESULT:      72.0      2.336      3.540
REMARK  6 active torsions:
REMARK  status: ('A' for Active; 'I' for Inactive)
REMARK    1  A    between atoms: N_2  and  S_1 
REMARK    2  A    between atoms: C_11  and  S_1 
REMARK    3  A    between atoms: C_3  and  N_2 
REMARK    4  A    between atoms: C_4  and  C_3 
REMARK    5  A    between atoms: N_5  and  C_4 
REMARK    6  A    between atoms: C_6  and  C_4 
ROOT
ATOM      1  C   UNL d   1     -51.193  26.225  34.457  0.00  0.00     0.089 C 
ENDROOT
BRANCH   1   2
ATOM      2  C   UNL d   1     -50.838  26.313  35.194  0.00  0.00     0.110 C 
ATOM      3  C   UNL d   1     -50.022  26.426  35.248  0.00  0.00     0.023 C 
BRANCH   2   4
ATOM      4  N   UNL d   1     -51.294  26.290  35.873  0.00  0.00    -0.157 NA
BRANCH   4   5
ATOM      5  S   UNL d   1     -51.013  26.603  36.581  0.00  0.00     0.285 S 
ATOM      6  O   UNL d   1     -50.431  26.974  36.121  0.00  0.00    -0.198 OA
ATOM      7  O   UNL d   1     -50.444  27.083  36.940  0.00  0.00    -0.198 OA
BRANCH   5   8
ATOM      8  C   UNL d   1     -51.560  26.266  37.094  0.00  0.00     0.105 A 
ATOM      9  C   UNL d   1     -52.315  26.078  36.818  0.00  0.00     0.013 A 
ATOM     10  C   UNL d   1     -52.858  25.740  37.339  0.00  0.00     0.001 A 
ATOM     11  C   UNL d   1     -52.657  25.590  38.121  0.00  0.00     0.000 A 
ATOM     12  C   UNL d   1     -51.901  25.779  38.393  0.00  0.00     0.001 A 
ATOM     13  C   UNL d   1     -51.358  26.117  37.872  0.00  0.00     0.013 A 
ENDBRANCH   5   8
ENDBRANCH   4   5
ENDBRANCH   2   4
ENDBRANCH   1   2
BRANCH   1  14
ATOM     14  N   UNL d   1     -51.369  25.477  34.172  0.00  0.00    -0.300 N 
ATOM     15  C   UNL d   1     -52.122  25.157  34.282  0.00  0.00     0.100 A 
ATOM     16  C   UNL d   1     -52.299  24.400  33.992  0.00  0.00     0.100 A 
ATOM     17  N   UNL d   1     -51.726  23.964  33.595  0.00  0.00    -0.299 N 
ATOM     18  C   UNL d   1     -50.969  24.285  33.484  0.00  0.00     0.100 A 
ATOM     19  C   UNL d   1     -51.906  23.208  33.306  0.00  0.00     0.100 C 
ATOM     20  C   UNL d   1     -50.793  25.033  33.769  0.00  0.00     0.100 A 
ENDBRANCH   1  14
BRANCH   1  21
ATOM     21  C   UNL d   1     -51.370  26.891  34.005  0.00  0.00     0.047 A 
ATOM     22  S   UNL d   1     -50.829  27.457  33.734  0.00  0.00    -0.085 SA
ATOM     23  C   UNL d   1     -51.253  28.023  33.306  0.00  0.00     0.035 A 
ATOM     24  C   UNL d   1     -52.044  27.819  33.306  0.00  0.00     0.007 A 
ATOM     25  C   UNL d   1     -52.122  27.114  33.742  0.00  0.00     0.009 A 
ENDBRANCH   1  21
TORSDOF 6
ENDMDL
