MODEL 1
REMARK VINA RESULT:      61.5      0.000      0.000
REMARK  10 active torsions:
REMARK  status: ('A' for Active; 'I' for Inactive)
REMARK    1  A    between atoms: C_15  and  C_3 
REMARK       I    between atoms: C_8  and  N_7 
REMARK    2  A    between atoms: O_29  and  C_8 
REMARK       I    between atoms: N_9  and  C_11 
REMARK    3  A    between atoms: S_17  and  C_10 
REMARK    4  A    between atoms: C_11  and  C_23 
REMARK       I    between atoms: C_13  and  N_26 
REMARK    5  A    between atoms: C_16  and  C_13 
REMARK    6  A    between atoms: C_30  and  C_15 
REMARK    7  A    between atoms: C_23  and  S_17 
REMARK    8  A    between atoms: N_26  and  C_30 
REMARK    9  A    between atoms: C_35  and  O_29 
REMARK   10  A    between atoms: O_34  and  C_31 
ROOT
ATOM      1  N   UNL d   1      13.538  13.144  -4.155  0.00  0.00    -0.191 N 
ATOM      2  C   UNL d   1      13.325  12.381  -4.408  0.00  0.00     0.187 A 
ATOM      3  C   UNL d   1      13.580  13.634  -4.820  0.00  0.00     0.188 A 
ATOM      4  N   UNL d   1      13.665  13.291  -3.353  0.00  0.00    -0.156 NA
ATOM      5  N   UNL d   1      13.238  12.409  -5.230  0.00  0.00    -0.127 NA
ATOM      6  N   UNL d   1      13.393  13.176  -5.487  0.00  0.00    -0.127 NA
ATOM      7  C   UNL d   1      13.580  12.675  -2.803  0.00  0.00     0.131 A 
ATOM      8  C   UNL d   1      13.243  11.780  -3.858  0.00  0.00     0.043 A 
ATOM      9  C   UNL d   1      13.369  11.921  -3.054  0.00  0.00     0.031 A 
ENDROOT
BRANCH   7  10
ATOM     10  S   UNL d   1      13.709  12.828  -1.996  0.00  0.00    -0.061 SA
BRANCH  10  11
ATOM     11  C   UNL d   1      14.339  12.454  -1.600  0.00  0.00     0.098 C 
BRANCH  11  12
ATOM     12  C   UNL d   1      14.615  12.770  -0.881  0.00  0.00     0.272 C 
ATOM     13  N   UNL d   1      14.815  13.564  -0.848  0.00  0.00    -0.269 N 
ATOM     14  C   UNL d   1      14.739  14.026  -1.519  0.00  0.00     0.102 A 
ATOM     15  C   UNL d   1      15.088  13.892  -0.147  0.00  0.00     0.102 A 
ATOM     16  C   UNL d   1      14.944  14.833  -1.476  0.00  0.00     0.104 A 
ATOM     17  N   UNL d   1      15.219  15.150  -0.761  0.00  0.00    -0.249 N 
ATOM     18  C   UNL d   1      15.288  14.678  -0.104  0.00  0.00     0.104 A 
ATOM     19  C   UNL d   1      15.420  15.955  -0.730  0.00  0.00     0.378 C 
ATOM     20  O   UNL d   1      15.695  16.272  -0.015  0.00  0.00    -0.237 OA
ATOM     21  O   UNL d   1      14.686  12.293  -0.216  0.00  0.00    -0.266 OA
BRANCH  19  22
ATOM     22  O   UNL d   1      15.346  16.421  -1.397  0.00  0.00    -0.257 OA
BRANCH  22  23
ATOM     23  C   UNL d   1      15.293  17.235  -1.310  0.00  0.00     0.128 C 
ATOM     24  C   UNL d   1      15.497  17.584  -0.593  0.00  0.00     0.029 C 
ENDBRANCH  22  23
ENDBRANCH  19  22
ENDBRANCH  11  12
ENDBRANCH  10  11
ENDBRANCH   7  10
BRANCH   3  25
ATOM     25  C   UNL d   1      13.775  14.438  -4.814  0.00  0.00     0.061 C 
BRANCH  25  26
ATOM     26  C   UNL d   1      14.028  14.812  -5.508  0.00  0.00     0.105 C 
BRANCH  26  27
ATOM     27  N   UNL d   1      13.881  15.618  -5.613  0.00  0.00    -0.206 NA
ATOM     28  C   UNL d   1      14.517  16.155  -5.622  0.00  0.00     0.279 C 
ATOM     29  O   UNL d   1      15.293  15.872  -5.524  0.00  0.00    -0.265 OA
BRANCH  28  30
ATOM     30  C   UNL d   1      14.374  16.958  -5.726  0.00  0.00     0.058 A 
ATOM     31  C   UNL d   1      13.777  17.202  -6.240  0.00  0.00     0.007 A 
ATOM     32  C   UNL d   1      13.628  18.005  -6.348  0.00  0.00     0.024 A 
ATOM     33  C   UNL d   1      14.082  18.564  -5.938  0.00  0.00     0.094 A 
ATOM     34  C   UNL d   1      14.679  18.320  -5.424  0.00  0.00     0.024 A 
ATOM     35  C   UNL d   1      14.823  17.511  -5.319  0.00  0.00     0.007 A 
BRANCH  33  36
ATOM     36  O   UNL d   1      13.936  19.364  -6.045  0.00  0.00    -0.328 OA
ATOM     37  C   UNL d   1      13.235  19.615  -6.387  0.00  0.00     0.181 C 
ENDBRANCH  33  36
ENDBRANCH  28  30
ENDBRANCH  26  27
ENDBRANCH  25  26
ENDBRANCH   3  25
TORSDOF 10
ENDMDL
