MODEL 1
REMARK VINA RESULT:      -7.8      0.000      0.000
REMARK  2 active torsions:
REMARK  status: ('A' for Active; 'I' for Inactive)
REMARK    1  A    between atoms: C_6  and  C_1 
REMARK    2  A    between atoms: O_12  and  C_9 
ROOT
ATOM      1  C   UNL d   1     -46.452  13.236  22.673  0.00  0.00     0.128 A 
ATOM      2  C   UNL d   1     -46.598  13.922  23.109  0.00  0.00     0.306 A 
ATOM      3  O   UNL d   1     -47.314  14.291  23.053  0.00  0.00    -0.271 OA
ATOM      4  C   UNL d   1     -47.027  12.939  22.194  0.00  0.00     0.013 A 
ATOM      5  C   UNL d   1     -47.925  13.991  22.555  0.00  0.00     0.125 A 
ATOM      6  C   UNL d   1     -47.780  13.306  22.120  0.00  0.00     0.025 A 
ATOM      7  O   UNL d   1     -46.025  14.224  23.590  0.00  0.00    -0.259 OA
ATOM      8  C   UNL d   1     -48.662  14.362  22.491  0.00  0.00     0.117 A 
ATOM      9  C   UNL d   1     -48.375  13.009  21.632  0.00  0.00     0.002 A 
ATOM     10  C   UNL d   1     -49.115  13.376  21.563  0.00  0.00     0.002 A 
ATOM     11  C   UNL d   1     -49.260  14.062  21.999  0.00  0.00     0.026 A 
ENDROOT
BRANCH   1  12
ATOM     12  C   UNL d   1     -45.732  12.845  22.715  0.00  0.00     0.216 C 
ATOM     13  O   UNL d   1     -45.096  13.046  22.193  0.00  0.00    -0.644 OA
ATOM     14  O   UNL d   1     -45.693  12.278  23.276  0.00  0.00    -0.644 OA
ENDBRANCH   1  12
BRANCH   8  15
ATOM     15  O   UNL d   1     -48.806  15.040  22.922  0.00  0.00    -0.326 OA
ATOM     16  C   UNL d   1     -49.536  15.388  22.902  0.00  0.00     0.181 C 
ENDBRANCH   8  15
TORSDOF 2
ENDMDL
MODEL 2
REMARK VINA RESULT:      -7.6      1.423      3.347
REMARK  2 active torsions:
REMARK  status: ('A' for Active; 'I' for Inactive)
REMARK    1  A    between atoms: C_6  and  C_1 
REMARK    2  A    between atoms: O_12  and  C_9 
ROOT
ATOM      1  C   UNL d   1     -48.964  14.687  22.904  0.00  0.00     0.128 A 
ATOM      2  C   UNL d   1     -49.193  13.941  23.170  0.00  0.00     0.306 A 
ATOM      3  O   UNL d   1     -48.642  13.358  23.263  0.00  0.00    -0.271 OA
ATOM      4  C   UNL d   1     -48.188  14.831  22.739  0.00  0.00     0.013 A 
ATOM      5  C   UNL d   1     -47.827  13.493  23.095  0.00  0.00     0.125 A 
ATOM      6  C   UNL d   1     -47.597  14.240  22.829  0.00  0.00     0.025 A 
ATOM      7  O   UNL d   1     -49.969  13.792  23.336  0.00  0.00    -0.259 OA
ATOM      8  C   UNL d   1     -47.254  12.904  23.187  0.00  0.00     0.117 A 
ATOM      9  C   UNL d   1     -46.800  14.377  22.664  0.00  0.00     0.002 A 
ATOM     10  C   UNL d   1     -46.223  13.790  22.754  0.00  0.00     0.002 A 
ATOM     11  C   UNL d   1     -46.452  13.044  23.020  0.00  0.00     0.026 A 
ENDROOT
BRANCH   1  12
ATOM     12  C   UNL d   1     -49.507  15.293  22.802  0.00  0.00     0.216 C 
ATOM     13  O   UNL d   1     -49.909  15.400  22.064  0.00  0.00    -0.644 OA
ATOM     14  O   UNL d   1     -49.616  15.755  23.445  0.00  0.00    -0.644 OA
ENDBRANCH   1  12
BRANCH   8  15
ATOM     15  O   UNL d   1     -47.481  12.165  23.450  0.00  0.00    -0.326 OA
ATOM     16  C   UNL d   1     -46.924  11.612  23.644  0.00  0.00     0.181 C 
ENDBRANCH   8  15
TORSDOF 2
ENDMDL
MODEL 3
REMARK VINA RESULT:      -7.3      1.909      3.205
REMARK  2 active torsions:
REMARK  status: ('A' for Active; 'I' for Inactive)
REMARK    1  A    between atoms: C_6  and  C_1 
REMARK    2  A    between atoms: O_12  and  C_9 
ROOT
ATOM      1  C   UNL d   1     -49.089  12.207  22.903  0.00  0.00     0.128 A 
ATOM      2  C   UNL d   1     -48.400  11.774  22.769  0.00  0.00     0.306 A 
ATOM      3  O   UNL d   1     -47.692  12.156  22.686  0.00  0.00    -0.271 OA
ATOM      4  C   UNL d   1     -49.052  13.011  22.952  0.00  0.00     0.013 A 
ATOM      5  C   UNL d   1     -47.638  12.996  22.734  0.00  0.00     0.125 A 
ATOM      6  C   UNL d   1     -48.327  13.429  22.868  0.00  0.00     0.025 A 
ATOM      7  O   UNL d   1     -48.432  10.969  22.720  0.00  0.00    -0.259 OA
ATOM      8  C   UNL d   1     -46.919  13.396  22.650  0.00  0.00     0.117 A 
ATOM      9  C   UNL d   1     -48.278  14.251  22.916  0.00  0.00     0.002 A 
ATOM     10  C   UNL d   1     -47.561  14.657  22.833  0.00  0.00     0.002 A 
ATOM     11  C   UNL d   1     -46.872  14.224  22.699  0.00  0.00     0.026 A 
ENDROOT
BRANCH   1  12
ATOM     12  C   UNL d   1     -49.817  11.840  22.990  0.00  0.00     0.216 C 
ATOM     13  O   UNL d   1     -50.004  11.402  23.691  0.00  0.00    -0.644 OA
ATOM     14  O   UNL d   1     -50.314  11.935  22.372  0.00  0.00    -0.644 OA
ENDBRANCH   1  12
BRANCH   8  15
ATOM     15  O   UNL d   1     -46.237  12.967  22.517  0.00  0.00    -0.326 OA
ATOM     16  C   UNL d   1     -45.551  13.345  22.313  0.00  0.00     0.181 C 
ENDBRANCH   8  15
TORSDOF 2
ENDMDL
MODEL 4
REMARK VINA RESULT:      -7.1      1.372      3.041
REMARK  2 active torsions:
REMARK  status: ('A' for Active; 'I' for Inactive)
REMARK    1  A    between atoms: C_6  and  C_1 
REMARK    2  A    between atoms: O_12  and  C_9 
ROOT
ATOM      1  C   UNL d   1     -48.282  14.156  22.817  0.00  0.00     0.128 A 
ATOM      2  C   UNL d   1     -47.460  14.124  22.879  0.00  0.00     0.306 A 
ATOM      3  O   UNL d   1     -47.098  13.439  23.108  0.00  0.00    -0.271 OA
ATOM      4  C   UNL d   1     -48.720  13.501  22.986  0.00  0.00     0.013 A 
ATOM      5  C   UNL d   1     -47.544  12.746  23.287  0.00  0.00     0.125 A 
ATOM      6  C   UNL d   1     -48.366  12.778  23.225  0.00  0.00     0.025 A 
ATOM      7  O   UNL d   1     -47.016  14.778  22.711  0.00  0.00    -0.259 OA
ATOM      8  C   UNL d   1     -47.183  12.039  23.522  0.00  0.00     0.117 A 
ATOM      9  C   UNL d   1     -48.805  12.102  23.400  0.00  0.00     0.002 A 
ATOM     10  C   UNL d   1     -48.450  11.392  23.636  0.00  0.00     0.002 A 
ATOM     11  C   UNL d   1     -47.628  11.360  23.698  0.00  0.00     0.026 A 
ENDROOT
BRANCH   1  12
ATOM     12  C   UNL d   1     -48.669  14.842  22.587  0.00  0.00     0.216 C 
ATOM     13  O   UNL d   1     -48.927  15.410  23.159  0.00  0.00    -0.644 OA
ATOM     14  O   UNL d   1     -48.775  14.916  21.798  0.00  0.00    -0.644 OA
ENDBRANCH   1  12
BRANCH   8  15
ATOM     15  O   UNL d   1     -46.370  12.008  23.583  0.00  0.00    -0.326 OA
ATOM     16  C   UNL d   1     -45.996  11.298  23.688  0.00  0.00     0.181 C 
ENDBRANCH   8  15
TORSDOF 2
ENDMDL
MODEL 5
REMARK VINA RESULT:      -7.0      1.981      2.443
REMARK  2 active torsions:
REMARK  status: ('A' for Active; 'I' for Inactive)
REMARK    1  A    between atoms: C_6  and  C_1 
REMARK    2  A    between atoms: O_12  and  C_9 
ROOT
ATOM      1  C   UNL d   1     -48.619  12.185  23.095  0.00  0.00     0.128 A 
ATOM      2  C   UNL d   1     -49.366  12.320  23.416  0.00  0.00     0.306 A 
ATOM      3  O   UNL d   1     -49.662  13.071  23.449  0.00  0.00    -0.271 OA
ATOM      4  C   UNL d   1     -48.186  12.804  22.815  0.00  0.00     0.013 A 
ATOM      5  C   UNL d   1     -49.221  13.729  23.161  0.00  0.00     0.125 A 
ATOM      6  C   UNL d   1     -48.474  13.594  22.839  0.00  0.00     0.025 A 
ATOM      7  O   UNL d   1     -49.803  11.702  23.698  0.00  0.00    -0.259 OA
ATOM      8  C   UNL d   1     -49.515  14.502  23.190  0.00  0.00     0.117 A 
ATOM      9  C   UNL d   1     -48.039  14.236  22.556  0.00  0.00     0.002 A 
ATOM     10  C   UNL d   1     -48.328  15.012  22.582  0.00  0.00     0.002 A 
ATOM     11  C   UNL d   1     -49.076  15.147  22.903  0.00  0.00     0.026 A 
ENDROOT
BRANCH   1  12
ATOM     12  C   UNL d   1     -48.299  11.430  23.052  0.00  0.00     0.216 C 
ATOM     13  O   UNL d   1     -47.852  11.108  23.695  0.00  0.00    -0.644 OA
ATOM     14  O   UNL d   1     -48.448  11.044  22.368  0.00  0.00    -0.644 OA
ENDBRANCH   1  12
BRANCH   8  15
ATOM     15  O   UNL d   1     -50.254  14.636  23.507  0.00  0.00    -0.326 OA
ATOM     16  C   UNL d   1     -50.515  15.393  23.629  0.00  0.00     0.181 C 
ENDBRANCH   8  15
TORSDOF 2
ENDMDL
MODEL 6
REMARK VINA RESULT:      -5.8      7.675      8.459
REMARK  2 active torsions:
REMARK  status: ('A' for Active; 'I' for Inactive)
REMARK    1  A    between atoms: C_6  and  C_1 
REMARK    2  A    between atoms: O_12  and  C_9 
ROOT
ATOM      1  C   UNL d   1     -40.437  14.881  18.112  0.00  0.00     0.128 A 
ATOM      2  C   UNL d   1     -40.056  14.203  18.386  0.00  0.00     0.306 A 
ATOM      3  O   UNL d   1     -39.931  14.101  19.178  0.00  0.00    -0.271 OA
ATOM      4  C   UNL d   1     -40.683  15.440  18.638  0.00  0.00     0.013 A 
ATOM      5  C   UNL d   1     -40.184  14.677  19.740  0.00  0.00     0.125 A 
ATOM      6  C   UNL d   1     -40.565  15.355  19.466  0.00  0.00     0.025 A 
ATOM      7  O   UNL d   1     -39.807  13.640  17.863  0.00  0.00    -0.259 OA
ATOM      8  C   UNL d   1     -40.061  14.582  20.552  0.00  0.00     0.117 A 
ATOM      9  C   UNL d   1     -40.813  15.921  20.012  0.00  0.00     0.002 A 
ATOM     10  C   UNL d   1     -40.694  15.832  20.827  0.00  0.00     0.002 A 
ATOM     11  C   UNL d   1     -40.313  15.154  21.101  0.00  0.00     0.026 A 
ENDROOT
BRANCH   1  12
ATOM     12  C   UNL d   1     -40.573  15.005  17.313  0.00  0.00     0.216 C 
ATOM     13  O   UNL d   1     -41.314  14.797  16.959  0.00  0.00    -0.644 OA
ATOM     14  O   UNL d   1     -39.960  15.328  16.916  0.00  0.00    -0.644 OA
ENDBRANCH   1  12
BRANCH   8  15
ATOM     15  O   UNL d   1     -39.685  13.911  20.823  0.00  0.00    -0.326 OA
ATOM     16  C   UNL d   1     -39.456  13.856  21.598  0.00  0.00     0.181 C 
ENDBRANCH   8  15
TORSDOF 2
ENDMDL
