MODEL 1
REMARK VINA RESULT:      41.3      0.000      0.000
REMARK  4 active torsions:
REMARK  status: ('A' for Active; 'I' for Inactive)
REMARK    1  A    between atoms: C_9  and  N_1 
REMARK    2  A    between atoms: S_10  and  C_6 
REMARK    3  A    between atoms: C_16  and  S_10 
REMARK    4  A    between atoms: C_15  and  C_16 
ROOT
ATOM      1  N   UNL d   1      14.440  14.464  -1.765  0.00  0.00    -0.212 N 
ATOM      2  C   UNL d   1      14.646  13.677  -1.654  0.00  0.00     0.169 A 
ATOM      3  N   UNL d   1      13.858  14.507  -2.327  0.00  0.00    -0.162 NA
ATOM      4  C   UNL d   1      14.180  13.223  -2.160  0.00  0.00     0.081 A 
ATOM      5  C   UNL d   1      13.691  13.735  -2.579  0.00  0.00     0.126 A 
ATOM      6  C   UNL d   1      14.262  12.406  -2.174  0.00  0.00     0.117 A 
ATOM      7  N   UNL d   1      15.195  13.313  -1.160  0.00  0.00    -0.205 NA
ATOM      8  N   UNL d   1      14.811  12.038  -1.680  0.00  0.00    -0.217 NA
ATOM      9  C   UNL d   1      15.278  12.492  -1.174  0.00  0.00     0.201 A 
ENDROOT
BRANCH   6  10
ATOM     10  S   UNL d   1      13.795  11.952  -2.681  0.00  0.00    -0.067 SA
BRANCH  10  11
ATOM     11  C   UNL d   1      13.193  12.302  -3.105  0.00  0.00     0.038 C 
BRANCH  11  12
ATOM     12  C   UNL d   1      13.226  12.322  -3.929  0.00  0.00     0.026 A 
ATOM     13  C   UNL d   1      13.703  11.784  -4.336  0.00  0.00     0.099 A 
ATOM     14  N   UNL d   1      13.736  11.804  -5.161  0.00  0.00    -0.242 NA
ATOM     15  C   UNL d   1      13.292  12.361  -5.587  0.00  0.00     0.099 A 
ATOM     16  C   UNL d   1      12.815  12.898  -5.172  0.00  0.00     0.021 A 
ATOM     17  C   UNL d   1      12.782  12.879  -4.347  0.00  0.00     0.004 A 
ENDBRANCH  11  12
ENDBRANCH  10  11
ENDBRANCH   6  10
BRANCH   1  18
ATOM     18  C   UNL d   1      14.819  15.059  -1.327  0.00  0.00     0.085 A 
ATOM     19  C   UNL d   1      15.073  14.906  -0.560  0.00  0.00     0.021 A 
ATOM     20  C   UNL d   1      15.447  15.490  -0.127  0.00  0.00     0.031 A 
ATOM     21  C   UNL d   1      15.572  16.238  -0.455  0.00  0.00     0.140 A 
ATOM     22  C   UNL d   1      15.310  16.384  -1.235  0.00  0.00     0.031 A 
ATOM     23  F   UNL d   1      15.951  16.834  -0.018  0.00  0.00    -0.204 F 
ATOM     24  C   UNL d   1      14.939  15.796  -1.660  0.00  0.00     0.021 A 
ENDBRANCH   1  18
TORSDOF 4
ENDMDL
