MODEL 1
REMARK VINA RESULT:      -2.0      0.000      0.000
REMARK  6 active torsions:
REMARK  status: ('A' for Active; 'I' for Inactive)
REMARK    1  A    between atoms: C_2  and  S_1 
REMARK    2  A    between atoms: N_4  and  S_1 
REMARK    3  A    between atoms: C_12  and  N_4 
REMARK    4  A    between atoms: O_14  and  C_6 
REMARK    5  A    between atoms: C_13  and  C_12 
REMARK    6  A    between atoms: C_18  and  O_14 
ROOT
ATOM      1  C   UNL d   1      32.275  17.662 -23.592  0.00  0.00     0.107 A 
ATOM      2  C   UNL d   1      31.611  17.786 -24.070  0.00  0.00     0.038 A 
ATOM      3  C   UNL d   1      32.567  16.900 -23.484  0.00  0.00     0.012 A 
ATOM      4  C   UNL d   1      31.240  17.139 -24.441  0.00  0.00     0.101 A 
ATOM      5  C   UNL d   1      32.196  16.254 -23.855  0.00  0.00     0.003 A 
ATOM      6  C   UNL d   1      31.535  16.374 -24.331  0.00  0.00     0.023 A 
ATOM      7  C   UNL d   1      33.234  16.774 -23.005  0.00  0.00     0.001 C 
ATOM      8  C   UNL d   1      31.167  15.734 -24.698  0.00  0.00     0.002 C 
ENDROOT
BRANCH   1   9
ATOM      9  S   UNL d   1      32.644  18.303 -23.225  0.00  0.00     0.285 S 
ATOM     10  O   UNL d   1      33.213  18.317 -23.820  0.00  0.00    -0.198 OA
ATOM     11  O   UNL d   1      32.070  18.289 -22.626  0.00  0.00    -0.198 OA
BRANCH   9  12
ATOM     12  N   UNL d   1      33.012  18.943 -22.858  0.00  0.00    -0.155 NA
BRANCH  12  13
ATOM     13  C   UNL d   1      32.886  19.709 -23.143  0.00  0.00     0.131 C 
BRANCH  13  14
ATOM     14  C   UNL d   1      33.004  20.357 -22.646  0.00  0.00     0.101 A 
ATOM     15  N   UNL d   1      33.005  20.256 -21.828  0.00  0.00    -0.242 NA
ATOM     16  C   UNL d   1      33.123  20.903 -21.331  0.00  0.00     0.099 A 
ATOM     17  C   UNL d   1      33.241  21.653 -21.651  0.00  0.00     0.021 A 
ATOM     18  C   UNL d   1      33.241  21.757 -22.472  0.00  0.00     0.003 A 
ATOM     19  C   UNL d   1      33.122  21.110 -22.969  0.00  0.00     0.021 A 
ENDBRANCH  13  14
ENDBRANCH  12  13
ENDBRANCH   9  12
ENDBRANCH   1   9
BRANCH   4  20
ATOM     20  O   UNL d   1      30.578  17.261 -24.917  0.00  0.00    -0.305 OA
BRANCH  20  21
ATOM     21  C   UNL d   1      30.066  17.884 -24.755  0.00  0.00     0.123 C 
ATOM     22  C   UNL d   1      29.316  17.897 -25.097  0.00  0.00     0.029 C 
ENDBRANCH  20  21
ENDBRANCH   4  20
TORSDOF 6
ENDMDL
MODEL 2
REMARK VINA RESULT:      -0.5      1.361      4.649
REMARK  6 active torsions:
REMARK  status: ('A' for Active; 'I' for Inactive)
REMARK    1  A    between atoms: C_2  and  S_1 
REMARK    2  A    between atoms: N_4  and  S_1 
REMARK    3  A    between atoms: C_12  and  N_4 
REMARK    4  A    between atoms: O_14  and  C_6 
REMARK    5  A    between atoms: C_13  and  C_12 
REMARK    6  A    between atoms: C_18  and  O_14 
ROOT
ATOM      1  C   UNL d   1      33.098  20.322 -23.094  0.00  0.00     0.107 A 
ATOM      2  C   UNL d   1      33.051  20.600 -22.316  0.00  0.00     0.038 A 
ATOM      3  C   UNL d   1      33.193  20.855 -23.715  0.00  0.00     0.012 A 
ATOM      4  C   UNL d   1      33.098  21.417 -22.162  0.00  0.00     0.101 A 
ATOM      5  C   UNL d   1      33.240  21.672 -23.561  0.00  0.00     0.003 A 
ATOM      6  C   UNL d   1      33.193  21.950 -22.788  0.00  0.00     0.023 A 
ATOM      7  C   UNL d   1      33.241  20.578 -24.497  0.00  0.00     0.001 C 
ATOM      8  C   UNL d   1      33.240  22.760 -22.636  0.00  0.00     0.002 C 
ENDROOT
BRANCH   1   9
ATOM      9  S   UNL d   1      33.051  19.513 -23.247  0.00  0.00     0.285 S 
ATOM     10  O   UNL d   1      32.918  19.671 -24.044  0.00  0.00    -0.198 OA
ATOM     11  O   UNL d   1      33.186  19.354 -22.443  0.00  0.00    -0.198 OA
BRANCH   9  12
ATOM     12  N   UNL d   1      33.004  18.704 -23.399  0.00  0.00    -0.155 NA
BRANCH  12  13
ATOM     13  C   UNL d   1      32.320  18.286 -23.198  0.00  0.00     0.131 C 
BRANCH  13  14
ATOM     14  C   UNL d   1      32.240  17.495 -23.421  0.00  0.00     0.101 A 
ATOM     15  N   UNL d   1      32.885  16.985 -23.371  0.00  0.00    -0.242 NA
ATOM     16  C   UNL d   1      32.806  16.195 -23.594  0.00  0.00     0.099 A 
ATOM     17  C   UNL d   1      32.081  15.915 -23.866  0.00  0.00     0.021 A 
ATOM     18  C   UNL d   1      31.432  16.424 -23.917  0.00  0.00     0.003 A 
ATOM     19  C   UNL d   1      31.511  17.214 -23.694  0.00  0.00     0.021 A 
ENDBRANCH  13  14
ENDBRANCH  12  13
ENDBRANCH   9  12
ENDBRANCH   1   9
BRANCH   4  20
ATOM     20  O   UNL d   1      33.051  21.695 -21.388  0.00  0.00    -0.305 OA
BRANCH  20  21
ATOM     21  C   UNL d   1      32.471  21.401 -20.883  0.00  0.00     0.123 C 
ATOM     22  C   UNL d   1      32.506  21.571 -20.077  0.00  0.00     0.029 C 
ENDBRANCH  20  21
ENDBRANCH   4  20
TORSDOF 6
ENDMDL
MODEL 3
REMARK VINA RESULT:      -0.3      2.510      5.853
REMARK  6 active torsions:
REMARK  status: ('A' for Active; 'I' for Inactive)
REMARK    1  A    between atoms: C_2  and  S_1 
REMARK    2  A    between atoms: N_4  and  S_1 
REMARK    3  A    between atoms: C_12  and  N_4 
REMARK    4  A    between atoms: O_14  and  C_6 
REMARK    5  A    between atoms: C_13  and  C_12 
REMARK    6  A    between atoms: C_18  and  O_14 
ROOT
ATOM      1  C   UNL d   1      32.771  21.914 -20.830  0.00  0.00     0.107 A 
ATOM      2  C   UNL d   1      32.940  21.713 -20.046  0.00  0.00     0.038 A 
ATOM      3  C   UNL d   1      32.729  22.706 -21.052  0.00  0.00     0.012 A 
ATOM      4  C   UNL d   1      33.067  22.312 -19.481  0.00  0.00     0.101 A 
ATOM      5  C   UNL d   1      32.856  23.305 -20.487  0.00  0.00     0.003 A 
ATOM      6  C   UNL d   1      33.024  23.107 -19.706  0.00  0.00     0.023 A 
ATOM      7  C   UNL d   1      32.560  22.909 -21.839  0.00  0.00     0.001 C 
ATOM      8  C   UNL d   1      33.149  23.701 -19.147  0.00  0.00     0.002 C 
ENDROOT
BRANCH   1   9
ATOM      9  S   UNL d   1      32.646  21.321 -21.390  0.00  0.00     0.285 S 
ATOM     10  O   UNL d   1      33.237  21.643 -21.864  0.00  0.00    -0.198 OA
ATOM     11  O   UNL d   1      32.050  20.996 -20.912  0.00  0.00    -0.198 OA
BRANCH   9  12
ATOM     12  N   UNL d   1      32.520  20.727 -21.949  0.00  0.00    -0.155 NA
BRANCH  12  13
ATOM     13  C   UNL d   1      33.120  20.181 -22.112  0.00  0.00     0.131 C 
BRANCH  13  14
ATOM     14  C   UNL d   1      33.011  19.615 -22.702  0.00  0.00     0.101 A 
ATOM     15  N   UNL d   1      33.112  19.820 -23.494  0.00  0.00    -0.242 NA
ATOM     16  C   UNL d   1      33.003  19.255 -24.085  0.00  0.00     0.099 A 
ATOM     17  C   UNL d   1      32.794  18.484 -23.884  0.00  0.00     0.021 A 
ATOM     18  C   UNL d   1      32.692  18.276 -23.090  0.00  0.00     0.003 A 
ATOM     19  C   UNL d   1      32.800  18.841 -22.499  0.00  0.00     0.021 A 
ENDBRANCH  13  14
ENDBRANCH  12  13
ENDBRANCH   9  12
ENDBRANCH   1   9
BRANCH   4  20
ATOM     20  O   UNL d   1      33.235  22.114 -18.699  0.00  0.00    -0.305 OA
BRANCH  20  21
ATOM     21  C   UNL d   1      33.051  22.641 -18.095  0.00  0.00     0.123 C 
ATOM     22  C   UNL d   1      33.181  22.426 -17.310  0.00  0.00     0.029 C 
ENDBRANCH  20  21
ENDBRANCH   4  20
TORSDOF 6
ENDMDL
MODEL 4
REMARK VINA RESULT:      -0.1      1.527      4.912
REMARK  6 active torsions:
REMARK  status: ('A' for Active; 'I' for Inactive)
REMARK    1  A    between atoms: C_2  and  S_1 
REMARK    2  A    between atoms: N_4  and  S_1 
REMARK    3  A    between atoms: C_12  and  N_4 
REMARK    4  A    between atoms: O_14  and  C_6 
REMARK    5  A    between atoms: C_13  and  C_12 
REMARK    6  A    between atoms: C_18  and  O_14 
ROOT
ATOM      1  C   UNL d   1      33.099  20.645 -22.298  0.00  0.00     0.107 A 
ATOM      2  C   UNL d   1      33.002  20.804 -21.492  0.00  0.00     0.038 A 
ATOM      3  C   UNL d   1      33.143  21.266 -22.837  0.00  0.00     0.012 A 
ATOM      4  C   UNL d   1      32.948  21.591 -21.227  0.00  0.00     0.101 A 
ATOM      5  C   UNL d   1      33.089  22.054 -22.571  0.00  0.00     0.003 A 
ATOM      6  C   UNL d   1      32.992  22.214 -21.770  0.00  0.00     0.023 A 
ATOM      7  C   UNL d   1      33.240  21.109 -23.647  0.00  0.00     0.001 C 
ATOM      8  C   UNL d   1      32.938  22.994 -21.507  0.00  0.00     0.002 C 
ENDROOT
BRANCH   1   9
ATOM      9  S   UNL d   1      33.152  19.865 -22.561  0.00  0.00     0.285 S 
ATOM     10  O   UNL d   1      33.065  19.598 -21.786  0.00  0.00    -0.198 OA
ATOM     11  O   UNL d   1      33.241  20.134 -23.341  0.00  0.00    -0.198 OA
BRANCH   9  12
ATOM     12  N   UNL d   1      33.206  19.085 -22.824  0.00  0.00    -0.155 NA
BRANCH  12  13
ATOM     13  C   UNL d   1      32.567  18.570 -22.720  0.00  0.00     0.131 C 
BRANCH  13  14
ATOM     14  C   UNL d   1      32.556  17.844 -23.111  0.00  0.00     0.101 A 
ATOM     15  N   UNL d   1      33.185  17.319 -23.024  0.00  0.00    -0.242 NA
ATOM     16  C   UNL d   1      33.174  16.592 -23.415  0.00  0.00     0.099 A 
ATOM     17  C   UNL d   1      32.534  16.391 -23.892  0.00  0.00     0.021 A 
ATOM     18  C   UNL d   1      31.902  16.916 -23.981  0.00  0.00     0.003 A 
ATOM     19  C   UNL d   1      31.912  17.642 -23.590  0.00  0.00     0.021 A 
ENDBRANCH  13  14
ENDBRANCH  12  13
ENDBRANCH   9  12
ENDBRANCH   1   9
BRANCH   4  20
ATOM     20  O   UNL d   1      32.851  21.751 -20.424  0.00  0.00    -0.305 OA
BRANCH  20  21
ATOM     21  C   UNL d   1      33.159  21.233 -19.864  0.00  0.00     0.123 C 
ATOM     22  C   UNL d   1      33.241  21.478 -19.081  0.00  0.00     0.029 C 
ENDBRANCH  20  21
ENDBRANCH   4  20
TORSDOF 6
ENDMDL
