MODEL 1
REMARK VINA RESULT:       3.0      0.000      0.000
REMARK  4 active torsions:
REMARK  status: ('A' for Active; 'I' for Inactive)
REMARK    1  A    between atoms: C_11  and  C_4 
REMARK    2  A    between atoms: N_10  and  C_7 
REMARK    3  A    between atoms: C_14  and  N_10 
REMARK    4  A    between atoms: C_21  and  C_14 
ROOT
ATOM      1  C   UNL d   1      57.754   0.641  33.339  0.00  0.00     0.186 A 
ATOM      2  N   UNL d   1      58.503   0.651  33.699  0.00  0.00    -0.193 N 
ATOM      3  N   UNL d   1      57.702   0.640  32.504  0.00  0.00    -0.206 NA
ATOM      4  C   UNL d   1      57.184   0.633  33.932  0.00  0.00     0.140 A 
ATOM      5  N   UNL d   1      58.387   0.650  34.522  0.00  0.00    -0.058 NA
ATOM      6  N   UNL d   1      57.571   0.638  34.669  0.00  0.00    -0.127 NA
ATOM      7  C   UNL d   1      58.388   0.650  32.040  0.00  0.00     0.166 A 
ATOM      8  C   UNL d   1      59.129   0.660  32.413  0.00  0.00     0.054 A 
ATOM      9  C   UNL d   1      59.185   0.661  33.236  0.00  0.00     0.089 A 
ATOM     10  C   UNL d   1      59.810   0.670  31.951  0.00  0.00     0.005 A 
ATOM     11  C   UNL d   1      59.928   0.671  33.597  0.00  0.00     0.019 A 
ATOM     12  C   UNL d   1      60.550   0.680  32.311  0.00  0.00     0.000 A 
ATOM     13  C   UNL d   1      60.610   0.681  33.133  0.00  0.00     0.002 A 
ENDROOT
BRANCH   7  14
ATOM     14  N   UNL d   1      58.337   0.649  31.217  0.00  0.00    -0.225 NA
BRANCH  14  15
ATOM     15  C   UNL d   1      57.886   0.078  30.840  0.00  0.00     0.101 C 
BRANCH  15  16
ATOM     16  C   UNL d   1      58.033  -0.113  30.051  0.00  0.00     0.019 A 
ATOM     17  C   UNL d   1      57.935   0.454  29.460  0.00  0.00     0.002 A 
ATOM     18  C   UNL d   1      58.082   0.264  28.671  0.00  0.00     0.000 A 
ATOM     19  C   UNL d   1      58.329  -0.503  28.475  0.00  0.00     0.000 A 
ATOM     20  C   UNL d   1      58.427  -1.073  29.071  0.00  0.00     0.000 A 
ATOM     21  C   UNL d   1      58.277  -0.871  29.856  0.00  0.00     0.002 A 
ENDBRANCH  15  16
ENDBRANCH  14  15
ENDBRANCH   7  14
BRANCH   4  22
ATOM     22  C   UNL d   1      56.373   0.621  33.815  0.00  0.00     0.023 A 
ATOM     23  C   UNL d   1      56.074   0.568  33.050  0.00  0.00     0.004 A 
ATOM     24  C   UNL d   1      55.251   0.556  32.928  0.00  0.00     0.030 A 
ATOM     25  C   UNL d   1      54.743   0.598  33.569  0.00  0.00     0.140 A 
ATOM     26  C   UNL d   1      55.055   0.652  34.338  0.00  0.00     0.030 A 
ATOM     27  F   UNL d   1      53.933   0.586  33.452  0.00  0.00    -0.204 F 
ATOM     28  C   UNL d   1      55.865   0.663  34.455  0.00  0.00     0.004 A 
ENDBRANCH   4  22
TORSDOF 4
ENDMDL
MODEL 2
REMARK VINA RESULT:       4.0      2.913      5.252
REMARK  4 active torsions:
REMARK  status: ('A' for Active; 'I' for Inactive)
REMARK    1  A    between atoms: C_11  and  C_4 
REMARK    2  A    between atoms: N_10  and  C_7 
REMARK    3  A    between atoms: C_14  and  N_10 
REMARK    4  A    between atoms: C_21  and  C_14 
ROOT
ATOM      1  C   UNL d   1      59.599  -1.996  29.141  0.00  0.00     0.186 A 
ATOM      2  N   UNL d   1      60.310  -1.569  29.088  0.00  0.00    -0.193 N 
ATOM      3  N   UNL d   1      58.946  -1.657  29.539  0.00  0.00    -0.206 NA
ATOM      4  C   UNL d   1      59.704  -2.718  28.759  0.00  0.00     0.140 A 
ATOM      5  N   UNL d   1      60.854  -2.035  28.668  0.00  0.00    -0.058 NA
ATOM      6  N   UNL d   1      60.481  -2.747  28.463  0.00  0.00    -0.127 NA
ATOM      7  C   UNL d   1      59.005  -0.904  29.877  0.00  0.00     0.166 A 
ATOM      8  C   UNL d   1      59.721  -0.488  29.818  0.00  0.00     0.054 A 
ATOM      9  C   UNL d   1      60.367  -0.819  29.426  0.00  0.00     0.089 A 
ATOM     10  C   UNL d   1      59.778   0.260  30.154  0.00  0.00     0.005 A 
ATOM     11  C   UNL d   1      61.075  -0.396  29.372  0.00  0.00     0.019 A 
ATOM     12  C   UNL d   1      60.484   0.682  30.100  0.00  0.00     0.000 A 
ATOM     13  C   UNL d   1      61.132   0.354  29.709  0.00  0.00     0.002 A 
ENDROOT
BRANCH   7  14
ATOM     14  N   UNL d   1      58.362  -0.569  30.270  0.00  0.00    -0.225 NA
BRANCH  14  15
ATOM     15  C   UNL d   1      57.831  -1.054  30.664  0.00  0.00     0.101 C 
BRANCH  15  16
ATOM     16  C   UNL d   1      57.307  -0.735  31.215  0.00  0.00     0.019 A 
ATOM     17  C   UNL d   1      56.934  -1.221  31.767  0.00  0.00     0.002 A 
ATOM     18  C   UNL d   1      56.410  -0.902  32.318  0.00  0.00     0.000 A 
ATOM     19  C   UNL d   1      56.261  -0.087  32.314  0.00  0.00     0.000 A 
ATOM     20  C   UNL d   1      56.637   0.402  31.758  0.00  0.00     0.000 A 
ATOM     21  C   UNL d   1      57.159   0.072  31.212  0.00  0.00     0.002 A 
ENDBRANCH  15  16
ENDBRANCH  14  15
ENDBRANCH   7  14
BRANCH   4  22
ATOM     22  C   UNL d   1      59.138  -3.305  28.683  0.00  0.00     0.023 A 
ATOM     23  C   UNL d   1      59.366  -4.095  28.721  0.00  0.00     0.004 A 
ATOM     24  C   UNL d   1      58.793  -4.694  28.644  0.00  0.00     0.030 A 
ATOM     25  C   UNL d   1      58.007  -4.495  28.531  0.00  0.00     0.140 A 
ATOM     26  C   UNL d   1      57.787  -3.693  28.494  0.00  0.00     0.030 A 
ATOM     27  F   UNL d   1      57.441  -5.082  28.455  0.00  0.00    -0.204 F 
ATOM     28  C   UNL d   1      58.353  -3.106  28.570  0.00  0.00     0.004 A 
ENDBRANCH   4  22
TORSDOF 4
ENDMDL
