MODEL 1
REMARK VINA RESULT:      -2.3      0.000      0.000
REMARK  5 active torsions:
REMARK  status: ('A' for Active; 'I' for Inactive)
REMARK    1  A    between atoms: C_12  and  N_1 
REMARK    2  A    between atoms: N_7  and  C_5 
REMARK    3  A    between atoms: C_10  and  N_7 
REMARK    4  A    between atoms: O_14  and  C_13 
REMARK    5  A    between atoms: C_19  and  O_14 
ROOT
ATOM      1  N   UNL d   1     -41.785-122.732 -53.437  0.00  0.00    -0.212 N 
ATOM      2  C   UNL d   1     -41.830-122.295 -52.738  0.00  0.00     0.170 A 
ATOM      3  C   UNL d   1     -41.690-122.808 -52.108  0.00  0.00     0.093 A 
ATOM      4  N   UNL d   1     -41.617-123.520 -53.236  0.00  0.00    -0.162 NA
ATOM      5  C   UNL d   1     -41.699-122.523 -51.329  0.00  0.00     0.169 A 
ATOM      6  C   UNL d   1     -41.560-123.561 -52.413  0.00  0.00     0.127 A 
ATOM      7  N   UNL d   1     -41.980-121.490 -52.601  0.00  0.00    -0.205 NA
ATOM      8  N   UNL d   1     -41.850-121.718 -51.191  0.00  0.00    -0.205 NA
ATOM      9  C   UNL d   1     -41.989-121.211 -51.827  0.00  0.00     0.202 A 
ENDROOT
BRANCH   5  10
ATOM     10  N   UNL d   1     -41.562-123.025 -50.699  0.00  0.00    -0.225 NA
BRANCH  10  11
ATOM     11  C   UNL d   1     -42.184-123.286 -50.239  0.00  0.00     0.106 A 
ATOM     12  C   UNL d   1     -42.075-123.447 -49.434  0.00  0.00     0.118 A 
ATOM     13  C   UNL d   1     -42.694-123.708 -48.973  0.00  0.00     0.026 A 
ATOM     14  C   UNL d   1     -43.448-123.813 -49.319  0.00  0.00     0.002 A 
ATOM     15  C   UNL d   1     -43.563-123.658 -50.105  0.00  0.00     0.002 A 
ATOM     16  C   UNL d   1     -42.931-123.392 -50.574  0.00  0.00     0.021 A 
BRANCH  12  17
ATOM     17  O   UNL d   1     -41.328-123.340 -49.099  0.00  0.00    -0.304 OA
BRANCH  17  18
ATOM     18  C   UNL d   1     -41.212-123.488 -48.291  0.00  0.00     0.123 C 
ATOM     19  C   UNL d   1     -41.123-122.859 -47.769  0.00  0.00     0.029 C 
ENDBRANCH  17  18
ENDBRANCH  12  17
ENDBRANCH  10  11
ENDBRANCH   5  10
BRANCH   1  20
ATOM     20  C   UNL d   1     -41.890-122.439 -54.203  0.00  0.00     0.085 A 
ATOM     21  C   UNL d   1     -41.253-122.439 -54.734  0.00  0.00     0.019 A 
ATOM     22  C   UNL d   1     -41.355-122.147 -55.496  0.00  0.00     0.002 A 
ATOM     23  C   UNL d   1     -42.096-121.852 -55.733  0.00  0.00     0.000 A 
ATOM     24  C   UNL d   1     -42.725-121.853 -55.207  0.00  0.00     0.002 A 
ATOM     25  C   UNL d   1     -42.631-122.144 -54.441  0.00  0.00     0.019 A 
ENDBRANCH   1  20
TORSDOF 5
ENDMDL
MODEL 2
REMARK VINA RESULT:      -0.8      1.448      4.929
REMARK  5 active torsions:
REMARK  status: ('A' for Active; 'I' for Inactive)
REMARK    1  A    between atoms: C_12  and  N_1 
REMARK    2  A    between atoms: N_7  and  C_5 
REMARK    3  A    between atoms: C_10  and  N_7 
REMARK    4  A    between atoms: O_14  and  C_13 
REMARK    5  A    between atoms: C_19  and  O_14 
ROOT
ATOM      1  N   UNL d   1     -42.640-122.695 -50.010  0.00  0.00    -0.212 N 
ATOM      2  C   UNL d   1     -42.117-123.006 -50.568  0.00  0.00     0.170 A 
ATOM      3  C   UNL d   1     -42.200-122.571 -51.264  0.00  0.00     0.093 A 
ATOM      4  N   UNL d   1     -43.047-122.064 -50.364  0.00  0.00    -0.162 NA
ATOM      5  C   UNL d   1     -41.741-122.759 -51.929  0.00  0.00     0.169 A 
ATOM      6  C   UNL d   1     -42.771-121.992 -51.140  0.00  0.00     0.127 A 
ATOM      7  N   UNL d   1     -41.576-123.634 -50.526  0.00  0.00    -0.205 NA
ATOM      8  N   UNL d   1     -41.199-123.386 -51.887  0.00  0.00    -0.205 NA
ATOM      9  C   UNL d   1     -41.122-123.817 -51.187  0.00  0.00     0.202 A 
ENDROOT
BRANCH   5  10
ATOM     10  N   UNL d   1     -41.816-122.333 -52.622  0.00  0.00    -0.225 NA
BRANCH  10  11
ATOM     11  C   UNL d   1     -41.692-122.695 -53.343  0.00  0.00     0.106 A 
ATOM     12  C   UNL d   1     -41.959-122.344 -54.044  0.00  0.00     0.118 A 
ATOM     13  C   UNL d   1     -41.836-122.704 -54.764  0.00  0.00     0.026 A 
ATOM     14  C   UNL d   1     -41.434-123.437 -54.794  0.00  0.00     0.002 A 
ATOM     15  C   UNL d   1     -41.170-123.787 -54.113  0.00  0.00     0.002 A 
ATOM     16  C   UNL d   1     -41.297-123.419 -53.380  0.00  0.00     0.021 A 
BRANCH  12  17
ATOM     17  O   UNL d   1     -42.354-121.620 -54.007  0.00  0.00    -0.304 OA
BRANCH  17  18
ATOM     18  C   UNL d   1     -42.689-121.296 -54.694  0.00  0.00     0.123 C 
ATOM     19  C   UNL d   1     -42.367-120.615 -55.023  0.00  0.00     0.029 C 
ENDBRANCH  17  18
ENDBRANCH  12  17
ENDBRANCH  10  11
ENDBRANCH   5  10
BRANCH   1  20
ATOM     20  C   UNL d   1     -42.741-122.963 -49.234  0.00  0.00     0.085 A 
ATOM     21  C   UNL d   1     -42.218-122.714 -48.642  0.00  0.00     0.019 A 
ATOM     22  C   UNL d   1     -42.317-122.980 -47.870  0.00  0.00     0.002 A 
ATOM     23  C   UNL d   1     -42.942-123.498 -47.685  0.00  0.00     0.000 A 
ATOM     24  C   UNL d   1     -43.459-123.742 -48.272  0.00  0.00     0.002 A 
ATOM     25  C   UNL d   1     -43.366-123.480 -49.049  0.00  0.00     0.019 A 
ENDBRANCH   1  20
TORSDOF 5
ENDMDL
