MODEL 1
REMARK VINA RESULT:      -7.0      0.000      0.000
REMARK  9 active torsions:
REMARK  status: ('A' for Active; 'I' for Inactive)
REMARK    1  A    between atoms: C_2  and  S_1 
REMARK    2  A    between atoms: N_3  and  S_1 
REMARK    3  A    between atoms: C_14  and  N_3 
REMARK    4  A    between atoms: C_15  and  N_3 
REMARK    5  A    between atoms: C_6  and  C_7 
REMARK    6  A    between atoms: C_7  and  C_8 
REMARK    7  A    between atoms: C_8  and  C_12 
REMARK    8  A    between atoms: C_21  and  C_14 
REMARK    9  A    between atoms: C_20  and  C_15 
ROOT
ATOM      1  C   UNL d   1     -47.852  13.660  22.591  0.00  0.00     0.104 A 
ATOM      2  C   UNL d   1     -47.747  14.477  22.667  0.00  0.00     0.012 A 
ATOM      3  C   UNL d   1     -47.187  13.149  22.585  0.00  0.00     0.013 A 
ATOM      4  C   UNL d   1     -46.438  13.460  22.653  0.00  0.00     0.001 A 
ATOM      5  C   UNL d   1     -46.998  14.789  22.735  0.00  0.00     0.001 A 
ATOM      6  C   UNL d   1     -46.334  14.290  22.730  0.00  0.00     0.000 A 
ATOM      7  C   UNL d   1     -48.406  14.974  22.672  0.00  0.00     0.001 C 
ENDROOT
BRANCH   1   8
ATOM      8  S   UNL d   1     -48.621  13.340  22.521  0.00  0.00     0.272 S 
ATOM      9  O   UNL d   1     -48.476  13.166  21.724  0.00  0.00    -0.200 OA
ATOM     10  O   UNL d   1     -48.765  13.513  23.311  0.00  0.00    -0.200 OA
BRANCH   8  11
ATOM     11  N   UNL d   1     -49.371  13.028  22.453  0.00  0.00    -0.223 N 
BRANCH  11  12
ATOM     12  C   UNL d   1     -49.688  12.556  23.072  0.00  0.00     0.137 C 
BRANCH  12  13
ATOM     13  C   UNL d   1     -49.875  11.776  22.933  0.00  0.00     0.254 C 
ATOM     14  O   UNL d   1     -50.080  11.280  23.556  0.00  0.00    -0.281 OA
ENDBRANCH  12  13
ENDBRANCH  11  12
BRANCH  11  15
ATOM     15  C   UNL d   1     -49.827  13.175  21.774  0.00  0.00     0.137 C 
BRANCH  15  16
ATOM     16  C   UNL d   1     -50.631  13.349  21.860  0.00  0.00     0.254 C 
ATOM     17  O   UNL d   1     -51.062  13.578  21.194  0.00  0.00    -0.281 OA
ENDBRANCH  15  16
ENDBRANCH  11  15
ENDBRANCH   8  11
ENDBRANCH   1   8
BRANCH   4  18
ATOM     18  C   UNL d   1     -45.777  12.968  22.648  0.00  0.00     0.006 C 
BRANCH  18  19
ATOM     19  C   UNL d   1     -45.152  13.128  22.145  0.00  0.00     0.070 C 
BRANCH  19  20
ATOM     20  C   UNL d   1     -44.493  12.638  22.111  0.00  0.00     0.211 C 
ATOM     21  O   UNL d   1     -43.912  12.775  21.525  0.00  0.00    -0.644 OA
ATOM     22  O   UNL d   1     -44.400  12.027  22.633  0.00  0.00    -0.644 OA
ENDBRANCH  19  20
ENDBRANCH  18  19
ENDBRANCH   4  18
TORSDOF 9
ENDMDL
MODEL 2
REMARK VINA RESULT:      -6.6      1.128      2.080
REMARK  9 active torsions:
REMARK  status: ('A' for Active; 'I' for Inactive)
REMARK    1  A    between atoms: C_2  and  S_1 
REMARK    2  A    between atoms: N_3  and  S_1 
REMARK    3  A    between atoms: C_14  and  N_3 
REMARK    4  A    between atoms: C_15  and  N_3 
REMARK    5  A    between atoms: C_6  and  C_7 
REMARK    6  A    between atoms: C_7  and  C_8 
REMARK    7  A    between atoms: C_8  and  C_12 
REMARK    8  A    between atoms: C_21  and  C_14 
REMARK    9  A    between atoms: C_20  and  C_15 
ROOT
ATOM      1  C   UNL d   1     -48.314  12.883  23.108  0.00  0.00     0.104 A 
ATOM      2  C   UNL d   1     -48.506  12.145  23.430  0.00  0.00     0.012 A 
ATOM      3  C   UNL d   1     -47.511  13.097  22.996  0.00  0.00     0.013 A 
ATOM      4  C   UNL d   1     -46.921  12.576  23.203  0.00  0.00     0.001 A 
ATOM      5  C   UNL d   1     -47.916  11.623  23.637  0.00  0.00     0.001 A 
ATOM      6  C   UNL d   1     -47.118  11.827  23.529  0.00  0.00     0.000 A 
ATOM      7  C   UNL d   1     -49.298  11.941  23.538  0.00  0.00     0.001 C 
ENDROOT
BRANCH   1   8
ATOM      8  S   UNL d   1     -48.920  13.419  22.895  0.00  0.00     0.272 S 
ATOM      9  O   UNL d   1     -49.099  13.535  23.696  0.00  0.00    -0.200 OA
ATOM     10  O   UNL d   1     -48.742  13.304  22.102  0.00  0.00    -0.200 OA
BRANCH   8  11
ATOM     11  N   UNL d   1     -49.510  13.941  22.688  0.00  0.00    -0.223 N 
BRANCH  11  12
ATOM     12  C   UNL d   1     -49.879  13.880  21.935  0.00  0.00     0.137 C 
BRANCH  12  13
ATOM     13  C   UNL d   1     -50.690  13.899  21.877  0.00  0.00     0.254 C 
ATOM     14  O   UNL d   1     -51.058  13.779  21.151  0.00  0.00    -0.281 OA
ENDBRANCH  12  13
ENDBRANCH  11  12
BRANCH  11  15
ATOM     15  C   UNL d   1     -49.751  14.534  23.216  0.00  0.00     0.137 C 
BRANCH  15  16
ATOM     16  C   UNL d   1     -49.671  15.327  22.994  0.00  0.00     0.254 C 
ATOM     17  O   UNL d   1     -49.821  15.915  23.553  0.00  0.00    -0.281 OA
ENDBRANCH  15  16
ENDBRANCH  11  15
ENDBRANCH   8  11
ENDBRANCH   1   8
BRANCH   4  18
ATOM     18  C   UNL d   1     -46.129  12.774  23.097  0.00  0.00     0.006 C 
BRANCH  18  19
ATOM     19  C   UNL d   1     -45.809  12.796  22.344  0.00  0.00     0.070 C 
BRANCH  19  20
ATOM     20  C   UNL d   1     -45.034  13.033  22.214  0.00  0.00     0.211 C 
ATOM     21  O   UNL d   1     -44.876  13.838  22.048  0.00  0.00    -0.644 OA
ATOM     22  O   UNL d   1     -44.425  12.503  22.244  0.00  0.00    -0.644 OA
ENDBRANCH  19  20
ENDBRANCH  18  19
ENDBRANCH   4  18
TORSDOF 9
ENDMDL
MODEL 3
REMARK VINA RESULT:      -5.8      1.544      4.350
REMARK  9 active torsions:
REMARK  status: ('A' for Active; 'I' for Inactive)
REMARK    1  A    between atoms: C_2  and  S_1 
REMARK    2  A    between atoms: N_3  and  S_1 
REMARK    3  A    between atoms: C_14  and  N_3 
REMARK    4  A    between atoms: C_15  and  N_3 
REMARK    5  A    between atoms: C_6  and  C_7 
REMARK    6  A    between atoms: C_7  and  C_8 
REMARK    7  A    between atoms: C_8  and  C_12 
REMARK    8  A    between atoms: C_21  and  C_14 
REMARK    9  A    between atoms: C_20  and  C_15 
ROOT
ATOM      1  C   UNL d   1     -48.749  12.571  22.849  0.00  0.00     0.104 A 
ATOM      2  C   UNL d   1     -49.129  11.891  22.567  0.00  0.00     0.012 A 
ATOM      3  C   UNL d   1     -49.201  13.228  23.107  0.00  0.00     0.013 A 
ATOM      4  C   UNL d   1     -50.014  13.196  23.079  0.00  0.00     0.001 A 
ATOM      5  C   UNL d   1     -49.941  11.859  22.538  0.00  0.00     0.001 A 
ATOM      6  C   UNL d   1     -50.397  12.505  22.792  0.00  0.00     0.000 A 
ATOM      7  C   UNL d   1     -48.677  11.248  22.314  0.00  0.00     0.001 C 
ENDROOT
BRANCH   1   8
ATOM      8  S   UNL d   1     -47.914  12.604  22.878  0.00  0.00     0.272 S 
ATOM      9  O   UNL d   1     -47.884  12.574  22.050  0.00  0.00    -0.200 OA
ATOM     10  O   UNL d   1     -47.944  12.634  23.698  0.00  0.00    -0.200 OA
BRANCH   8  11
ATOM     11  N   UNL d   1     -47.100  12.637  22.906  0.00  0.00    -0.223 N 
BRANCH  11  12
ATOM     12  C   UNL d   1     -46.674  12.085  23.376  0.00  0.00     0.137 C 
BRANCH  12  13
ATOM     13  C   UNL d   1     -45.899  11.912  23.197  0.00  0.00     0.254 C 
ATOM     14  O   UNL d   1     -45.453  11.435  23.697  0.00  0.00    -0.281 OA
ENDBRANCH  12  13
ENDBRANCH  11  12
BRANCH  11  15
ATOM     15  C   UNL d   1     -46.688  13.212  22.474  0.00  0.00     0.137 C 
BRANCH  15  16
ATOM     16  C   UNL d   1     -46.239  13.777  22.880  0.00  0.00     0.254 C 
ATOM     17  O   UNL d   1     -45.919  14.410  22.459  0.00  0.00    -0.281 OA
ENDBRANCH  15  16
ENDBRANCH  11  15
ENDBRANCH   8  11
ENDBRANCH   1   8
BRANCH   4  18
ATOM     18  C   UNL d   1     -50.469  13.835  23.330  0.00  0.00     0.006 C 
BRANCH  18  19
ATOM     19  C   UNL d   1     -50.825  14.325  22.780  0.00  0.00     0.070 C 
BRANCH  19  20
ATOM     20  C   UNL d   1     -50.896  15.133  22.907  0.00  0.00     0.211 C 
ATOM     21  O   UNL d   1     -50.791  15.435  23.681  0.00  0.00    -0.644 OA
ATOM     22  O   UNL d   1     -51.064  15.638  22.299  0.00  0.00    -0.644 OA
ENDBRANCH  19  20
ENDBRANCH  18  19
ENDBRANCH   4  18
TORSDOF 9
ENDMDL
MODEL 4
REMARK VINA RESULT:      -5.0      8.250      9.078
REMARK  9 active torsions:
REMARK  status: ('A' for Active; 'I' for Inactive)
REMARK    1  A    between atoms: C_2  and  S_1 
REMARK    2  A    between atoms: N_3  and  S_1 
REMARK    3  A    between atoms: C_14  and  N_3 
REMARK    4  A    between atoms: C_15  and  N_3 
REMARK    5  A    between atoms: C_6  and  C_7 
REMARK    6  A    between atoms: C_7  and  C_8 
REMARK    7  A    between atoms: C_8  and  C_12 
REMARK    8  A    between atoms: C_21  and  C_14 
REMARK    9  A    between atoms: C_20  and  C_15 
ROOT
ATOM      1  C   UNL d   1     -39.985  14.978  19.723  0.00  0.00     0.104 A 
ATOM      2  C   UNL d   1     -40.512  15.464  20.138  0.00  0.00     0.012 A 
ATOM      3  C   UNL d   1     -39.427  14.511  20.139  0.00  0.00     0.013 A 
ATOM      4  C   UNL d   1     -39.406  14.537  20.953  0.00  0.00     0.001 A 
ATOM      5  C   UNL d   1     -40.490  15.490  20.951  0.00  0.00     0.001 A 
ATOM      6  C   UNL d   1     -39.941  15.030  21.371  0.00  0.00     0.000 A 
ATOM      7  C   UNL d   1     -41.058  15.921  19.721  0.00  0.00     0.001 C 
ENDROOT
BRANCH   1   8
ATOM      8  S   UNL d   1     -40.007  14.951  18.888  0.00  0.00     0.272 S 
ATOM      9  O   UNL d   1     -40.463  14.260  18.922  0.00  0.00    -0.200 OA
ATOM     10  O   UNL d   1     -39.555  15.636  18.854  0.00  0.00    -0.200 OA
BRANCH   8  11
ATOM     11  N   UNL d   1     -40.029  14.925  18.073  0.00  0.00    -0.223 N 
BRANCH  11  12
ATOM     12  C   UNL d   1     -39.313  14.951  17.633  0.00  0.00     0.137 C 
BRANCH  12  13
ATOM     13  C   UNL d   1     -39.094  14.314  17.176  0.00  0.00     0.254 C 
ATOM     14  O   UNL d   1     -38.352  14.291  16.823  0.00  0.00    -0.281 OA
ENDBRANCH  12  13
ENDBRANCH  11  12
BRANCH  11  15
ATOM     15  C   UNL d   1     -40.754  14.874  17.674  0.00  0.00     0.137 C 
BRANCH  15  16
ATOM     16  C   UNL d   1     -40.858  15.297  16.970  0.00  0.00     0.254 C 
ATOM     17  O   UNL d   1     -41.593  15.278  16.598  0.00  0.00    -0.281 OA
ENDBRANCH  15  16
ENDBRANCH  11  15
ENDBRANCH   8  11
ENDBRANCH   1   8
BRANCH   4  18
ATOM     18  C   UNL d   1     -38.862  14.082  21.373  0.00  0.00     0.006 C 
BRANCH  18  19
ATOM     19  C   UNL d   1     -39.105  13.654  22.026  0.00  0.00     0.070 C 
BRANCH  19  20
ATOM     20  C   UNL d   1     -38.568  13.245  22.495  0.00  0.00     0.211 C 
ATOM     21  O   UNL d   1     -38.177  12.575  22.180  0.00  0.00    -0.644 OA
ATOM     22  O   UNL d   1     -38.413  13.480  23.253  0.00  0.00    -0.644 OA
ENDBRANCH  19  20
ENDBRANCH  18  19
ENDBRANCH   4  18
TORSDOF 9
ENDMDL
MODEL 5
REMARK VINA RESULT:      -5.0      1.641      4.423
REMARK  9 active torsions:
REMARK  status: ('A' for Active; 'I' for Inactive)
REMARK    1  A    between atoms: C_2  and  S_1 
REMARK    2  A    between atoms: N_3  and  S_1 
REMARK    3  A    between atoms: C_14  and  N_3 
REMARK    4  A    between atoms: C_15  and  N_3 
REMARK    5  A    between atoms: C_6  and  C_7 
REMARK    6  A    between atoms: C_7  and  C_8 
REMARK    7  A    between atoms: C_8  and  C_12 
REMARK    8  A    between atoms: C_21  and  C_14 
REMARK    9  A    between atoms: C_20  and  C_15 
ROOT
ATOM      1  C   UNL d   1     -47.215  12.316  23.112  0.00  0.00     0.104 A 
ATOM      2  C   UNL d   1     -47.023  11.588  23.456  0.00  0.00     0.012 A 
ATOM      3  C   UNL d   1     -48.018  12.529  22.999  0.00  0.00     0.013 A 
ATOM      4  C   UNL d   1     -48.608  12.016  23.228  0.00  0.00     0.001 A 
ATOM      5  C   UNL d   1     -47.613  11.076  23.685  0.00  0.00     0.001 A 
ATOM      6  C   UNL d   1     -48.410  11.278  23.577  0.00  0.00     0.000 A 
ATOM      7  C   UNL d   1     -46.230  11.385  23.564  0.00  0.00     0.001 C 
ENDROOT
BRANCH   1   8
ATOM      8  S   UNL d   1     -46.610  12.842  22.876  0.00  0.00     0.272 S 
ATOM      9  O   UNL d   1     -46.724  12.620  22.086  0.00  0.00    -0.200 OA
ATOM     10  O   UNL d   1     -46.497  13.063  23.659  0.00  0.00    -0.200 OA
BRANCH   8  11
ATOM     11  N   UNL d   1     -46.019  13.355  22.647  0.00  0.00    -0.223 N 
BRANCH  11  12
ATOM     12  C   UNL d   1     -46.030  14.153  22.911  0.00  0.00     0.137 C 
BRANCH  12  13
ATOM     13  C   UNL d   1     -46.360  14.732  22.444  0.00  0.00     0.254 C 
ATOM     14  O   UNL d   1     -46.480  15.489  22.742  0.00  0.00    -0.281 OA
ENDBRANCH  12  13
ENDBRANCH  11  12
BRANCH  11  15
ATOM     15  C   UNL d   1     -45.406  13.095  22.152  0.00  0.00     0.137 C 
BRANCH  15  16
ATOM     16  C   UNL d   1     -44.788  13.614  21.970  0.00  0.00     0.254 C 
ATOM     17  O   UNL d   1     -44.022  13.316  21.905  0.00  0.00    -0.281 OA
ENDBRANCH  15  16
ENDBRANCH  11  15
ENDBRANCH   8  11
ENDBRANCH   1   8
BRANCH   4  18
ATOM     18  C   UNL d   1     -49.401  12.214  23.122  0.00  0.00     0.006 C 
BRANCH  18  19
ATOM     19  C   UNL d   1     -49.690  12.358  22.370  0.00  0.00     0.070 C 
BRANCH  19  20
ATOM     20  C   UNL d   1     -50.465  12.599  22.248  0.00  0.00     0.211 C 
ATOM     21  O   UNL d   1     -51.064  12.326  22.765  0.00  0.00    -0.644 OA
ATOM     22  O   UNL d   1     -50.657  13.093  21.637  0.00  0.00    -0.644 OA
ENDBRANCH  19  20
ENDBRANCH  18  19
ENDBRANCH   4  18
TORSDOF 9
ENDMDL
MODEL 6
REMARK VINA RESULT:      -5.0      1.528      3.935
REMARK  9 active torsions:
REMARK  status: ('A' for Active; 'I' for Inactive)
REMARK    1  A    between atoms: C_2  and  S_1 
REMARK    2  A    between atoms: N_3  and  S_1 
REMARK    3  A    between atoms: C_14  and  N_3 
REMARK    4  A    between atoms: C_15  and  N_3 
REMARK    5  A    between atoms: C_6  and  C_7 
REMARK    6  A    between atoms: C_7  and  C_8 
REMARK    7  A    between atoms: C_8  and  C_12 
REMARK    8  A    between atoms: C_21  and  C_14 
REMARK    9  A    between atoms: C_20  and  C_15 
ROOT
ATOM      1  C   UNL d   1     -47.375  13.751  22.891  0.00  0.00     0.104 A 
ATOM      2  C   UNL d   1     -46.863  14.351  22.641  0.00  0.00     0.012 A 
ATOM      3  C   UNL d   1     -48.198  13.898  22.953  0.00  0.00     0.013 A 
ATOM      4  C   UNL d   1     -48.492  14.634  22.765  0.00  0.00     0.001 A 
ATOM      5  C   UNL d   1     -47.157  15.087  22.454  0.00  0.00     0.001 A 
ATOM      6  C   UNL d   1     -47.970  15.242  22.512  0.00  0.00     0.000 A 
ATOM      7  C   UNL d   1     -46.054  14.199  22.582  0.00  0.00     0.001 C 
ENDROOT
BRANCH   1   8
ATOM      8  S   UNL d   1     -47.074  12.995  23.083  0.00  0.00     0.272 S 
ATOM      9  O   UNL d   1     -46.629  13.328  23.698  0.00  0.00    -0.200 OA
ATOM     10  O   UNL d   1     -47.514  12.664  22.474  0.00  0.00    -0.200 OA
BRANCH   8  11
ATOM     11  N   UNL d   1     -46.780  12.258  23.270  0.00  0.00    -0.223 N 
BRANCH  11  12
ATOM     12  C   UNL d   1     -47.256  11.712  23.696  0.00  0.00     0.137 C 
BRANCH  12  13
ATOM     13  C   UNL d   1     -47.617  11.096  23.305  0.00  0.00     0.254 C 
ATOM     14  O   UNL d   1     -48.346  10.813  23.558  0.00  0.00    -0.281 OA
ENDBRANCH  12  13
ENDBRANCH  11  12
BRANCH  11  15
ATOM     15  C   UNL d   1     -46.011  12.042  23.043  0.00  0.00     0.137 C 
BRANCH  15  16
ATOM     16  C   UNL d   1     -45.576  11.533  23.528  0.00  0.00     0.254 C 
ATOM     17  O   UNL d   1     -44.928  11.134  23.208  0.00  0.00    -0.281 OA
ENDBRANCH  15  16
ENDBRANCH  11  15
ENDBRANCH   8  11
ENDBRANCH   1   8
BRANCH   4  18
ATOM     18  C   UNL d   1     -49.299  14.791  22.822  0.00  0.00     0.006 C 
BRANCH  18  19
ATOM     19  C   UNL d   1     -49.773  14.740  22.158  0.00  0.00     0.070 C 
BRANCH  19  20
ATOM     20  C   UNL d   1     -50.592  14.769  22.213  0.00  0.00     0.211 C 
ATOM     21  O   UNL d   1     -50.956  15.446  22.544  0.00  0.00    -0.644 OA
ATOM     22  O   UNL d   1     -51.049  14.155  21.953  0.00  0.00    -0.644 OA
ENDBRANCH  19  20
ENDBRANCH  18  19
ENDBRANCH   4  18
TORSDOF 9
ENDMDL
MODEL 7
REMARK VINA RESULT:      -4.7      5.800      8.587
REMARK  9 active torsions:
REMARK  status: ('A' for Active; 'I' for Inactive)
REMARK    1  A    between atoms: C_2  and  S_1 
REMARK    2  A    between atoms: N_3  and  S_1 
REMARK    3  A    between atoms: C_14  and  N_3 
REMARK    4  A    between atoms: C_15  and  N_3 
REMARK    5  A    between atoms: C_6  and  C_7 
REMARK    6  A    between atoms: C_7  and  C_8 
REMARK    7  A    between atoms: C_8  and  C_12 
REMARK    8  A    between atoms: C_21  and  C_14 
REMARK    9  A    between atoms: C_20  and  C_15 
ROOT
ATOM      1  C   UNL d   1     -40.442  14.450  19.576  0.00  0.00     0.104 A 
ATOM      2  C   UNL d   1     -39.794  14.517  20.087  0.00  0.00     0.012 A 
ATOM      3  C   UNL d   1     -41.198  14.251  19.879  0.00  0.00     0.013 A 
ATOM      4  C   UNL d   1     -41.292  14.123  20.678  0.00  0.00     0.001 A 
ATOM      5  C   UNL d   1     -39.888  14.389  20.885  0.00  0.00     0.001 A 
ATOM      6  C   UNL d   1     -40.632  14.191  21.194  0.00  0.00     0.000 A 
ATOM      7  C   UNL d   1     -39.053  14.714  19.781  0.00  0.00     0.001 C 
ENDROOT
BRANCH   1   8
ATOM      8  S   UNL d   1     -40.346  14.582  18.756  0.00  0.00     0.272 S 
ATOM      9  O   UNL d   1     -40.288  15.397  18.893  0.00  0.00    -0.200 OA
ATOM     10  O   UNL d   1     -40.403  13.774  18.620  0.00  0.00    -0.200 OA
BRANCH   8  11
ATOM     11  N   UNL d   1     -40.252  14.710  17.957  0.00  0.00    -0.223 N 
BRANCH  11  12
ATOM     12  C   UNL d   1     -40.663  15.339  17.581  0.00  0.00     0.137 C 
BRANCH  12  13
ATOM     13  C   UNL d   1     -41.173  15.182  16.966  0.00  0.00     0.254 C 
ATOM     14  O   UNL d   1     -41.677  15.767  16.683  0.00  0.00    -0.281 OA
ENDBRANCH  12  13
ENDBRANCH  11  12
BRANCH  11  15
ATOM     15  C   UNL d   1     -39.752  14.222  17.509  0.00  0.00     0.137 C 
BRANCH  15  16
ATOM     16  C   UNL d   1     -39.293  14.558  16.908  0.00  0.00     0.254 C 
ATOM     17  O   UNL d   1     -38.741  14.087  16.517  0.00  0.00    -0.281 OA
ENDBRANCH  15  16
ENDBRANCH  11  15
ENDBRANCH   8  11
ENDBRANCH   1   8
BRANCH   4  18
ATOM     18  C   UNL d   1     -42.029  13.926  20.988  0.00  0.00     0.006 C 
BRANCH  18  19
ATOM     19  C   UNL d   1     -42.208  13.145  21.155  0.00  0.00     0.070 C 
BRANCH  19  20
ATOM     20  C   UNL d   1     -42.933  12.931  21.476  0.00  0.00     0.211 C 
ATOM     21  O   UNL d   1     -43.037  12.153  21.767  0.00  0.00    -0.644 OA
ATOM     22  O   UNL d   1     -43.544  13.459  21.515  0.00  0.00    -0.644 OA
ENDBRANCH  19  20
ENDBRANCH  18  19
ENDBRANCH   4  18
TORSDOF 9
ENDMDL
MODEL 8
REMARK VINA RESULT:      -4.3      9.002     10.003
REMARK  9 active torsions:
REMARK  status: ('A' for Active; 'I' for Inactive)
REMARK    1  A    between atoms: C_2  and  S_1 
REMARK    2  A    between atoms: N_3  and  S_1 
REMARK    3  A    between atoms: C_14  and  N_3 
REMARK    4  A    between atoms: C_15  and  N_3 
REMARK    5  A    between atoms: C_6  and  C_7 
REMARK    6  A    between atoms: C_7  and  C_8 
REMARK    7  A    between atoms: C_8  and  C_12 
REMARK    8  A    between atoms: C_21  and  C_14 
REMARK    9  A    between atoms: C_20  and  C_15 
ROOT
ATOM      1  C   UNL d   1     -38.814  14.108  18.804  0.00  0.00     0.104 A 
ATOM      2  C   UNL d   1     -38.233  13.524  18.721  0.00  0.00     0.012 A 
ATOM      3  C   UNL d   1     -39.104  14.307  19.565  0.00  0.00     0.013 A 
ATOM      4  C   UNL d   1     -38.812  13.924  20.221  0.00  0.00     0.001 A 
ATOM      5  C   UNL d   1     -37.941  13.141  19.377  0.00  0.00     0.001 A 
ATOM      6  C   UNL d   1     -38.223  13.331  20.134  0.00  0.00     0.000 A 
ATOM      7  C   UNL d   1     -37.952  13.333  17.968  0.00  0.00     0.001 C 
ENDROOT
BRANCH   1   8
ATOM      8  S   UNL d   1     -39.114  14.501  18.130  0.00  0.00     0.272 S 
ATOM      9  O   UNL d   1     -38.744  15.202  18.374  0.00  0.00    -0.200 OA
ATOM     10  O   UNL d   1     -39.481  13.807  17.888  0.00  0.00    -0.200 OA
BRANCH   8  11
ATOM     11  N   UNL d   1     -39.406  14.885  17.473  0.00  0.00    -0.223 N 
BRANCH  11  12
ATOM     12  C   UNL d   1     -40.177  14.704  17.189  0.00  0.00     0.137 C 
BRANCH  12  13
ATOM     13  C   UNL d   1     -40.752  15.280  17.179  0.00  0.00     0.254 C 
ATOM     14  O   UNL d   1     -41.509  15.107  16.908  0.00  0.00    -0.281 OA
ENDBRANCH  12  13
ENDBRANCH  11  12
BRANCH  11  15
ATOM     15  C   UNL d   1     -38.948  15.454  17.080  0.00  0.00     0.137 C 
BRANCH  15  16
ATOM     16  C   UNL d   1     -38.942  15.466  16.253  0.00  0.00     0.254 C 
ATOM     17  O   UNL d   1     -38.370  15.917  15.865  0.00  0.00    -0.281 OA
ENDBRANCH  15  16
ENDBRANCH  11  15
ENDBRANCH   8  11
ENDBRANCH   1   8
BRANCH   4  18
ATOM     18  C   UNL d   1     -39.089  14.111  20.975  0.00  0.00     0.006 C 
BRANCH  18  19
ATOM     19  C   UNL d   1     -38.675  13.865  21.636  0.00  0.00     0.070 C 
BRANCH  19  20
ATOM     20  C   UNL d   1     -38.939  14.035  22.395  0.00  0.00     0.211 C 
ATOM     21  O   UNL d   1     -39.166  13.406  22.899  0.00  0.00    -0.644 OA
ATOM     22  O   UNL d   1     -38.983  14.797  22.660  0.00  0.00    -0.644 OA
ENDBRANCH  19  20
ENDBRANCH  18  19
ENDBRANCH   4  18
TORSDOF 9
ENDMDL
MODEL 9
REMARK VINA RESULT:      -4.2      8.928     10.067
REMARK  9 active torsions:
REMARK  status: ('A' for Active; 'I' for Inactive)
REMARK    1  A    between atoms: C_2  and  S_1 
REMARK    2  A    between atoms: N_3  and  S_1 
REMARK    3  A    between atoms: C_14  and  N_3 
REMARK    4  A    between atoms: C_15  and  N_3 
REMARK    5  A    between atoms: C_6  and  C_7 
REMARK    6  A    between atoms: C_7  and  C_8 
REMARK    7  A    between atoms: C_8  and  C_12 
REMARK    8  A    between atoms: C_21  and  C_14 
REMARK    9  A    between atoms: C_20  and  C_15 
ROOT
ATOM      1  C   UNL d   1     -39.563  14.789  18.285  0.00  0.00     0.104 A 
ATOM      2  C   UNL d   1     -40.278  15.095  17.999  0.00  0.00     0.012 A 
ATOM      3  C   UNL d   1     -39.258  15.051  19.021  0.00  0.00     0.013 A 
ATOM      4  C   UNL d   1     -39.667  15.608  19.452  0.00  0.00     0.001 A 
ATOM      5  C   UNL d   1     -40.687  15.651  18.431  0.00  0.00     0.001 A 
ATOM      6  C   UNL d   1     -40.392  15.916  19.160  0.00  0.00     0.000 A 
ATOM      7  C   UNL d   1     -40.572  14.833  17.274  0.00  0.00     0.001 C 
ENDROOT
BRANCH   1   8
ATOM      8  S   UNL d   1     -39.144  14.218  17.842  0.00  0.00     0.272 S 
ATOM      9  O   UNL d   1     -39.768  13.682  17.942  0.00  0.00    -0.200 OA
ATOM     10  O   UNL d   1     -38.526  14.750  17.742  0.00  0.00    -0.200 OA
BRANCH   8  11
ATOM     11  N   UNL d   1     -38.734  13.662  17.410  0.00  0.00    -0.223 N 
BRANCH  11  12
ATOM     12  C   UNL d   1     -38.278  13.076  17.804  0.00  0.00     0.137 C 
BRANCH  12  13
ATOM     13  C   UNL d   1     -38.448  12.288  17.697  0.00  0.00     0.254 C 
ATOM     14  O   UNL d   1     -37.940  11.709  17.985  0.00  0.00    -0.281 OA
ENDBRANCH  12  13
ENDBRANCH  11  12
BRANCH  11  15
ATOM     15  C   UNL d   1     -38.765  13.668  16.580  0.00  0.00     0.137 C 
BRANCH  15  16
ATOM     16  C   UNL d   1     -38.061  13.597  16.151  0.00  0.00     0.254 C 
ATOM     17  O   UNL d   1     -38.090  13.644  15.328  0.00  0.00    -0.281 OA
ENDBRANCH  15  16
ENDBRANCH  11  15
ENDBRANCH   8  11
ENDBRANCH   1   8
BRANCH   4  18
ATOM     18  C   UNL d   1     -39.378  15.873  20.177  0.00  0.00     0.006 C 
BRANCH  18  19
ATOM     19  C   UNL d   1     -39.675  15.565  20.874  0.00  0.00     0.070 C 
BRANCH  19  20
ATOM     20  C   UNL d   1     -39.348  15.759  21.602  0.00  0.00     0.211 C 
ATOM     21  O   UNL d   1     -39.855  15.922  22.247  0.00  0.00    -0.644 OA
ATOM     22  O   UNL d   1     -38.547  15.796  21.703  0.00  0.00    -0.644 OA
ENDBRANCH  19  20
ENDBRANCH  18  19
ENDBRANCH   4  18
TORSDOF 9
ENDMDL
