MODEL 1
REMARK VINA RESULT:      83.7      0.000      0.000
REMARK  4 active torsions:
REMARK  status: ('A' for Active; 'I' for Inactive)
REMARK    1  A    between atoms: C_8  and  S_1 
REMARK    2  A    between atoms: C_2  and  C_10 
REMARK    3  A    between atoms: C_6  and  C_14 
REMARK       I    between atoms: N_9  and  C_6 
REMARK    4  A    between atoms: C_23  and  N_9 
ROOT
ATOM      1  C   UNL d   1     -55.424-102.159 -39.086  0.00  0.00     0.024 A 
ATOM      2  C   UNL d   1     -55.526-102.766 -39.621  0.00  0.00     0.004 A 
ATOM      3  C   UNL d   1     -55.185-101.414 -39.339  0.00  0.00     0.004 A 
ATOM      4  C   UNL d   1     -55.150-101.886 -40.685  0.00  0.00     0.085 A 
ATOM      5  C   UNL d   1     -55.047-101.272 -40.140  0.00  0.00     0.019 A 
ATOM      6  C   UNL d   1     -55.390-102.633 -40.424  0.00  0.00     0.019 A 
ENDROOT
BRANCH   4   7
ATOM      7  N   UNL d   1     -55.012-101.752 -41.491  0.00  0.00    -0.208 NA
ATOM      8  C   UNL d   1     -55.650-101.711 -42.010  0.00  0.00     0.279 C 
ATOM      9  O   UNL d   1     -56.421-101.801 -41.739  0.00  0.00    -0.265 OA
BRANCH   8  10
ATOM     10  C   UNL d   1     -55.514-101.579 -42.809  0.00  0.00     0.058 A 
ATOM     11  C   UNL d   1     -55.333-100.819 -43.078  0.00  0.00     0.005 A 
ATOM     12  C   UNL d   1     -55.197-100.687 -43.873  0.00  0.00     0.013 A 
ATOM     13  C   UNL d   1     -55.241-101.321 -44.419  0.00  0.00     0.107 A 
ATOM     14  C   UNL d   1     -55.422-102.080 -44.154  0.00  0.00     0.013 A 
ATOM     15  C   UNL d   1     -55.559-102.214 -43.348  0.00  0.00     0.005 A 
BRANCH  13  16
ATOM     16  S   UNL d   1     -55.104-101.187 -45.226  0.00  0.00     0.302 S 
ATOM     17  O   UNL d   1     -55.484-100.463 -45.170  0.00  0.00    -0.197 OA
ATOM     18  O   UNL d   1     -54.723-101.918 -45.270  0.00  0.00    -0.197 OA
ATOM     19  N   UNL d   1     -54.964-101.063 -46.025  0.00  0.00    -0.043 N 
ENDBRANCH  13  16
ENDBRANCH   8  10
ENDBRANCH   4   7
BRANCH   1  20
ATOM     20  C   UNL d   1     -55.562-102.297 -38.281  0.00  0.00     0.112 A 
ATOM     21  S   UNL d   1     -54.991-102.555 -37.727  0.00  0.00    -0.047 SA
ATOM     22  C   UNL d   1     -55.367-102.621 -36.988  0.00  0.00     0.130 A 
ATOM     23  N   UNL d   1     -55.089-102.848 -36.245  0.00  0.00    -0.236 NA
ATOM     24  C   UNL d   1     -56.166-102.406 -37.083  0.00  0.00     0.106 A 
ATOM     25  C   UNL d   1     -55.602-102.861 -35.596  0.00  0.00     0.100 A 
ATOM     26  C   UNL d   1     -56.404-102.645 -35.695  0.00  0.00     0.022 A 
ATOM     27  C   UNL d   1     -56.678-102.419 -36.438  0.00  0.00     0.023 A 
ATOM     28  N   UNL d   1     -56.277-102.206 -37.893  0.00  0.00    -0.237 NA
ENDBRANCH   1  20
TORSDOF 4
ENDMDL
