MODEL 1
REMARK VINA RESULT:       1.6      0.000      0.000
REMARK  5 active torsions:
REMARK  status: ('A' for Active; 'I' for Inactive)
REMARK    1  A    between atoms: C_4  and  N_1 
REMARK    2  A    between atoms: C_8  and  C_2 
REMARK    3  A    between atoms: C_13  and  C_6 
REMARK    4  A    between atoms: C_7  and  C_8 
REMARK    5  A    between atoms: O_24  and  C_22 
ROOT
ATOM      1  N   UNL d   1      30.325  17.476 -24.473  0.00  0.00    -0.255 N 
ATOM      2  C   UNL d   1      31.401  18.275 -24.429  0.00  0.00     0.101 A 
ATOM      3  C   UNL d   1      30.069  18.258 -24.549  0.00  0.00     0.305 A 
ATOM      4  C   UNL d   1      30.727  18.747 -24.522  0.00  0.00     0.256 A 
ATOM      5  C   UNL d   1      31.152  17.488 -24.400  0.00  0.00     0.075 A 
ATOM      6  O   UNL d   1      29.285  18.503 -24.636  0.00  0.00    -0.263 OA
ATOM      7  O   UNL d   1      30.720  19.575 -24.577  0.00  0.00    -0.281 OA
ENDROOT
BRANCH   2   8
ATOM      8  C   UNL d   1      32.181  18.542 -24.377  0.00  0.00     0.223 C 
ATOM      9  O   UNL d   1      32.729  18.311 -24.946  0.00  0.00    -0.284 OA
BRANCH   8  10
ATOM     10  C   UNL d   1      32.407  19.036 -23.759  0.00  0.00     0.139 A 
ATOM     11  O   UNL d   1      32.610  18.795 -22.998  0.00  0.00    -0.304 OA
ATOM     12  C   UNL d   1      32.800  19.473 -22.558  0.00  0.00     0.100 A 
ATOM     13  C   UNL d   1      33.039  19.574 -21.778  0.00  0.00     0.025 A 
ATOM     14  C   UNL d   1      32.712  20.122 -23.057  0.00  0.00     0.025 A 
ATOM     15  C   UNL d   1      33.192  20.327 -21.490  0.00  0.00     0.002 A 
ATOM     16  C   UNL d   1      33.105  20.988 -21.986  0.00  0.00     0.000 A 
ATOM     17  C   UNL d   1      32.866  20.884 -22.764  0.00  0.00     0.002 A 
ATOM     18  C   UNL d   1      32.471  19.857 -23.793  0.00  0.00     0.030 A 
ENDBRANCH   8  10
ENDBRANCH   2   8
BRANCH   5  19
ATOM     19  C   UNL d   1      31.638  16.825 -24.312  0.00  0.00     0.018 A 
ATOM     20  C   UNL d   1      31.836  16.559 -23.564  0.00  0.00     0.026 A 
ATOM     21  C   UNL d   1      32.320  15.899 -23.474  0.00  0.00     0.094 A 
ATOM     22  C   UNL d   1      32.606  15.504 -24.147  0.00  0.00     0.024 A 
ATOM     23  C   UNL d   1      32.400  15.782 -24.902  0.00  0.00     0.002 A 
ATOM     24  C   UNL d   1      31.919  16.438 -24.984  0.00  0.00     0.002 A 
BRANCH  21  25
ATOM     25  O   UNL d   1      32.520  15.629 -22.719  0.00  0.00    -0.328 OA
ATOM     26  C   UNL d   1      33.225  15.869 -22.367  0.00  0.00     0.181 C 
ENDBRANCH  21  25
ENDBRANCH   5  19
BRANCH   1  27
ATOM     27  C   UNL d   1      29.842  16.801 -24.472  0.00  0.00     0.179 A 
ATOM     28  N   UNL d   1      29.805  16.233 -25.072  0.00  0.00    -0.108 NA
ATOM     29  O   UNL d   1      29.257  15.664 -24.840  0.00  0.00    -0.210 OA
ATOM     30  C   UNL d   1      28.957  15.874 -24.107  0.00  0.00     0.128 A 
ATOM     31  C   UNL d   1      29.316  16.580 -23.872  0.00  0.00     0.067 A 
ATOM     32  C   UNL d   1      28.389  15.454 -23.671  0.00  0.00     0.029 C 
ENDBRANCH   1  27
TORSDOF 5
ENDMDL
