MODEL 1
REMARK VINA RESULT:     -10.0      0.000      0.000
REMARK  2 active torsions:
REMARK  status: ('A' for Active; 'I' for Inactive)
REMARK    1  A    between atoms: C_10  and  N_1 
REMARK    2  A    between atoms: C_11  and  C_10 
ROOT
ATOM      1  N   UNL d   1     -47.301  13.737  22.893  0.00  0.00    -0.187 N 
ATOM      2  N   UNL d   1     -47.860  13.019  23.119  0.00  0.00    -0.162 NA
ATOM      3  C   UNL d   1     -48.736  13.089  23.189  0.00  0.00     0.102 A 
ATOM      4  C   UNL d   1     -48.942  13.868  23.024  0.00  0.00     0.024 A 
ATOM      5  C   UNL d   1     -47.671  14.464  22.757  0.00  0.00     0.281 A 
ATOM      6  C   UNL d   1     -48.490  14.529  22.822  0.00  0.00     0.059 A 
ATOM      7  C   UNL d   1     -49.768  13.935  23.090  0.00  0.00     0.002 A 
ATOM      8  C   UNL d   1     -49.430  12.678  23.356  0.00  0.00     0.019 A 
ATOM      9  C   UNL d   1     -50.066  13.195  23.296  0.00  0.00     0.002 A 
ATOM     10  O   UNL d   1     -47.206  15.132  22.552  0.00  0.00    -0.265 OA
ATOM     11  C   UNL d   1     -48.858  15.260  22.685  0.00  0.00     0.005 A 
ATOM     12  C   UNL d   1     -50.133  14.660  22.954  0.00  0.00     0.000 A 
ATOM     13  C   UNL d   1     -49.565  11.889  23.557  0.00  0.00     0.002 A 
ATOM     14  C   UNL d   1     -50.837  12.933  23.434  0.00  0.00     0.000 A 
ATOM     15  C   UNL d   1     -49.684  15.326  22.751  0.00  0.00     0.000 A 
ATOM     16  C   UNL d   1     -50.966  12.145  23.635  0.00  0.00     0.000 A 
ATOM     17  C   UNL d   1     -50.337  11.620  23.697  0.00  0.00     0.000 A 
ENDROOT
BRANCH   1  18
ATOM     18  C   UNL d   1     -46.486  13.864  22.782  0.00  0.00     0.174 C 
BRANCH  18  19
ATOM     19  C   UNL d   1     -45.940  13.254  22.924  0.00  0.00     0.231 C 
ATOM     20  O   UNL d   1     -45.319  13.140  22.408  0.00  0.00    -0.643 OA
ATOM     21  O   UNL d   1     -45.734  12.647  23.414  0.00  0.00    -0.643 OA
ENDBRANCH  18  19
ENDBRANCH   1  18
TORSDOF 2
ENDMDL
MODEL 2
REMARK VINA RESULT:      -9.9      0.989      2.479
REMARK  2 active torsions:
REMARK  status: ('A' for Active; 'I' for Inactive)
REMARK    1  A    between atoms: C_10  and  N_1 
REMARK    2  A    between atoms: C_11  and  C_10 
ROOT
ATOM      1  N   UNL d   1     -47.755  12.235  23.424  0.00  0.00    -0.187 N 
ATOM      2  N   UNL d   1     -47.931  13.137  23.239  0.00  0.00    -0.162 NA
ATOM      3  C   UNL d   1     -48.746  13.468  23.171  0.00  0.00     0.102 A 
ATOM      4  C   UNL d   1     -49.280  12.855  23.298  0.00  0.00     0.024 A 
ATOM      5  C   UNL d   1     -48.411  11.743  23.526  0.00  0.00     0.281 A 
ATOM      6  C   UNL d   1     -49.173  12.053  23.463  0.00  0.00     0.059 A 
ATOM      7  C   UNL d   1     -50.048  13.168  23.234  0.00  0.00     0.002 A 
ATOM      8  C   UNL d   1     -49.181  14.153  23.030  0.00  0.00     0.019 A 
ATOM      9  C   UNL d   1     -49.981  13.971  23.068  0.00  0.00     0.002 A 
ATOM     10  O   UNL d   1     -48.297  10.929  23.694  0.00  0.00    -0.265 OA
ATOM     11  C   UNL d   1     -49.830  11.557  23.565  0.00  0.00     0.005 A 
ATOM     12  C   UNL d   1     -50.700  12.675  23.336  0.00  0.00     0.000 A 
ATOM     13  C   UNL d   1     -48.948  14.928  22.870  0.00  0.00     0.002 A 
ATOM     14  C   UNL d   1     -50.553  14.556  22.948  0.00  0.00     0.000 A 
ATOM     15  C   UNL d   1     -50.598  11.870  23.501  0.00  0.00     0.000 A 
ATOM     16  C   UNL d   1     -50.314  15.328  22.789  0.00  0.00     0.000 A 
ATOM     17  C   UNL d   1     -49.515  15.519  22.749  0.00  0.00     0.000 A 
ENDROOT
BRANCH   1  18
ATOM     18  C   UNL d   1     -47.083  11.752  23.523  0.00  0.00     0.174 C 
BRANCH  18  19
ATOM     19  C   UNL d   1     -46.323  12.086  23.540  0.00  0.00     0.231 C 
ATOM     20  O   UNL d   1     -45.670  11.600  23.585  0.00  0.00    -0.643 OA
ATOM     21  O   UNL d   1     -45.897  12.772  23.529  0.00  0.00    -0.643 OA
ENDBRANCH  18  19
ENDBRANCH   1  18
TORSDOF 2
ENDMDL
MODEL 3
REMARK VINA RESULT:      -9.7      2.021      3.805
REMARK  2 active torsions:
REMARK  status: ('A' for Active; 'I' for Inactive)
REMARK    1  A    between atoms: C_10  and  N_1 
REMARK    2  A    between atoms: C_11  and  C_10 
ROOT
ATOM      1  N   UNL d   1     -49.875  13.990  23.107  0.00  0.00    -0.187 N 
ATOM      2  N   UNL d   1     -48.994  14.259  22.934  0.00  0.00    -0.162 NA
ATOM      3  C   UNL d   1     -48.299  13.719  23.005  0.00  0.00     0.102 A 
ATOM      4  C   UNL d   1     -48.576  12.980  23.239  0.00  0.00     0.024 A 
ATOM      5  C   UNL d   1     -49.984  13.203  23.336  0.00  0.00     0.281 A 
ATOM      6  C   UNL d   1     -49.334  12.699  23.401  0.00  0.00     0.059 A 
ATOM      7  C   UNL d   1     -47.921  12.472  23.305  0.00  0.00     0.002 A 
ATOM      8  C   UNL d   1     -47.481  13.667  22.927  0.00  0.00     0.019 A 
ATOM      9  C   UNL d   1     -47.246  12.901  23.112  0.00  0.00     0.002 A 
ATOM     10  O   UNL d   1     -50.758  12.923  23.499  0.00  0.00    -0.265 OA
ATOM     11  C   UNL d   1     -49.447  11.910  23.631  0.00  0.00     0.005 A 
ATOM     12  C   UNL d   1     -48.033  11.688  23.533  0.00  0.00     0.000 A 
ATOM     13  C   UNL d   1     -46.914  14.225  22.711  0.00  0.00     0.002 A 
ATOM     14  C   UNL d   1     -46.448  12.686  23.081  0.00  0.00     0.000 A 
ATOM     15  C   UNL d   1     -48.792  11.401  23.697  0.00  0.00     0.000 A 
ATOM     16  C   UNL d   1     -45.887  13.248  22.864  0.00  0.00     0.000 A 
ATOM     17  C   UNL d   1     -46.112  14.017  22.678  0.00  0.00     0.000 A 
ENDROOT
BRANCH   1  18
ATOM     18  C   UNL d   1     -50.632  14.337  23.096  0.00  0.00     0.174 C 
BRANCH  18  19
ATOM     19  C   UNL d   1     -50.720  15.152  22.960  0.00  0.00     0.231 C 
ATOM     20  O   UNL d   1     -51.031  15.412  22.252  0.00  0.00    -0.643 OA
ATOM     21  O   UNL d   1     -50.618  15.892  23.265  0.00  0.00    -0.643 OA
ENDBRANCH  18  19
ENDBRANCH   1  18
TORSDOF 2
ENDMDL
MODEL 4
REMARK VINA RESULT:      -9.5      1.793      3.190
REMARK  2 active torsions:
REMARK  status: ('A' for Active; 'I' for Inactive)
REMARK    1  A    between atoms: C_10  and  N_1 
REMARK    2  A    between atoms: C_11  and  C_10 
ROOT
ATOM      1  N   UNL d   1     -49.102  14.352  22.594  0.00  0.00    -0.187 N 
ATOM      2  N   UNL d   1     -48.991  13.464  22.875  0.00  0.00    -0.162 NA
ATOM      3  C   UNL d   1     -48.203  13.100  23.032  0.00  0.00     0.102 A 
ATOM      4  C   UNL d   1     -47.627  13.669  22.888  0.00  0.00     0.024 A 
ATOM      5  C   UNL d   1     -48.412  14.797  22.494  0.00  0.00     0.281 A 
ATOM      6  C   UNL d   1     -47.676  14.456  22.641  0.00  0.00     0.059 A 
ATOM      7  C   UNL d   1     -46.884  13.326  23.036  0.00  0.00     0.002 A 
ATOM      8  C   UNL d   1     -47.819  12.410  23.267  0.00  0.00     0.019 A 
ATOM      9  C   UNL d   1     -47.008  12.547  23.270  0.00  0.00     0.002 A 
ATOM     10  O   UNL d   1     -48.468  15.596  22.244  0.00  0.00    -0.265 OA
ATOM     11  C   UNL d   1     -46.986  14.905  22.540  0.00  0.00     0.005 A 
ATOM     12  C   UNL d   1     -46.200  13.772  22.935  0.00  0.00     0.000 A 
ATOM     13  C   UNL d   1     -48.107  11.668  23.481  0.00  0.00     0.002 A 
ATOM     14  C   UNL d   1     -46.481  11.948  23.485  0.00  0.00     0.000 A 
ATOM     15  C   UNL d   1     -46.243  14.562  22.688  0.00  0.00     0.000 A 
ATOM     16  C   UNL d   1     -46.775  11.208  23.698  0.00  0.00     0.000 A 
ATOM     17  C   UNL d   1     -47.584  11.062  23.698  0.00  0.00     0.000 A 
ENDROOT
BRANCH   1  18
ATOM     18  C   UNL d   1     -49.736  14.856  22.402  0.00  0.00     0.174 C 
BRANCH  18  19
ATOM     19  C   UNL d   1     -50.520  14.621  22.544  0.00  0.00     0.231 C 
ATOM     20  O   UNL d   1     -51.031  14.516  21.917  0.00  0.00    -0.643 OA
ATOM     21  O   UNL d   1     -51.064  14.426  23.108  0.00  0.00    -0.643 OA
ENDBRANCH  18  19
ENDBRANCH   1  18
TORSDOF 2
ENDMDL
MODEL 5
REMARK VINA RESULT:      -8.8      1.024      2.345
REMARK  2 active torsions:
REMARK  status: ('A' for Active; 'I' for Inactive)
REMARK    1  A    between atoms: C_10  and  N_1 
REMARK    2  A    between atoms: C_11  and  C_10 
ROOT
ATOM      1  N   UNL d   1     -46.599  12.852  22.917  0.00  0.00    -0.187 N 
ATOM      2  N   UNL d   1     -47.204  13.506  22.626  0.00  0.00    -0.162 NA
ATOM      3  C   UNL d   1     -48.080  13.420  22.689  0.00  0.00     0.102 A 
ATOM      4  C   UNL d   1     -48.238  12.690  23.036  0.00  0.00     0.024 A 
ATOM      5  C   UNL d   1     -46.924  12.168  23.247  0.00  0.00     0.281 A 
ATOM      6  C   UNL d   1     -47.743  12.088  23.306  0.00  0.00     0.059 A 
ATOM      7  C   UNL d   1     -49.063  12.609  23.096  0.00  0.00     0.002 A 
ATOM      8  C   UNL d   1     -48.802  13.785  22.536  0.00  0.00     0.019 A 
ATOM      9  C   UNL d   1     -49.408  13.289  22.785  0.00  0.00     0.002 A 
ATOM     10  O   UNL d   1     -46.416  11.559  23.520  0.00  0.00    -0.265 OA
ATOM     11  C   UNL d   1     -48.066  11.399  23.638  0.00  0.00     0.005 A 
ATOM     12  C   UNL d   1     -49.384  11.925  23.425  0.00  0.00     0.000 A 
ATOM     13  C   UNL d   1     -48.987  14.514  22.198  0.00  0.00     0.002 A 
ATOM     14  C   UNL d   1     -50.199  13.513  22.700  0.00  0.00     0.000 A 
ATOM     15  C   UNL d   1     -48.892  11.318  23.698  0.00  0.00     0.000 A 
ATOM     16  C   UNL d   1     -50.377  14.243  22.362  0.00  0.00     0.000 A 
ATOM     17  C   UNL d   1     -49.778  14.746  22.110  0.00  0.00     0.000 A 
ENDROOT
BRANCH   1  18
ATOM     18  C   UNL d   1     -45.772  12.754  22.942  0.00  0.00     0.174 C 
BRANCH  18  19
ATOM     19  C   UNL d   1     -45.276  13.234  22.479  0.00  0.00     0.231 C 
ATOM     20  O   UNL d   1     -44.687  12.892  22.031  0.00  0.00    -0.643 OA
ATOM     21  O   UNL d   1     -45.104  13.989  22.252  0.00  0.00    -0.643 OA
ENDBRANCH  18  19
ENDBRANCH   1  18
TORSDOF 2
ENDMDL
MODEL 6
REMARK VINA RESULT:      -8.8      0.899      1.201
REMARK  2 active torsions:
REMARK  status: ('A' for Active; 'I' for Inactive)
REMARK    1  A    between atoms: C_10  and  N_1 
REMARK    2  A    between atoms: C_11  and  C_10 
ROOT
ATOM      1  N   UNL d   1     -46.273  13.037  22.620  0.00  0.00    -0.187 N 
ATOM      2  N   UNL d   1     -46.929  12.424  22.889  0.00  0.00    -0.162 NA
ATOM      3  C   UNL d   1     -47.767  12.648  23.045  0.00  0.00     0.102 A 
ATOM      4  C   UNL d   1     -47.843  13.456  22.913  0.00  0.00     0.024 A 
ATOM      5  C   UNL d   1     -46.515  13.822  22.531  0.00  0.00     0.281 A 
ATOM      6  C   UNL d   1     -47.300  14.032  22.677  0.00  0.00     0.059 A 
ATOM      7  C   UNL d   1     -48.634  13.667  23.060  0.00  0.00     0.002 A 
ATOM      8  C   UNL d   1     -48.506  12.362  23.273  0.00  0.00     0.019 A 
ATOM      9  C   UNL d   1     -49.040  12.987  23.283  0.00  0.00     0.002 A 
ATOM     10  O   UNL d   1     -45.958  14.403  22.291  0.00  0.00    -0.265 OA
ATOM     11  C   UNL d   1     -47.539  14.821  22.587  0.00  0.00     0.005 A 
ATOM     12  C   UNL d   1     -48.871  14.451  22.971  0.00  0.00     0.000 A 
ATOM     13  C   UNL d   1     -48.763  11.605  23.474  0.00  0.00     0.002 A 
ATOM     14  C   UNL d   1     -49.830  12.864  23.492  0.00  0.00     0.000 A 
ATOM     15  C   UNL d   1     -48.330  15.032  22.735  0.00  0.00     0.000 A 
ATOM     16  C   UNL d   1     -50.080  12.104  23.692  0.00  0.00     0.000 A 
ATOM     17  C   UNL d   1     -49.554  11.474  23.685  0.00  0.00     0.000 A 
ENDROOT
BRANCH   1  18
ATOM     18  C   UNL d   1     -45.462  13.019  22.432  0.00  0.00     0.174 C 
BRANCH  18  19
ATOM     19  C   UNL d   1     -44.994  12.366  22.641  0.00  0.00     0.231 C 
ATOM     20  O   UNL d   1     -44.309  12.209  22.227  0.00  0.00    -0.643 OA
ATOM     21  O   UNL d   1     -44.915  11.738  23.143  0.00  0.00    -0.643 OA
ENDBRANCH  18  19
ENDBRANCH   1  18
TORSDOF 2
ENDMDL
MODEL 7
REMARK VINA RESULT:      -7.3      2.026      3.390
REMARK  2 active torsions:
REMARK  status: ('A' for Active; 'I' for Inactive)
REMARK    1  A    between atoms: C_10  and  N_1 
REMARK    2  A    between atoms: C_11  and  C_10 
ROOT
ATOM      1  N   UNL d   1     -44.956  12.454  22.558  0.00  0.00    -0.187 N 
ATOM      2  N   UNL d   1     -45.408  13.263  22.415  0.00  0.00    -0.162 NA
ATOM      3  C   UNL d   1     -46.251  13.394  22.637  0.00  0.00     0.102 A 
ATOM      4  C   UNL d   1     -46.535  12.699  22.974  0.00  0.00     0.024 A 
ATOM      5  C   UNL d   1     -45.390  11.846  22.912  0.00  0.00     0.281 A 
ATOM      6  C   UNL d   1     -46.179  11.969  23.120  0.00  0.00     0.059 A 
ATOM      7  C   UNL d   1     -47.331  12.822  23.184  0.00  0.00     0.002 A 
ATOM      8  C   UNL d   1     -46.866  13.941  22.639  0.00  0.00     0.019 A 
ATOM      9  C   UNL d   1     -47.531  13.592  22.975  0.00  0.00     0.002 A 
ATOM     10  O   UNL d   1     -45.022  11.106  23.057  0.00  0.00    -0.265 OA
ATOM     11  C   UNL d   1     -46.611  11.356  23.475  0.00  0.00     0.005 A 
ATOM     12  C   UNL d   1     -47.760  12.214  23.536  0.00  0.00     0.000 A 
ATOM     13  C   UNL d   1     -46.907  14.722  22.375  0.00  0.00     0.002 A 
ATOM     14  C   UNL d   1     -48.237  14.015  23.050  0.00  0.00     0.000 A 
ATOM     15  C   UNL d   1     -47.407  11.480  23.685  0.00  0.00     0.000 A 
ATOM     16  C   UNL d   1     -48.271  14.795  22.784  0.00  0.00     0.000 A 
ATOM     17  C   UNL d   1     -47.612  15.152  22.447  0.00  0.00     0.000 A 
ENDROOT
BRANCH   1  18
ATOM     18  C   UNL d   1     -44.193  12.149  22.423  0.00  0.00     0.174 C 
BRANCH  18  19
ATOM     19  C   UNL d   1     -43.725  12.443  21.802  0.00  0.00     0.231 C 
ATOM     20  O   UNL d   1     -42.942  12.625  21.938  0.00  0.00    -0.643 OA
ATOM     21  O   UNL d   1     -43.709  12.652  21.023  0.00  0.00    -0.643 OA
ENDBRANCH  18  19
ENDBRANCH   1  18
TORSDOF 2
ENDMDL
