MODEL 1
REMARK VINA RESULT:      -1.7      0.000      0.000
REMARK  8 active torsions:
REMARK  status: ('A' for Active; 'I' for Inactive)
REMARK    1  A    between atoms: C_2  and  S_1 
REMARK    2  A    between atoms: N_8  and  S_1 
REMARK    3  A    between atoms: C_13  and  N_8 
REMARK    4  A    between atoms: N_9  and  C_14 
REMARK    5  A    between atoms: O_15  and  C_10 
REMARK    6  A    between atoms: C_14  and  C_13 
REMARK    7  A    between atoms: C_22  and  O_15 
REMARK    8  A    between atoms: C_23  and  C_22 
ROOT
ATOM      1  C   UNL d   1      32.702  21.485 -21.337  0.00  0.00     0.105 A 
ATOM      2  C   UNL d   1      32.851  21.577 -22.143  0.00  0.00     0.014 A 
ATOM      3  C   UNL d   1      33.032  20.919 -22.609  0.00  0.00     0.024 A 
ATOM      4  C   UNL d   1      32.732  20.741 -20.997  0.00  0.00     0.015 A 
ATOM      5  C   UNL d   1      33.061  20.167 -22.260  0.00  0.00     0.100 A 
ATOM      6  C   UNL d   1      32.912  20.081 -21.459  0.00  0.00     0.025 A 
ATOM      7  C   UNL d   1      32.821  22.320 -22.482  0.00  0.00     0.001 A 
ATOM      8  C   UNL d   1      33.180  21.011 -23.410  0.00  0.00     0.002 A 
ATOM      9  C   UNL d   1      32.968  22.416 -23.283  0.00  0.00     0.000 A 
ATOM     10  C   UNL d   1      33.150  21.760 -23.754  0.00  0.00     0.000 A 
ENDROOT
BRANCH   1  11
ATOM     11  S   UNL d   1      32.521  22.146 -20.874  0.00  0.00     0.285 S 
ATOM     12  O   UNL d   1      33.241  22.483 -21.076  0.00  0.00    -0.198 OA
ATOM     13  O   UNL d   1      31.794  21.804 -20.670  0.00  0.00    -0.198 OA
BRANCH  11  14
ATOM     14  N   UNL d   1      32.342  22.804 -20.413  0.00  0.00    -0.155 NA
BRANCH  14  15
ATOM     15  C   UNL d   1      32.773  22.948 -19.722  0.00  0.00     0.131 C 
BRANCH  15  16
ATOM     16  C   UNL d   1      32.587  23.603 -19.254  0.00  0.00     0.102 C 
BRANCH  16  17
ATOM     17  N   UNL d   1      32.553  23.528 -18.438  0.00  0.00    -0.298 N 
ATOM     18  C   UNL d   1      33.241  23.393 -18.005  0.00  0.00     0.107 A 
ATOM     19  C   UNL d   1      33.209  23.317 -17.184  0.00  0.00     0.142 A 
ATOM     20  O   UNL d   1      32.484  23.377 -16.794  0.00  0.00    -0.300 OA
ATOM     21  C   UNL d   1      31.791  23.512 -17.227  0.00  0.00     0.142 A 
ATOM     22  C   UNL d   1      31.827  23.587 -18.048  0.00  0.00     0.107 A 
ENDBRANCH  16  17
ENDBRANCH  15  16
ENDBRANCH  14  15
ENDBRANCH  11  14
ENDBRANCH   1  11
BRANCH   5  23
ATOM     23  O   UNL d   1      33.241  19.509 -22.721  0.00  0.00    -0.305 OA
BRANCH  23  24
ATOM     24  C   UNL d   1      32.836  18.805 -22.610  0.00  0.00     0.123 C 
BRANCH  24  25
ATOM     25  C   UNL d   1      32.843  18.227 -23.196  0.00  0.00     0.027 C 
ATOM     26  C   UNL d   1      32.296  17.608 -23.173  0.00  0.00     0.002 C 
ENDBRANCH  24  25
ENDBRANCH  23  24
ENDBRANCH   5  23
TORSDOF 8
ENDMDL
MODEL 2
REMARK VINA RESULT:      -1.0      2.120      5.549
REMARK  8 active torsions:
REMARK  status: ('A' for Active; 'I' for Inactive)
REMARK    1  A    between atoms: C_2  and  S_1 
REMARK    2  A    between atoms: N_8  and  S_1 
REMARK    3  A    between atoms: C_13  and  N_8 
REMARK    4  A    between atoms: N_9  and  C_14 
REMARK    5  A    between atoms: O_15  and  C_10 
REMARK    6  A    between atoms: C_14  and  C_13 
REMARK    7  A    between atoms: C_22  and  O_15 
REMARK    8  A    between atoms: C_23  and  C_22 
ROOT
ATOM      1  C   UNL d   1      32.695  20.308 -22.280  0.00  0.00     0.105 A 
ATOM      2  C   UNL d   1      32.876  21.072 -22.532  0.00  0.00     0.014 A 
ATOM      3  C   UNL d   1      32.876  21.698 -21.994  0.00  0.00     0.024 A 
ATOM      4  C   UNL d   1      32.514  20.169 -21.494  0.00  0.00     0.015 A 
ATOM      5  C   UNL d   1      32.692  21.553 -21.198  0.00  0.00     0.100 A 
ATOM      6  C   UNL d   1      32.513  20.792 -20.952  0.00  0.00     0.025 A 
ATOM      7  C   UNL d   1      33.057  21.210 -23.318  0.00  0.00     0.001 A 
ATOM      8  C   UNL d   1      33.057  22.457 -22.246  0.00  0.00     0.002 A 
ATOM      9  C   UNL d   1      33.238  21.968 -23.574  0.00  0.00     0.000 A 
ATOM     10  C   UNL d   1      33.239  22.599 -23.037  0.00  0.00     0.000 A 
ENDROOT
BRANCH   1  11
ATOM     11  S   UNL d   1      32.696  19.684 -22.821  0.00  0.00     0.285 S 
ATOM     12  O   UNL d   1      32.158  20.089 -23.289  0.00  0.00    -0.198 OA
ATOM     13  O   UNL d   1      33.240  19.275 -22.349  0.00  0.00    -0.198 OA
BRANCH  11  14
ATOM     14  N   UNL d   1      32.697  19.062 -23.362  0.00  0.00    -0.155 NA
BRANCH  14  15
ATOM     15  C   UNL d   1      32.180  18.426 -23.252  0.00  0.00     0.131 C 
BRANCH  15  16
ATOM     16  C   UNL d   1      32.329  17.709 -23.635  0.00  0.00     0.102 C 
BRANCH  16  17
ATOM     17  N   UNL d   1      31.733  17.149 -23.704  0.00  0.00    -0.298 N 
ATOM     18  C   UNL d   1      31.175  17.211 -24.306  0.00  0.00     0.107 A 
ATOM     19  C   UNL d   1      30.574  16.648 -24.378  0.00  0.00     0.142 A 
ATOM     20  O   UNL d   1      30.534  16.021 -23.842  0.00  0.00    -0.300 OA
ATOM     21  C   UNL d   1      31.094  15.958 -23.236  0.00  0.00     0.142 A 
ATOM     22  C   UNL d   1      31.692  16.522 -23.168  0.00  0.00     0.107 A 
ENDBRANCH  16  17
ENDBRANCH  15  16
ENDBRANCH  14  15
ENDBRANCH  11  14
ENDBRANCH   1  11
BRANCH   5  23
ATOM     23  O   UNL d   1      32.691  22.175 -20.658  0.00  0.00    -0.305 OA
BRANCH  23  24
ATOM     24  C   UNL d   1      32.809  22.028 -19.861  0.00  0.00     0.123 C 
BRANCH  24  25
ATOM     25  C   UNL d   1      32.855  22.653 -19.327  0.00  0.00     0.027 C 
ATOM     26  C   UNL d   1      33.131  22.523 -18.559  0.00  0.00     0.002 C 
ENDBRANCH  24  25
ENDBRANCH  23  24
ENDBRANCH   5  23
TORSDOF 8
ENDMDL
MODEL 3
REMARK VINA RESULT:      -0.9      2.920      6.131
REMARK  8 active torsions:
REMARK  status: ('A' for Active; 'I' for Inactive)
REMARK    1  A    between atoms: C_2  and  S_1 
REMARK    2  A    between atoms: N_8  and  S_1 
REMARK    3  A    between atoms: C_13  and  N_8 
REMARK    4  A    between atoms: N_9  and  C_14 
REMARK    5  A    between atoms: O_15  and  C_10 
REMARK    6  A    between atoms: C_14  and  C_13 
REMARK    7  A    between atoms: C_22  and  O_15 
REMARK    8  A    between atoms: C_23  and  C_22 
ROOT
ATOM      1  C   UNL d   1      32.702  19.082 -23.311  0.00  0.00     0.105 A 
ATOM      2  C   UNL d   1      32.882  19.795 -23.684  0.00  0.00     0.014 A 
ATOM      3  C   UNL d   1      33.062  20.465 -23.237  0.00  0.00     0.024 A 
ATOM      4  C   UNL d   1      32.703  19.037 -22.493  0.00  0.00     0.015 A 
ATOM      5  C   UNL d   1      33.061  20.415 -22.409  0.00  0.00     0.100 A 
ATOM      6  C   UNL d   1      32.883  19.705 -22.041  0.00  0.00     0.025 A 
ATOM      7  C   UNL d   1      32.881  19.839 -24.501  0.00  0.00     0.001 A 
ATOM      8  C   UNL d   1      33.241  21.173 -23.609  0.00  0.00     0.002 A 
ATOM      9  C   UNL d   1      33.059  20.546 -24.877  0.00  0.00     0.000 A 
ATOM     10  C   UNL d   1      33.241  21.220 -24.432  0.00  0.00     0.000 A 
ENDROOT
BRANCH   1  11
ATOM     11  S   UNL d   1      32.523  18.414 -23.762  0.00  0.00     0.285 S 
ATOM     12  O   UNL d   1      33.239  18.078 -23.550  0.00  0.00    -0.198 OA
ATOM     13  O   UNL d   1      31.798  18.755 -23.977  0.00  0.00    -0.198 OA
BRANCH  11  14
ATOM     14  N   UNL d   1      32.343  17.748 -24.213  0.00  0.00    -0.155 NA
BRANCH  14  15
ATOM     15  C   UNL d   1      31.872  17.151 -23.888  0.00  0.00     0.131 C 
BRANCH  15  16
ATOM     16  C   UNL d   1      31.636  16.516 -24.361  0.00  0.00     0.102 C 
BRANCH  16  17
ATOM     17  N   UNL d   1      30.903  16.167 -24.243  0.00  0.00    -0.298 N 
ATOM     18  C   UNL d   1      30.720  15.823 -23.517  0.00  0.00     0.107 A 
ATOM     19  C   UNL d   1      29.982  15.472 -23.396  0.00  0.00     0.142 A 
ATOM     20  O   UNL d   1      29.426  15.465 -24.006  0.00  0.00    -0.300 OA
ATOM     21  C   UNL d   1      29.608  15.809 -24.736  0.00  0.00     0.142 A 
ATOM     22  C   UNL d   1      30.346  16.160 -24.853  0.00  0.00     0.107 A 
ENDBRANCH  16  17
ENDBRANCH  15  16
ENDBRANCH  14  15
ENDBRANCH  11  14
ENDBRANCH   1  11
BRANCH   5  23
ATOM     23  O   UNL d   1      33.241  21.081 -21.958  0.00  0.00    -0.305 OA
BRANCH  23  24
ATOM     24  C   UNL d   1      32.675  21.410 -21.466  0.00  0.00     0.123 C 
BRANCH  24  25
ATOM     25  C   UNL d   1      32.883  21.678 -20.716  0.00  0.00     0.027 C 
ATOM     26  C   UNL d   1      32.355  22.141 -20.280  0.00  0.00     0.002 C 
ENDBRANCH  24  25
ENDBRANCH  23  24
ENDBRANCH   5  23
TORSDOF 8
ENDMDL
MODEL 4
REMARK VINA RESULT:       1.0      1.161      1.721
REMARK  8 active torsions:
REMARK  status: ('A' for Active; 'I' for Inactive)
REMARK    1  A    between atoms: C_2  and  S_1 
REMARK    2  A    between atoms: N_8  and  S_1 
REMARK    3  A    between atoms: C_13  and  N_8 
REMARK    4  A    between atoms: N_9  and  C_14 
REMARK    5  A    between atoms: O_15  and  C_10 
REMARK    6  A    between atoms: C_14  and  C_13 
REMARK    7  A    between atoms: C_22  and  O_15 
REMARK    8  A    between atoms: C_23  and  C_22 
ROOT
ATOM      1  C   UNL d   1      33.133  20.600 -22.503  0.00  0.00     0.105 A 
ATOM      2  C   UNL d   1      33.169  20.467 -23.316  0.00  0.00     0.014 A 
ATOM      3  C   UNL d   1      33.172  19.695 -23.611  0.00  0.00     0.024 A 
ATOM      4  C   UNL d   1      33.101  19.966 -21.986  0.00  0.00     0.015 A 
ATOM      5  C   UNL d   1      33.139  19.056 -23.083  0.00  0.00     0.100 A 
ATOM      6  C   UNL d   1      33.104  19.193 -22.276  0.00  0.00     0.025 A 
ATOM      7  C   UNL d   1      33.201  21.100 -23.833  0.00  0.00     0.001 A 
ATOM      8  C   UNL d   1      33.207  19.564 -24.419  0.00  0.00     0.002 A 
ATOM      9  C   UNL d   1      33.236  20.973 -24.642  0.00  0.00     0.000 A 
ATOM     10  C   UNL d   1      33.240  20.201 -24.942  0.00  0.00     0.000 A 
ENDROOT
BRANCH   1  11
ATOM     11  S   UNL d   1      33.130  21.373 -22.213  0.00  0.00     0.285 S 
ATOM     12  O   UNL d   1      33.086  21.661 -22.979  0.00  0.00    -0.198 OA
ATOM     13  O   UNL d   1      33.175  21.082 -21.438  0.00  0.00    -0.198 OA
BRANCH  11  14
ATOM     14  N   UNL d   1      33.127  22.145 -21.923  0.00  0.00    -0.155 NA
BRANCH  14  15
ATOM     15  C   UNL d   1      32.956  22.280 -21.124  0.00  0.00     0.131 C 
BRANCH  15  16
ATOM     16  C   UNL d   1      32.878  23.055 -20.850  0.00  0.00     0.102 C 
BRANCH  16  17
ATOM     17  N   UNL d   1      32.703  23.195 -20.061  0.00  0.00    -0.298 N 
ATOM     18  C   UNL d   1      31.994  23.558 -19.852  0.00  0.00     0.107 A 
ATOM     19  C   UNL d   1      31.816  23.700 -19.058  0.00  0.00     0.142 A 
ATOM     20  O   UNL d   1      32.352  23.477 -18.471  0.00  0.00    -0.300 OA
ATOM     21  C   UNL d   1      33.065  23.111 -18.679  0.00  0.00     0.142 A 
ATOM     22  C   UNL d   1      33.239  22.971 -19.473  0.00  0.00     0.107 A 
ENDBRANCH  16  17
ENDBRANCH  15  16
ENDBRANCH  14  15
ENDBRANCH  11  14
ENDBRANCH   1  11
BRANCH   5  23
ATOM     23  O   UNL d   1      33.142  18.285 -23.373  0.00  0.00    -0.305 OA
BRANCH  23  24
ATOM     24  C   UNL d   1      32.678  17.710 -23.020  0.00  0.00     0.123 C 
BRANCH  24  25
ATOM     25  C   UNL d   1      32.747  16.923 -23.249  0.00  0.00     0.027 C 
ATOM     26  C   UNL d   1      32.137  16.390 -23.089  0.00  0.00     0.002 C 
ENDBRANCH  24  25
ENDBRANCH  23  24
ENDBRANCH   5  23
TORSDOF 8
ENDMDL
