MODEL 1
REMARK VINA RESULT:      -7.8      0.000      0.000
REMARK  3 active torsions:
REMARK  status: ('A' for Active; 'I' for Inactive)
REMARK       I    between atoms: C_6  and  N_1 
REMARK    1  A    between atoms: C_7  and  C_3 
REMARK    2  A    between atoms: C_8  and  C_4 
REMARK    3  A    between atoms: C_20  and  C_18 
ROOT
ATOM      1  N   UNL d   1     -49.441  13.237  22.436  0.00  0.00    -0.193 N 
ATOM      2  N   UNL d   1     -48.903  12.624  22.439  0.00  0.00    -0.163 NA
ATOM      3  C   UNL d   1     -49.184  13.813  22.969  0.00  0.00     0.110 A 
ATOM      4  C   UNL d   1     -48.310  12.822  22.976  0.00  0.00     0.103 A 
ATOM      5  C   UNL d   1     -48.488  13.546  23.294  0.00  0.00     0.042 A 
ATOM      6  C   UNL d   1     -50.149  13.279  21.964  0.00  0.00     0.281 C 
ATOM      7  O   UNL d   1     -50.632  13.920  22.017  0.00  0.00    -0.265 OA
ATOM      8  C   UNL d   1     -50.326  12.653  21.457  0.00  0.00     0.068 C 
ENDROOT
BRANCH   4   9
ATOM      9  C   UNL d   1     -47.652  12.361  23.155  0.00  0.00     0.019 A 
ATOM     10  C   UNL d   1     -46.892  12.630  22.977  0.00  0.00     0.002 A 
ATOM     11  C   UNL d   1     -46.234  12.168  23.156  0.00  0.00     0.000 A 
ATOM     12  C   UNL d   1     -46.335  11.429  23.518  0.00  0.00     0.000 A 
ATOM     13  C   UNL d   1     -47.092  11.159  23.697  0.00  0.00     0.000 A 
ATOM     14  C   UNL d   1     -47.753  11.622  23.517  0.00  0.00     0.002 A 
BRANCH  12  15
ATOM     15  C   UNL d   1     -45.675  10.966  23.698  0.00  0.00     0.000 C 
ATOM     16  C   UNL d   1     -44.959  11.096  23.311  0.00  0.00     0.000 C 
ENDBRANCH  12  15
ENDBRANCH   4   9
BRANCH   3  17
ATOM     17  C   UNL d   1     -49.575  14.527  23.132  0.00  0.00     0.118 A 
ATOM     18  O   UNL d   1     -50.159  14.636  23.697  0.00  0.00    -0.304 OA
ATOM     19  C   UNL d   1     -50.405  15.437  23.683  0.00  0.00     0.123 A 
ATOM     20  C   UNL d   1     -49.962  15.820  23.099  0.00  0.00     0.029 A 
ATOM     21  C   UNL d   1     -49.450  15.241  22.765  0.00  0.00     0.028 A 
ENDBRANCH   3  17
TORSDOF 3
ENDMDL
MODEL 2
REMARK VINA RESULT:      -7.2      1.447      2.203
REMARK  3 active torsions:
REMARK  status: ('A' for Active; 'I' for Inactive)
REMARK       I    between atoms: C_6  and  N_1 
REMARK    1  A    between atoms: C_7  and  C_3 
REMARK    2  A    between atoms: C_8  and  C_4 
REMARK    3  A    between atoms: C_20  and  C_18 
ROOT
ATOM      1  N   UNL d   1     -49.120  14.200  22.909  0.00  0.00    -0.193 N 
ATOM      2  N   UNL d   1     -48.333  14.376  22.787  0.00  0.00    -0.163 NA
ATOM      3  C   UNL d   1     -49.211  13.379  22.881  0.00  0.00     0.110 A 
ATOM      4  C   UNL d   1     -47.936  13.662  22.682  0.00  0.00     0.103 A 
ATOM      5  C   UNL d   1     -48.475  13.061  22.741  0.00  0.00     0.042 A 
ATOM      6  C   UNL d   1     -49.744  14.762  23.044  0.00  0.00     0.281 C 
ATOM      7  O   UNL d   1     -50.499  14.510  23.157  0.00  0.00    -0.265 OA
ATOM      8  C   UNL d   1     -49.558  15.566  23.055  0.00  0.00     0.068 C 
ENDROOT
BRANCH   4   9
ATOM      9  C   UNL d   1     -47.129  13.579  22.542  0.00  0.00     0.019 A 
ATOM     10  C   UNL d   1     -46.579  13.946  23.037  0.00  0.00     0.002 A 
ATOM     11  C   UNL d   1     -45.772  13.863  22.898  0.00  0.00     0.000 A 
ATOM     12  C   UNL d   1     -45.509  13.408  22.256  0.00  0.00     0.000 A 
ATOM     13  C   UNL d   1     -46.055  13.041  21.761  0.00  0.00     0.000 A 
ATOM     14  C   UNL d   1     -46.865  13.124  21.901  0.00  0.00     0.002 A 
BRANCH  12  15
ATOM     15  C   UNL d   1     -44.699  13.325  22.116  0.00  0.00     0.000 C 
ATOM     16  C   UNL d   1     -44.409  12.644  21.752  0.00  0.00     0.000 C 
ENDBRANCH  12  15
ENDBRANCH   4   9
BRANCH   3  17
ATOM     17  C   UNL d   1     -49.926  12.970  22.980  0.00  0.00     0.118 A 
ATOM     18  O   UNL d   1     -50.293  12.812  23.696  0.00  0.00    -0.304 OA
ATOM     19  C   UNL d   1     -51.002  12.388  23.551  0.00  0.00     0.123 A 
ATOM     20  C   UNL d   1     -51.064  12.287  22.732  0.00  0.00     0.029 A 
ATOM     21  C   UNL d   1     -50.388  12.655  22.390  0.00  0.00     0.028 A 
ENDBRANCH   3  17
TORSDOF 3
ENDMDL
MODEL 3
REMARK VINA RESULT:      -6.7      2.116      4.461
REMARK  3 active torsions:
REMARK  status: ('A' for Active; 'I' for Inactive)
REMARK       I    between atoms: C_6  and  N_1 
REMARK    1  A    between atoms: C_7  and  C_3 
REMARK    2  A    between atoms: C_8  and  C_4 
REMARK    3  A    between atoms: C_20  and  C_18 
ROOT
ATOM      1  N   UNL d   1     -46.761  12.585  22.930  0.00  0.00    -0.193 N 
ATOM      2  N   UNL d   1     -47.538  12.797  23.058  0.00  0.00    -0.163 NA
ATOM      3  C   UNL d   1     -46.407  13.162  22.458  0.00  0.00     0.110 A 
ATOM      4  C   UNL d   1     -47.665  13.509  22.662  0.00  0.00     0.103 A 
ATOM      5  C   UNL d   1     -46.974  13.725  22.300  0.00  0.00     0.042 A 
ATOM      6  C   UNL d   1     -46.377  11.887  23.232  0.00  0.00     0.281 C 
ATOM      7  O   UNL d   1     -45.604  11.746  23.062  0.00  0.00    -0.265 OA
ATOM      8  C   UNL d   1     -46.813  11.364  23.698  0.00  0.00     0.068 C 
ENDROOT
BRANCH   4   9
ATOM      9  C   UNL d   1     -48.375  13.925  22.642  0.00  0.00     0.019 A 
ATOM     10  C   UNL d   1     -48.400  14.720  22.866  0.00  0.00     0.002 A 
ATOM     11  C   UNL d   1     -49.109  15.136  22.846  0.00  0.00     0.000 A 
ATOM     12  C   UNL d   1     -49.804  14.757  22.598  0.00  0.00     0.000 A 
ATOM     13  C   UNL d   1     -49.781  13.965  22.374  0.00  0.00     0.000 A 
ATOM     14  C   UNL d   1     -49.069  13.546  22.394  0.00  0.00     0.002 A 
BRANCH  12  15
ATOM     15  C   UNL d   1     -50.515  15.175  22.577  0.00  0.00     0.000 C 
ATOM     16  C   UNL d   1     -51.038  15.137  23.214  0.00  0.00     0.000 C 
ENDBRANCH  12  15
ENDBRANCH   4   9
BRANCH   3  17
ATOM     17  C   UNL d   1     -45.618  13.156  22.200  0.00  0.00     0.118 A 
ATOM     18  O   UNL d   1     -44.975  13.449  22.617  0.00  0.00    -0.304 OA
ATOM     19  C   UNL d   1     -44.280  13.335  22.162  0.00  0.00     0.123 A 
ATOM     20  C   UNL d   1     -44.507  12.967  21.456  0.00  0.00     0.029 A 
ATOM     21  C   UNL d   1     -45.342  12.862  21.495  0.00  0.00     0.028 A 
ENDBRANCH   3  17
TORSDOF 3
ENDMDL
