MODEL 1
REMARK VINA RESULT:      23.9      0.000      0.000
REMARK  5 active torsions:
REMARK  status: ('A' for Active; 'I' for Inactive)
REMARK    1  A    between atoms: N_2  and  S_1 
REMARK    2  A    between atoms: C_5  and  S_1 
REMARK    3  A    between atoms: S_8  and  C_3 
REMARK    4  A    between atoms: C_13  and  S_8 
REMARK    5  A    between atoms: C_15  and  C_13 
ROOT
ATOM      1  N   UNL d   1      14.304  12.360  -0.829  0.00  0.00    -0.208 N 
ATOM      2  C   UNL d   1      13.696  12.025  -1.287  0.00  0.00     0.189 A 
ATOM      3  N   UNL d   1      13.042  11.899  -0.795  0.00  0.00    -0.219 NA
ATOM      4  C   UNL d   1      14.022  12.440  -0.050  0.00  0.00     0.114 A 
ATOM      5  C   UNL d   1      13.247  12.156  -0.034  0.00  0.00     0.121 A 
ENDROOT
BRANCH   1   6
ATOM      6  S   UNL d   1      15.056  12.573  -1.104  0.00  0.00     0.273 S 
ATOM      7  O   UNL d   1      15.816  12.539  -1.430  0.00  0.00    -0.200 OA
ATOM      8  O   UNL d   1      15.168  11.786  -1.303  0.00  0.00    -0.200 OA
BRANCH   6   9
ATOM      9  C   UNL d   1      14.962  13.371  -0.910  0.00  0.00     0.104 A 
ATOM     10  C   UNL d   1      15.271  13.654  -0.206  0.00  0.00     0.015 A 
ATOM     11  C   UNL d   1      15.176  14.448  -0.014  0.00  0.00     0.030 A 
ATOM     12  C   UNL d   1      14.773  14.953  -0.531  0.00  0.00     0.140 A 
ATOM     13  C   UNL d   1      14.464  14.667  -1.237  0.00  0.00     0.030 A 
ATOM     14  F   UNL d   1      14.679  15.751  -0.338  0.00  0.00    -0.204 F 
ATOM     15  C   UNL d   1      14.560  13.867  -1.427  0.00  0.00     0.015 A 
ENDBRANCH   6   9
ENDBRANCH   1   6
BRANCH   2  16
ATOM     16  S   UNL d   1      13.738  11.848  -2.100  0.00  0.00    -0.049 SA
BRANCH  16  17
ATOM     17  C   UNL d   1      13.091  12.005  -2.588  0.00  0.00     0.038 C 
BRANCH  17  18
ATOM     18  C   UNL d   1      13.214  12.190  -3.389  0.00  0.00     0.007 A 
ATOM     19  C   UNL d   1      13.787  11.782  -3.832  0.00  0.00     0.001 A 
ATOM     20  C   UNL d   1      13.912  11.961  -4.623  0.00  0.00     0.000 A 
ATOM     21  C   UNL d   1      13.465  12.554  -4.980  0.00  0.00     0.000 A 
ATOM     22  C   UNL d   1      12.893  12.964  -4.541  0.00  0.00     0.000 A 
ATOM     23  C   UNL d   1      13.585  12.740  -5.773  0.00  0.00     0.000 C 
ATOM     24  C   UNL d   1      12.770  12.781  -3.748  0.00  0.00     0.001 A 
ENDBRANCH  17  18
ENDBRANCH  16  17
ENDBRANCH   2  16
TORSDOF 5
ENDMDL
