MODEL 1
REMARK VINA RESULT:      -2.9      0.000      0.000
REMARK  8 active torsions:
REMARK  status: ('A' for Active; 'I' for Inactive)
REMARK    1  A    between atoms: C_7  and  C_2 
REMARK    2  A    between atoms: C_12  and  N_3 
REMARK    3  A    between atoms: O_9  and  C_6 
REMARK    4  A    between atoms: O_22  and  C_7 
REMARK    5  A    between atoms: C_8  and  N_11 
REMARK    6  A    between atoms: C_20  and  O_9 
REMARK    7  A    between atoms: C_10  and  C_20 
REMARK       I    between atoms: N_11  and  C_10 
REMARK    8  A    between atoms: C_27  and  O_22 
ROOT
ATOM      1  N   UNL d   1     -41.645-121.875 -53.145  0.00  0.00    -0.155 NA
ATOM      2  C   UNL d   1     -41.465-122.109 -52.379  0.00  0.00     0.187 A 
ATOM      3  N   UNL d   1     -41.725-122.445 -53.738  0.00  0.00    -0.194 N 
ATOM      4  C   UNL d   1     -41.623-123.244 -53.560  0.00  0.00     0.282 A 
ATOM      5  C   UNL d   1     -41.442-123.473 -52.788  0.00  0.00     0.089 A 
ATOM      6  C   UNL d   1     -41.363-122.908 -52.201  0.00  0.00     0.130 A 
ATOM      7  O   UNL d   1     -41.703-123.814 -54.153  0.00  0.00    -0.265 OA
ENDROOT
BRANCH   6   8
ATOM      8  O   UNL d   1     -41.182-123.137 -51.429  0.00  0.00    -0.298 OA
BRANCH   8   9
ATOM      9  C   UNL d   1     -41.513-123.817 -51.110  0.00  0.00     0.185 C 
BRANCH   9  10
ATOM     10  C   UNL d   1     -41.859-123.789 -50.359  0.00  0.00     0.304 C 
ATOM     11  N   UNL d   1     -41.382-123.739 -49.690  0.00  0.00    -0.206 NA
ATOM     12  O   UNL d   1     -42.678-123.811 -50.285  0.00  0.00    -0.263 OA
BRANCH  11  13
ATOM     13  C   UNL d   1     -41.727-123.710 -48.940  0.00  0.00     0.085 A 
ATOM     14  C   UNL d   1     -41.264-123.647 -48.274  0.00  0.00     0.019 A 
ATOM     15  C   UNL d   1     -41.594-123.618 -47.526  0.00  0.00     0.002 A 
ATOM     16  C   UNL d   1     -41.123-123.554 -46.869  0.00  0.00     0.000 C 
ATOM     17  C   UNL d   1     -42.423-123.654 -47.450  0.00  0.00     0.000 A 
ATOM     18  C   UNL d   1     -42.890-123.718 -48.119  0.00  0.00     0.002 A 
ATOM     19  C   UNL d   1     -42.548-123.746 -48.861  0.00  0.00     0.019 A 
ATOM     20  C   UNL d   1     -43.710-123.754 -48.039  0.00  0.00     0.000 C 
ENDBRANCH  11  13
ENDBRANCH   9  10
ENDBRANCH   8   9
ENDBRANCH   6   8
BRANCH   2  21
ATOM     21  C   UNL d   1     -41.386-121.545 -51.792  0.00  0.00     0.322 C 
ATOM     22  O   UNL d   1     -41.309-121.776 -51.004  0.00  0.00    -0.257 OA
BRANCH  21  23
ATOM     23  O   UNL d   1     -41.382-120.738 -51.981  0.00  0.00    -0.270 OA
BRANCH  23  24
ATOM     24  C   UNL d   1     -41.291-120.173 -51.394  0.00  0.00     0.126 C 
ATOM     25  C   UNL d   1     -41.182-119.381 -51.597  0.00  0.00     0.029 C 
ENDBRANCH  23  24
ENDBRANCH  21  23
ENDBRANCH   2  21
BRANCH   3  26
ATOM     26  C   UNL d   1     -41.905-122.213 -54.507  0.00  0.00     0.086 A 
ATOM     27  C   UNL d   1     -41.354-122.315 -55.103  0.00  0.00     0.019 A 
ATOM     28  C   UNL d   1     -41.531-122.084 -55.875  0.00  0.00     0.002 A 
ATOM     29  C   UNL d   1     -42.271-121.746 -56.049  0.00  0.00     0.000 A 
ATOM     30  C   UNL d   1     -42.823-121.646 -55.443  0.00  0.00     0.002 A 
ATOM     31  C   UNL d   1     -42.646-121.875 -54.682  0.00  0.00     0.019 A 
ENDBRANCH   3  26
TORSDOF 8
ENDMDL
MODEL 2
REMARK VINA RESULT:      -0.3      0.609      1.188
REMARK  8 active torsions:
REMARK  status: ('A' for Active; 'I' for Inactive)
REMARK    1  A    between atoms: C_7  and  C_2 
REMARK    2  A    between atoms: C_12  and  N_3 
REMARK    3  A    between atoms: O_9  and  C_6 
REMARK    4  A    between atoms: O_22  and  C_7 
REMARK    5  A    between atoms: C_8  and  N_11 
REMARK    6  A    between atoms: C_20  and  O_9 
REMARK    7  A    between atoms: C_10  and  C_20 
REMARK       I    between atoms: N_11  and  C_10 
REMARK    8  A    between atoms: C_27  and  O_22 
ROOT
ATOM      1  N   UNL d   1     -41.621-121.578 -53.536  0.00  0.00    -0.155 NA
ATOM      2  C   UNL d   1     -41.444-121.650 -52.738  0.00  0.00     0.187 A 
ATOM      3  N   UNL d   1     -41.682-122.257 -54.003  0.00  0.00    -0.194 N 
ATOM      4  C   UNL d   1     -41.565-123.002 -53.667  0.00  0.00     0.282 A 
ATOM      5  C   UNL d   1     -41.387-123.067 -52.865  0.00  0.00     0.089 A 
ATOM      6  C   UNL d   1     -41.327-122.394 -52.402  0.00  0.00     0.130 A 
ATOM      7  O   UNL d   1     -41.626-123.681 -54.135  0.00  0.00    -0.265 OA
ENDROOT
BRANCH   6   8
ATOM      8  O   UNL d   1     -41.149-122.460 -51.599  0.00  0.00    -0.298 OA
BRANCH   8   9
ATOM      9  C   UNL d   1     -41.316-123.153 -51.192  0.00  0.00     0.185 C 
BRANCH   9  10
ATOM     10  C   UNL d   1     -41.557-123.114 -50.402  0.00  0.00     0.304 C 
ATOM     11  N   UNL d   1     -41.768-123.802 -50.004  0.00  0.00    -0.206 NA
ATOM     12  O   UNL d   1     -41.584-122.386 -50.018  0.00  0.00    -0.263 OA
BRANCH  11  13
ATOM     13  C   UNL d   1     -42.009-123.764 -49.214  0.00  0.00     0.085 A 
ATOM     14  C   UNL d   1     -42.799-123.715 -49.025  0.00  0.00     0.019 A 
ATOM     15  C   UNL d   1     -43.050-123.676 -48.248  0.00  0.00     0.002 A 
ATOM     16  C   UNL d   1     -43.841-123.628 -48.072  0.00  0.00     0.000 C 
ATOM     17  C   UNL d   1     -42.481-123.687 -47.640  0.00  0.00     0.000 A 
ATOM     18  C   UNL d   1     -41.687-123.735 -47.828  0.00  0.00     0.002 A 
ATOM     19  C   UNL d   1     -41.448-123.774 -48.610  0.00  0.00     0.019 A 
ATOM     20  C   UNL d   1     -41.126-123.746 -47.223  0.00  0.00     0.000 C 
ENDBRANCH  11  13
ENDBRANCH   9  10
ENDBRANCH   8   9
ENDBRANCH   6   8
BRANCH   2  21
ATOM     21  C   UNL d   1     -41.384-120.978 -52.275  0.00  0.00     0.322 C 
ATOM     22  O   UNL d   1     -41.130-121.035 -51.492  0.00  0.00    -0.257 OA
BRANCH  21  23
ATOM     23  O   UNL d   1     -41.575-120.233 -52.586  0.00  0.00    -0.270 OA
BRANCH  23  24
ATOM     24  C   UNL d   1     -41.546-119.564 -52.114  0.00  0.00     0.126 C 
ATOM     25  C   UNL d   1     -41.545-118.815 -52.459  0.00  0.00     0.029 C 
ENDBRANCH  23  24
ENDBRANCH  21  23
ENDBRANCH   2  21
BRANCH   3  26
ATOM     26  C   UNL d   1     -41.860-122.189 -54.804  0.00  0.00     0.086 A 
ATOM     27  C   UNL d   1     -42.627-122.306 -55.061  0.00  0.00     0.019 A 
ATOM     28  C   UNL d   1     -42.810-122.238 -55.863  0.00  0.00     0.002 A 
ATOM     29  C   UNL d   1     -42.213-122.050 -56.412  0.00  0.00     0.000 A 
ATOM     30  C   UNL d   1     -41.440-121.933 -56.144  0.00  0.00     0.002 A 
ATOM     31  C   UNL d   1     -41.263-122.000 -55.352  0.00  0.00     0.019 A 
ENDBRANCH   3  26
TORSDOF 8
ENDMDL
