MODEL 1
REMARK VINA RESULT:      14.2      0.000      0.000
REMARK  2 active torsions:
REMARK  status: ('A' for Active; 'I' for Inactive)
REMARK       I    between atoms: N_2  and  C_1 
REMARK    1  A    between atoms: C_6  and  C_1 
REMARK    2  A    between atoms: C_4  and  N_2 
ROOT
ATOM      1  C   UNL d   1      45.643 -16.378  44.265  0.00  0.00     0.279 C 
ATOM      2  N   UNL d   1      46.062 -15.708  44.040  0.00  0.00    -0.204 NA
ATOM      3  O   UNL d   1      44.961 -16.303  44.735  0.00  0.00    -0.265 OA
ENDROOT
BRANCH   1   4
ATOM      4  C   UNL d   1      45.895 -17.127  44.027  0.00  0.00     0.058 A 
ATOM      5  C   UNL d   1      45.845 -17.352  43.249  0.00  0.00     0.006 A 
ATOM      6  C   UNL d   1      46.097 -18.101  43.011  0.00  0.00     0.012 A 
ATOM      7  C   UNL d   1      46.402 -18.634  43.549  0.00  0.00     0.058 A 
ATOM      8  C   UNL d   1      46.458 -18.408  44.360  0.00  0.00     0.012 A 
ATOM      9 CL   UNL d   1      46.647 -19.362  43.317  0.00  0.00    -0.082 Cl
ATOM     10  C   UNL d   1      46.206 -17.659  44.598  0.00  0.00     0.006 A 
ENDBRANCH   1   4
BRANCH   2  11
ATOM     11  C   UNL d   1      45.800 -14.958  44.285  0.00  0.00     0.130 A 
ATOM     12  C   UNL d   1      46.033 -14.234  43.983  0.00  0.00     0.243 A 
ATOM     13  S   UNL d   1      45.632 -13.643  44.392  0.00  0.00    -0.044 SA
ATOM     14  O   UNL d   1      46.581 -14.121  43.367  0.00  0.00    -0.278 OA
ATOM     15  C   UNL d   1      45.144 -14.008  44.955  0.00  0.00     0.040 A 
ATOM     16  C   UNL d   1      45.247 -14.822  44.891  0.00  0.00     0.030 A 
ENDBRANCH   2  11
TORSDOF 2
ENDMDL
MODEL 2
REMARK VINA RESULT:      15.4      1.324      1.878
REMARK  2 active torsions:
REMARK  status: ('A' for Active; 'I' for Inactive)
REMARK       I    between atoms: N_2  and  C_1 
REMARK    1  A    between atoms: C_6  and  C_1 
REMARK    2  A    between atoms: C_4  and  N_2 
ROOT
ATOM      1  C   UNL d   1      45.423 -14.689  44.512  0.00  0.00     0.279 C 
ATOM      2  N   UNL d   1      45.919 -14.139  44.155  0.00  0.00    -0.204 NA
ATOM      3  O   UNL d   1      44.769 -14.431  44.955  0.00  0.00    -0.265 OA
ENDROOT
BRANCH   1   4
ATOM      4  C   UNL d   1      45.571 -15.497  44.435  0.00  0.00     0.058 A 
ATOM      5  C   UNL d   1      45.245 -16.029  44.955  0.00  0.00     0.006 A 
ATOM      6  C   UNL d   1      45.393 -16.836  44.877  0.00  0.00     0.012 A 
ATOM      7  C   UNL d   1      45.869 -17.123  44.279  0.00  0.00     0.058 A 
ATOM      8  C   UNL d   1      46.211 -16.577  43.734  0.00  0.00     0.012 A 
ATOM      9 CL   UNL d   1      46.012 -17.908  44.203  0.00  0.00    -0.082 Cl
ATOM     10  C   UNL d   1      46.064 -15.769  43.811  0.00  0.00     0.006 A 
ENDBRANCH   1   4
BRANCH   2  11
ATOM     11  C   UNL d   1      45.762 -13.328  44.239  0.00  0.00     0.130 A 
ATOM     12  C   UNL d   1      45.398 -12.839  43.693  0.00  0.00     0.243 A 
ATOM     13  S   UNL d   1      45.360 -12.081  44.011  0.00  0.00    -0.044 SA
ATOM     14  O   UNL d   1      45.117 -13.074  42.946  0.00  0.00    -0.278 OA
ATOM     15  C   UNL d   1      45.706 -12.102  44.764  0.00  0.00     0.040 A 
ATOM     16  C   UNL d   1      45.955 -12.873  44.908  0.00  0.00     0.030 A 
ENDBRANCH   2  11
TORSDOF 2
ENDMDL
MODEL 3
REMARK VINA RESULT:      16.9      7.773      8.338
REMARK  2 active torsions:
REMARK  status: ('A' for Active; 'I' for Inactive)
REMARK       I    between atoms: N_2  and  C_1 
REMARK    1  A    between atoms: C_6  and  C_1 
REMARK    2  A    between atoms: C_4  and  N_2 
ROOT
ATOM      1  C   UNL d   1      43.833 -15.849  36.565  0.00  0.00     0.279 C 
ATOM      2  N   UNL d   1      43.111 -15.467  36.653  0.00  0.00    -0.204 NA
ATOM      3  O   UNL d   1      43.854 -16.654  36.360  0.00  0.00    -0.265 OA
ENDROOT
BRANCH   1   4
ATOM      4  C   UNL d   1      44.539 -15.438  36.679  0.00  0.00     0.058 A 
ATOM      5  C   UNL d   1      45.233 -15.713  36.359  0.00  0.00     0.006 A 
ATOM      6  C   UNL d   1      45.940 -15.301  36.473  0.00  0.00     0.012 A 
ATOM      7  C   UNL d   1      45.960 -14.610  36.907  0.00  0.00     0.058 A 
ATOM      8  C   UNL d   1      45.243 -14.318  37.242  0.00  0.00     0.012 A 
ATOM      9 CL   UNL d   1      46.647 -14.210  37.017  0.00  0.00    -0.082 Cl
ATOM     10  C   UNL d   1      44.537 -14.729  37.129  0.00  0.00     0.006 A 
ENDBRANCH   1   4
BRANCH   2  11
ATOM     11  C   UNL d   1      42.405 -15.889  36.537  0.00  0.00     0.130 A 
ATOM     12  C   UNL d   1      41.647 -15.582  36.514  0.00  0.00     0.243 A 
ATOM     13  S   UNL d   1      41.121 -16.203  36.386  0.00  0.00    -0.044 SA
ATOM     14  O   UNL d   1      41.448 -14.780  36.604  0.00  0.00    -0.278 OA
ATOM     15  C   UNL d   1      41.561 -16.903  36.330  0.00  0.00     0.040 A 
ATOM     16  C   UNL d   1      42.357 -16.712  36.423  0.00  0.00     0.030 A 
ENDBRANCH   2  11
TORSDOF 2
ENDMDL
