MODEL 1
REMARK VINA RESULT:      65.9      0.000      0.000
REMARK  2 active torsions:
REMARK  status: ('A' for Active; 'I' for Inactive)
REMARK       I    between atoms: N_2  and  C_1 
REMARK       I    between atoms: N_3  and  C_1 
REMARK    1  A    between atoms: C_12  and  N_3 
REMARK    2  A    between atoms: C_5  and  N_4 
ROOT
ATOM      1  C   UNL d   1     -50.235  27.686  33.930  0.00  0.00     0.339 C 
ATOM      2  N   UNL d   1     -50.663  26.988  33.826  0.00  0.00    -0.254 N 
ATOM      3  N   UNL d   1     -49.522  27.679  34.346  0.00  0.00    -0.257 N 
ATOM      4  N   UNL d   1     -51.526  25.582  33.616  0.00  0.00    -0.286 N 
ATOM      5  O   UNL d   1     -50.531  28.392  33.611  0.00  0.00    -0.245 OA
ATOM      6  C   UNL d   1     -51.378  26.991  33.410  0.00  0.00     0.104 A 
ATOM      7  C   UNL d   1     -50.379  26.269  34.140  0.00  0.00     0.104 A 
ATOM      8  C   UNL d   1     -51.806  26.293  33.306  0.00  0.00     0.101 A 
ATOM      9  C   UNL d   1     -50.809  25.568  34.036  0.00  0.00     0.101 A 
ATOM     10  C   UNL d   1     -49.235  26.978  34.658  0.00  0.00     0.104 C 
ENDROOT
BRANCH   3  11
ATOM     11  C   UNL d   1     -49.093  28.386  34.449  0.00  0.00     0.068 A 
ATOM     12  C   UNL d   1     -49.189  29.012  33.912  0.00  0.00     0.018 A 
ATOM     13  C   UNL d   1     -48.759  29.707  34.024  0.00  0.00     0.002 A 
ATOM     14  C   UNL d   1     -48.237  29.780  34.662  0.00  0.00     0.000 A 
ATOM     15  C   UNL d   1     -48.152  29.146  35.190  0.00  0.00     0.002 A 
ATOM     16  C   UNL d   1     -48.580  28.450  35.081  0.00  0.00     0.018 A 
ENDBRANCH   3  11
BRANCH   4  17
ATOM     17  C   UNL d   1     -51.954  24.884  33.512  0.00  0.00     0.148 A 
ATOM     18  N   UNL d   1     -52.764  24.923  33.413  0.00  0.00    -0.227 NA
ATOM     19  C   UNL d   1     -53.190  24.229  33.310  0.00  0.00     0.101 A 
ATOM     20  C   UNL d   1     -52.812  23.510  33.306  0.00  0.00     0.021 A 
ATOM     21  C   UNL d   1     -51.995  23.481  33.406  0.00  0.00     0.005 A 
ATOM     22  C   UNL d   1     -51.573  24.169  33.509  0.00  0.00     0.037 A 
ENDBRANCH   4  17
TORSDOF 2
ENDMDL
MODEL 2
REMARK VINA RESULT:      67.7      1.242      5.270
REMARK  2 active torsions:
REMARK  status: ('A' for Active; 'I' for Inactive)
REMARK       I    between atoms: N_2  and  C_1 
REMARK       I    between atoms: N_3  and  C_1 
REMARK    1  A    between atoms: C_12  and  N_3 
REMARK    2  A    between atoms: C_5  and  N_4 
ROOT
ATOM      1  C   UNL d   1     -49.861  26.961  34.498  0.00  0.00     0.339 C 
ATOM      2  N   UNL d   1     -49.395  27.620  34.670  0.00  0.00    -0.254 N 
ATOM      3  N   UNL d   1     -50.326  26.947  33.815  0.00  0.00    -0.257 N 
ATOM      4  N   UNL d   1     -48.456  28.948  35.017  0.00  0.00    -0.286 N 
ATOM      5  O   UNL d   1     -49.855  26.315  35.019  0.00  0.00    -0.245 OA
ATOM      6  C   UNL d   1     -48.928  27.638  35.352  0.00  0.00     0.104 A 
ATOM      7  C   UNL d   1     -49.390  28.278  34.156  0.00  0.00     0.104 A 
ATOM      8  C   UNL d   1     -48.462  28.297  35.525  0.00  0.00     0.101 A 
ATOM      9  C   UNL d   1     -48.921  28.940  34.329  0.00  0.00     0.101 A 
ATOM     10  C   UNL d   1     -50.327  27.588  33.306  0.00  0.00     0.104 C 
ENDROOT
BRANCH   3  11
ATOM     11  C   UNL d   1     -50.795  26.280  33.645  0.00  0.00     0.068 A 
ATOM     12  C   UNL d   1     -51.623  26.343  33.647  0.00  0.00     0.018 A 
ATOM     13  C   UNL d   1     -52.078  25.676  33.477  0.00  0.00     0.002 A 
ATOM     14  C   UNL d   1     -51.715  24.952  33.306  0.00  0.00     0.000 A 
ATOM     15  C   UNL d   1     -50.887  24.905  33.307  0.00  0.00     0.002 A 
ATOM     16  C   UNL d   1     -50.429  25.569  33.477  0.00  0.00     0.018 A 
ENDBRANCH   3  11
BRANCH   4  17
ATOM     17  C   UNL d   1     -47.990  29.607  35.189  0.00  0.00     0.148 A 
ATOM     18  N   UNL d   1     -48.080  30.287  34.745  0.00  0.00    -0.227 NA
ATOM     19  C   UNL d   1     -47.616  30.943  34.917  0.00  0.00     0.101 A 
ATOM     20  C   UNL d   1     -47.073  30.917  35.521  0.00  0.00     0.021 A 
ATOM     21  C   UNL d   1     -46.990  30.227  35.962  0.00  0.00     0.005 A 
ATOM     22  C   UNL d   1     -47.450  29.578  35.792  0.00  0.00     0.037 A 
ENDBRANCH   4  17
TORSDOF 2
ENDMDL
