MODEL 1
REMARK VINA RESULT:      56.8      0.000      0.000
REMARK  5 active torsions:
REMARK  status: ('A' for Active; 'I' for Inactive)
REMARK    1  A    between atoms: N_5  and  C_1 
REMARK    2  A    between atoms: C_8  and  C_3 
REMARK       I    between atoms: C_7  and  N_5 
REMARK    3  A    between atoms: C_11  and  C_7 
REMARK    4  A    between atoms: C_21  and  C_20 
REMARK    5  A    between atoms: C_24  and  C_21 
ROOT
ATOM      1  N   UNL d   1      13.805  14.788  -4.621  0.00  0.00    -0.165 NA
ATOM      2  C   UNL d   1      13.373  14.100  -4.686  0.00  0.00     0.282 C 
ATOM      3  O   UNL d   1      12.883  13.971  -5.339  0.00  0.00    -0.265 OA
ENDROOT
BRANCH   1   4
ATOM      4  C   UNL d   1      13.758  15.365  -5.207  0.00  0.00     0.297 A 
ATOM      5  O   UNL d   1      13.676  16.174  -5.075  0.00  0.00    -0.253 OA
ATOM      6  C   UNL d   1      13.650  16.551  -5.812  0.00  0.00     0.206 A 
ATOM      7  N   UNL d   1      13.716  15.972  -6.388  0.00  0.00    -0.119 NA
ATOM      8  N   UNL d   1      13.782  15.241  -6.016  0.00  0.00    -0.101 NA
BRANCH   6   9
ATOM      9  C   UNL d   1      13.572  17.365  -5.934  0.00  0.00     0.045 A 
ATOM     10  C   UNL d   1      14.191  17.881  -5.720  0.00  0.00     0.030 A 
ATOM     11  C   UNL d   1      14.107  18.671  -5.843  0.00  0.00     0.123 A 
ATOM     12  O   UNL d   1      14.727  19.177  -5.627  0.00  0.00    -0.301 OA
ATOM     13  C   UNL d   1      13.422  18.977  -6.175  0.00  0.00     0.123 A 
ATOM     14  C   UNL d   1      14.659  19.983  -5.745  0.00  0.00     0.149 A 
ATOM     15  C   UNL d   1      13.971  20.293  -6.078  0.00  0.00     0.149 A 
ATOM     16  O   UNL d   1      13.349  19.799  -6.296  0.00  0.00    -0.301 OA
ATOM     17  C   UNL d   1      12.813  18.489  -6.387  0.00  0.00     0.027 A 
ATOM     18  C   UNL d   1      12.879  17.668  -6.269  0.00  0.00     0.006 A 
ENDBRANCH   6   9
ENDBRANCH   1   4
BRANCH   2  19
ATOM     19  C   UNL d   1      13.421  13.523  -4.100  0.00  0.00     0.058 A 
ATOM     20  C   UNL d   1      13.227  12.746  -4.295  0.00  0.00     0.005 A 
ATOM     21  C   UNL d   1      13.274  12.166  -3.707  0.00  0.00     0.000 A 
ATOM     22  C   UNL d   1      13.510  12.361  -2.941  0.00  0.00     0.000 A 
ATOM     23  C   UNL d   1      13.701  13.143  -2.762  0.00  0.00     0.000 A 
ATOM     24  C   UNL d   1      13.655  13.722  -3.345  0.00  0.00     0.005 A 
BRANCH  22  25
ATOM     25  C   UNL d   1      13.555  11.780  -2.362  0.00  0.00     0.000 C 
BRANCH  25  26
ATOM     26  C   UNL d   1      13.894  11.950  -1.629  0.00  0.00     0.000 A 
ATOM     27  C   UNL d   1      14.686  12.190  -1.583  0.00  0.00     0.000 A 
ATOM     28  C   UNL d   1      15.021  12.358  -0.849  0.00  0.00     0.000 A 
ATOM     29  C   UNL d   1      14.563  12.288  -0.153  0.00  0.00     0.000 A 
ATOM     30  C   UNL d   1      13.774  12.049  -0.203  0.00  0.00     0.000 A 
ATOM     31  C   UNL d   1      13.435  11.878  -0.940  0.00  0.00     0.000 A 
ENDBRANCH  25  26
ENDBRANCH  22  25
ENDBRANCH   2  19
TORSDOF 5
ENDMDL
MODEL 2
REMARK VINA RESULT:      58.4      1.555      6.594
REMARK  5 active torsions:
REMARK  status: ('A' for Active; 'I' for Inactive)
REMARK    1  A    between atoms: N_5  and  C_1 
REMARK    2  A    between atoms: C_8  and  C_3 
REMARK       I    between atoms: C_7  and  N_5 
REMARK    3  A    between atoms: C_11  and  C_7 
REMARK    4  A    between atoms: C_21  and  C_20 
REMARK    5  A    between atoms: C_24  and  C_21 
ROOT
ATOM      1  N   UNL d   1      13.184  14.628  -4.906  0.00  0.00    -0.165 NA
ATOM      2  C   UNL d   1      13.678  15.257  -4.750  0.00  0.00     0.282 C 
ATOM      3  O   UNL d   1      14.275  15.193  -4.182  0.00  0.00    -0.265 OA
ENDROOT
BRANCH   1   4
ATOM      4  C   UNL d   1      13.275  13.918  -4.498  0.00  0.00     0.297 A 
ATOM      5  O   UNL d   1      13.450  13.848  -3.697  0.00  0.00    -0.253 OA
ATOM      6  C   UNL d   1      13.492  13.042  -3.515  0.00  0.00     0.206 A 
ATOM      7  N   UNL d   1      13.342  12.625  -4.204  0.00  0.00    -0.119 NA
ATOM      8  N   UNL d   1      13.209  13.165  -4.811  0.00  0.00    -0.101 NA
BRANCH   6   9
ATOM      9  C   UNL d   1      13.656  12.724  -2.769  0.00  0.00     0.045 A 
ATOM     10  C   UNL d   1      14.272  13.039  -2.306  0.00  0.00     0.030 A 
ATOM     11  C   UNL d   1      14.425  12.724  -1.583  0.00  0.00     0.123 A 
ATOM     12  O   UNL d   1      15.040  13.045  -1.128  0.00  0.00    -0.301 OA
ATOM     13  C   UNL d   1      13.983  12.096  -1.293  0.00  0.00     0.123 A 
ATOM     14  C   UNL d   1      15.209  12.736  -0.391  0.00  0.00     0.149 A 
ATOM     15  C   UNL d   1      14.766  12.105  -0.098  0.00  0.00     0.149 A 
ATOM     16  O   UNL d   1      14.153  11.780  -0.541  0.00  0.00    -0.301 OA
ATOM     17  C   UNL d   1      13.382  11.779  -1.731  0.00  0.00     0.027 A 
ATOM     18  C   UNL d   1      13.207  12.090  -2.483  0.00  0.00     0.006 A 
ENDBRANCH   6   9
ENDBRANCH   1   4
BRANCH   2  19
ATOM     19  C   UNL d   1      13.587  15.968  -5.158  0.00  0.00     0.058 A 
ATOM     20  C   UNL d   1      12.906  16.081  -5.607  0.00  0.00     0.005 A 
ATOM     21  C   UNL d   1      12.814  16.794  -6.016  0.00  0.00     0.000 A 
ATOM     22  C   UNL d   1      13.393  17.380  -5.977  0.00  0.00     0.000 A 
ATOM     23  C   UNL d   1      14.070  17.251  -5.522  0.00  0.00     0.000 A 
ATOM     24  C   UNL d   1      14.163  16.543  -5.114  0.00  0.00     0.005 A 
BRANCH  22  25
ATOM     25  C   UNL d   1      13.296  18.085  -6.385  0.00  0.00     0.000 C 
BRANCH  25  26
ATOM     26  C   UNL d   1      13.634  18.781  -6.099  0.00  0.00     0.000 A 
ATOM     27  C   UNL d   1      14.445  18.921  -6.199  0.00  0.00     0.000 A 
ATOM     28  C   UNL d   1      14.780  19.617  -5.912  0.00  0.00     0.000 A 
ATOM     29  C   UNL d   1      14.303  20.182  -5.521  0.00  0.00     0.000 A 
ATOM     30  C   UNL d   1      13.495  20.039  -5.424  0.00  0.00     0.000 A 
ATOM     31  C   UNL d   1      13.156  19.339  -5.712  0.00  0.00     0.000 A 
ENDBRANCH  25  26
ENDBRANCH  22  25
ENDBRANCH   2  19
TORSDOF 5
ENDMDL
