MODEL 1
REMARK VINA RESULT:      38.2      0.000      0.000
REMARK  2 active torsions:
REMARK  status: ('A' for Active; 'I' for Inactive)
REMARK       I    between atoms: N_2  and  C_1 
REMARK    1  A    between atoms: C_4  and  C_1 
REMARK    2  A    between atoms: C_3  and  N_2 
ROOT
ATOM      1  C   UNL d   1     -54.756-101.558 -42.930  0.00  0.00     0.085 A 
ATOM      2  C   UNL d   1     -54.744-100.947 -44.211  0.00  0.00     0.002 A 
ATOM      3  C   UNL d   1     -54.742-100.890 -43.387  0.00  0.00     0.018 A 
ATOM      4  C   UNL d   1     -54.760-101.676 -44.578  0.00  0.00     0.000 A 
ATOM      5  C   UNL d   1     -54.730-100.273 -44.675  0.00  0.00     0.000 A 
ATOM      6  C   UNL d   1     -54.773-102.307 -43.293  0.00  0.00     0.019 A 
ATOM      7  C   UNL d   1     -54.775-102.363 -44.119  0.00  0.00     0.002 A 
ATOM      8  C   UNL d   1     -54.759-101.557 -45.394  0.00  0.00     0.000 A 
ATOM      9  C   UNL d   1     -54.736-100.501 -45.463  0.00  0.00     0.000 A 
ATOM     10  C   UNL d   1     -54.726-100.159 -43.019  0.00  0.00     0.002 A 
ATOM     11  C   UNL d   1     -54.711 -99.458 -43.485  0.00  0.00     0.000 A 
ATOM     12  C   UNL d   1     -54.713 -99.514 -44.309  0.00  0.00     0.000 A 
ENDROOT
BRANCH   1  13
ATOM     13  N   UNL d   1     -54.755-101.502 -42.113  0.00  0.00    -0.206 NA
ATOM     14  C   UNL d   1     -54.779-102.181 -41.675  0.00  0.00     0.302 C 
ATOM     15  O   UNL d   1     -54.802-102.839 -42.051  0.00  0.00    -0.263 OA
BRANCH  14  16
ATOM     16  C   UNL d   1     -54.779-102.194 -40.847  0.00  0.00     0.158 A 
ATOM     17  O   UNL d   1     -54.849-102.876 -40.398  0.00  0.00    -0.300 OA
ATOM     18  C   UNL d   1     -54.825-102.650 -39.583  0.00  0.00     0.123 A 
ATOM     19  C   UNL d   1     -54.742-101.844 -39.545  0.00  0.00     0.029 A 
ATOM     20  C   UNL d   1     -54.711-101.538 -40.313  0.00  0.00     0.032 A 
ENDBRANCH  14  16
ENDBRANCH   1  13
TORSDOF 2
ENDMDL
