MODEL 1
REMARK VINA RESULT:      -3.2      0.000      0.000
REMARK  5 active torsions:
REMARK  status: ('A' for Active; 'I' for Inactive)
REMARK    1  A    between atoms: C_3  and  C_1 
REMARK       I    between atoms: N_4  and  C_1 
REMARK    2  A    between atoms: C_9  and  N_4 
REMARK    3  A    between atoms: C_5  and  O_6 
REMARK    4  A    between atoms: O_6  and  C_10 
REMARK    5  A    between atoms: C_10  and  C_9 
ROOT
ATOM      1  C   UNL d   1      32.979  20.740 -21.308  0.00  0.00     0.279 C 
ATOM      2  O   UNL d   1      33.241  20.318 -20.649  0.00  0.00    -0.265 OA
ATOM      3  N   UNL d   1      32.889  20.357 -22.033  0.00  0.00    -0.204 NA
ENDROOT
BRANCH   3   4
ATOM      4  C   UNL d   1      33.060  19.553 -22.100  0.00  0.00     0.129 C 
BRANCH   4   5
ATOM      5  C   UNL d   1      32.854  19.142 -22.786  0.00  0.00     0.143 C 
BRANCH   5   6
ATOM      6  O   UNL d   1      33.005  18.332 -22.844  0.00  0.00    -0.303 OA
BRANCH   6   7
ATOM      7  C   UNL d   1      32.654  17.877 -23.452  0.00  0.00     0.100 A 
ATOM      8  C   UNL d   1      32.246  17.187 -23.259  0.00  0.00     0.025 A 
ATOM      9  C   UNL d   1      31.900  16.734 -23.846  0.00  0.00     0.002 A 
ATOM     10  C   UNL d   1      31.961  16.972 -24.631  0.00  0.00     0.000 A 
ATOM     11  C   UNL d   1      32.369  17.663 -24.823  0.00  0.00     0.002 A 
ATOM     12  C   UNL d   1      32.716  18.116 -24.232  0.00  0.00     0.025 A 
ENDBRANCH   6   7
ENDBRANCH   5   6
ENDBRANCH   4   5
ENDBRANCH   3   4
BRANCH   1  13
ATOM     13  C   UNL d   1      32.809  21.541 -21.243  0.00  0.00     0.058 A 
ATOM     14  C   UNL d   1      33.170  22.074 -21.747  0.00  0.00     0.005 A 
ATOM     15  C   UNL d   1      32.999  22.879 -21.684  0.00  0.00     0.000 A 
ATOM     16  C   UNL d   1      32.466  23.143 -21.112  0.00  0.00     0.000 A 
ATOM     17  C   UNL d   1      32.103  22.603 -20.605  0.00  0.00     0.000 A 
ATOM     18  C   UNL d   1      32.275  21.806 -20.672  0.00  0.00     0.005 A 
ENDBRANCH   1  13
TORSDOF 5
ENDMDL
MODEL 2
REMARK VINA RESULT:      -3.1      0.685      4.912
REMARK  5 active torsions:
REMARK  status: ('A' for Active; 'I' for Inactive)
REMARK    1  A    between atoms: C_3  and  C_1 
REMARK       I    between atoms: N_4  and  C_1 
REMARK    2  A    between atoms: C_9  and  N_4 
REMARK    3  A    between atoms: C_5  and  O_6 
REMARK    4  A    between atoms: O_6  and  C_10 
REMARK    5  A    between atoms: C_10  and  C_9 
ROOT
ATOM      1  C   UNL d   1      32.821  18.091 -23.113  0.00  0.00     0.279 C 
ATOM      2  O   UNL d   1      33.241  17.616 -22.584  0.00  0.00    -0.265 OA
ATOM      3  N   UNL d   1      32.762  18.903 -22.980  0.00  0.00    -0.204 NA
ENDROOT
BRANCH   3   4
ATOM      4  C   UNL d   1      33.122  19.242 -22.319  0.00  0.00     0.129 C 
BRANCH   4   5
ATOM      5  C   UNL d   1      33.091  20.058 -22.204  0.00  0.00     0.143 C 
BRANCH   5   6
ATOM      6  O   UNL d   1      32.941  20.365 -21.453  0.00  0.00    -0.303 OA
BRANCH   6   7
ATOM      7  C   UNL d   1      32.783  21.179 -21.350  0.00  0.00     0.100 A 
ATOM      8  C   UNL d   1      32.256  21.420 -20.762  0.00  0.00     0.025 A 
ATOM      9  C   UNL d   1      32.094  22.214 -20.653  0.00  0.00     0.002 A 
ATOM     10  C   UNL d   1      32.460  22.772 -21.133  0.00  0.00     0.000 A 
ATOM     11  C   UNL d   1      32.987  22.532 -21.720  0.00  0.00     0.002 A 
ATOM     12  C   UNL d   1      33.148  21.733 -21.828  0.00  0.00     0.025 A 
ENDBRANCH   6   7
ENDBRANCH   5   6
ENDBRANCH   4   5
ENDBRANCH   3   4
BRANCH   1  13
ATOM     13  C   UNL d   1      32.461  17.755 -23.771  0.00  0.00     0.058 A 
ATOM     14  C   UNL d   1      31.658  17.602 -23.759  0.00  0.00     0.005 A 
ATOM     15  C   UNL d   1      31.295  17.265 -24.419  0.00  0.00     0.000 A 
ATOM     16  C   UNL d   1      31.743  17.085 -25.088  0.00  0.00     0.000 A 
ATOM     17  C   UNL d   1      32.553  17.241 -25.097  0.00  0.00     0.000 A 
ATOM     18  C   UNL d   1      32.909  17.575 -24.440  0.00  0.00     0.005 A 
ENDBRANCH   1  13
TORSDOF 5
ENDMDL
MODEL 3
REMARK VINA RESULT:      -3.1      0.923      1.325
REMARK  5 active torsions:
REMARK  status: ('A' for Active; 'I' for Inactive)
REMARK    1  A    between atoms: C_3  and  C_1 
REMARK       I    between atoms: N_4  and  C_1 
REMARK    2  A    between atoms: C_9  and  N_4 
REMARK    3  A    between atoms: C_5  and  O_6 
REMARK    4  A    between atoms: O_6  and  C_10 
REMARK    5  A    between atoms: C_10  and  C_9 
ROOT
ATOM      1  C   UNL d   1      32.344  21.511 -20.902  0.00  0.00     0.279 C 
ATOM      2  O   UNL d   1      31.611  21.231 -20.647  0.00  0.00    -0.265 OA
ATOM      3  N   UNL d   1      32.801  21.057 -21.418  0.00  0.00    -0.204 NA
ENDROOT
BRANCH   3   4
ATOM      4  C   UNL d   1      32.527  20.324 -21.679  0.00  0.00     0.129 C 
BRANCH   4   5
ATOM      5  C   UNL d   1      32.900  19.943 -22.309  0.00  0.00     0.143 C 
BRANCH   5   6
ATOM      6  O   UNL d   1      32.886  19.120 -22.361  0.00  0.00    -0.303 OA
BRANCH   6   7
ATOM      7  C   UNL d   1      32.972  18.739 -23.101  0.00  0.00     0.100 A 
ATOM      8  C   UNL d   1      32.868  17.922 -23.152  0.00  0.00     0.025 A 
ATOM      9  C   UNL d   1      32.949  17.540 -23.870  0.00  0.00     0.002 A 
ATOM     10  C   UNL d   1      33.136  17.975 -24.542  0.00  0.00     0.000 A 
ATOM     11  C   UNL d   1      33.239  18.792 -24.491  0.00  0.00     0.002 A 
ATOM     12  C   UNL d   1      33.157  19.173 -23.768  0.00  0.00     0.025 A 
ENDBRANCH   6   7
ENDBRANCH   5   6
ENDBRANCH   4   5
ENDBRANCH   3   4
BRANCH   1  13
ATOM     13  C   UNL d   1      32.618  22.241 -20.644  0.00  0.00     0.058 A 
ATOM     14  C   UNL d   1      32.957  22.306 -19.903  0.00  0.00     0.005 A 
ATOM     15  C   UNL d   1      33.234  23.039 -19.642  0.00  0.00     0.000 A 
ATOM     16  C   UNL d   1      33.167  23.701 -20.128  0.00  0.00     0.000 A 
ATOM     17  C   UNL d   1      32.825  23.632 -20.876  0.00  0.00     0.000 A 
ATOM     18  C   UNL d   1      32.552  22.904 -21.131  0.00  0.00     0.005 A 
ENDBRANCH   1  13
TORSDOF 5
ENDMDL
MODEL 4
REMARK VINA RESULT:      -2.2      2.488      5.603
REMARK  5 active torsions:
REMARK  status: ('A' for Active; 'I' for Inactive)
REMARK    1  A    between atoms: C_3  and  C_1 
REMARK       I    between atoms: N_4  and  C_1 
REMARK    2  A    between atoms: C_9  and  N_4 
REMARK    3  A    between atoms: C_5  and  O_6 
REMARK    4  A    between atoms: O_6  and  C_10 
REMARK    5  A    between atoms: C_10  and  C_9 
ROOT
ATOM      1  C   UNL d   1      30.485  15.910 -24.092  0.00  0.00     0.279 C 
ATOM      2  O   UNL d   1      30.824  15.510 -24.729  0.00  0.00    -0.265 OA
ATOM      3  N   UNL d   1      30.938  16.441 -23.652  0.00  0.00    -0.204 NA
ENDROOT
BRANCH   3   4
ATOM      4  C   UNL d   1      31.729  16.571 -23.847  0.00  0.00     0.129 C 
BRANCH   4   5
ATOM      5  C   UNL d   1      32.162  17.153 -23.453  0.00  0.00     0.143 C 
BRANCH   5   6
ATOM      6  O   UNL d   1      32.633  17.679 -23.880  0.00  0.00    -0.303 OA
BRANCH   6   7
ATOM      7  C   UNL d   1      32.838  18.423 -23.558  0.00  0.00     0.100 A 
ATOM      8  C   UNL d   1      32.993  19.056 -24.064  0.00  0.00     0.025 A 
ATOM      9  C   UNL d   1      33.195  19.788 -23.761  0.00  0.00     0.002 A 
ATOM     10  C   UNL d   1      33.241  19.890 -22.946  0.00  0.00     0.000 A 
ATOM     11  C   UNL d   1      33.085  19.257 -22.440  0.00  0.00     0.002 A 
ATOM     12  C   UNL d   1      32.883  18.523 -22.748  0.00  0.00     0.025 A 
ENDBRANCH   6   7
ENDBRANCH   5   6
ENDBRANCH   4   5
ENDBRANCH   3   4
BRANCH   1  13
ATOM     13  C   UNL d   1      29.697  15.782 -23.896  0.00  0.00     0.058 A 
ATOM     14  C   UNL d   1      29.496  15.609 -23.123  0.00  0.00     0.005 A 
ATOM     15  C   UNL d   1      28.706  15.480 -22.925  0.00  0.00     0.000 A 
ATOM     16  C   UNL d   1      28.122  15.526 -23.506  0.00  0.00     0.000 A 
ATOM     17  C   UNL d   1      28.329  15.701 -24.286  0.00  0.00     0.000 A 
ATOM     18  C   UNL d   1      29.114  15.828 -24.478  0.00  0.00     0.005 A 
ENDBRANCH   1  13
TORSDOF 5
ENDMDL
MODEL 5
REMARK VINA RESULT:      -1.9      1.256      5.094
REMARK  5 active torsions:
REMARK  status: ('A' for Active; 'I' for Inactive)
REMARK    1  A    between atoms: C_3  and  C_1 
REMARK       I    between atoms: N_4  and  C_1 
REMARK    2  A    between atoms: C_9  and  N_4 
REMARK    3  A    between atoms: C_5  and  O_6 
REMARK    4  A    between atoms: O_6  and  C_10 
REMARK    5  A    between atoms: C_10  and  C_9 
ROOT
ATOM      1  C   UNL d   1      32.270  17.119 -23.752  0.00  0.00     0.279 C 
ATOM      2  O   UNL d   1      32.989  16.755 -23.929  0.00  0.00    -0.265 OA
ATOM      3  N   UNL d   1      32.255  17.792 -23.275  0.00  0.00    -0.204 NA
ENDROOT
BRANCH   3   4
ATOM      4  C   UNL d   1      32.958  18.102 -22.975  0.00  0.00     0.129 C 
BRANCH   4   5
ATOM      5  C   UNL d   1      33.007  18.902 -22.778  0.00  0.00     0.143 C 
BRANCH   5   6
ATOM      6  O   UNL d   1      33.241  19.128 -22.019  0.00  0.00    -0.303 OA
BRANCH   6   7
ATOM      7  C   UNL d   1      33.231  19.933 -21.794  0.00  0.00     0.100 A 
ATOM      8  C   UNL d   1      33.215  20.518 -22.375  0.00  0.00     0.025 A 
ATOM      9  C   UNL d   1      33.205  21.309 -22.166  0.00  0.00     0.002 A 
ATOM     10  C   UNL d   1      33.211  21.517 -21.371  0.00  0.00     0.000 A 
ATOM     11  C   UNL d   1      33.227  20.932 -20.789  0.00  0.00     0.002 A 
ATOM     12  C   UNL d   1      33.237  20.139 -21.003  0.00  0.00     0.025 A 
ENDBRANCH   6   7
ENDBRANCH   5   6
ENDBRANCH   4   5
ENDBRANCH   3   4
BRANCH   1  13
ATOM     13  C   UNL d   1      31.569  16.811 -24.050  0.00  0.00     0.058 A 
ATOM     14  C   UNL d   1      31.162  17.220 -24.629  0.00  0.00     0.005 A 
ATOM     15  C   UNL d   1      30.458  16.913 -24.930  0.00  0.00     0.000 A 
ATOM     16  C   UNL d   1      30.167  16.195 -24.645  0.00  0.00     0.000 A 
ATOM     17  C   UNL d   1      30.580  15.785 -24.060  0.00  0.00     0.000 A 
ATOM     18  C   UNL d   1      31.278  16.094 -23.766  0.00  0.00     0.005 A 
ENDBRANCH   1  13
TORSDOF 5
ENDMDL
MODEL 6
REMARK VINA RESULT:      -1.1      2.613      5.871
REMARK  5 active torsions:
REMARK  status: ('A' for Active; 'I' for Inactive)
REMARK    1  A    between atoms: C_3  and  C_1 
REMARK       I    between atoms: N_4  and  C_1 
REMARK    2  A    between atoms: C_9  and  N_4 
REMARK    3  A    between atoms: C_5  and  O_6 
REMARK    4  A    between atoms: O_6  and  C_10 
REMARK    5  A    between atoms: C_10  and  C_9 
ROOT
ATOM      1  C   UNL d   1      32.622  22.392 -21.064  0.00  0.00     0.279 C 
ATOM      2  O   UNL d   1      32.123  22.929 -21.442  0.00  0.00    -0.265 OA
ATOM      3  N   UNL d   1      32.951  22.580 -20.331  0.00  0.00    -0.204 NA
ENDROOT
BRANCH   3   4
ATOM      4  C   UNL d   1      32.782  23.305 -19.976  0.00  0.00     0.129 C 
BRANCH   4   5
ATOM      5  C   UNL d   1      32.974  23.433 -19.183  0.00  0.00     0.143 C 
BRANCH   5   6
ATOM      6  O   UNL d   1      33.102  22.791 -18.680  0.00  0.00    -0.303 OA
BRANCH   6   7
ATOM      7  C   UNL d   1      33.065  22.888 -17.850  0.00  0.00     0.100 A 
ATOM      8  C   UNL d   1      33.240  22.249 -17.359  0.00  0.00     0.025 A 
ATOM      9  C   UNL d   1      33.207  22.332 -16.546  0.00  0.00     0.002 A 
ATOM     10  C   UNL d   1      32.997  23.058 -16.221  0.00  0.00     0.000 A 
ATOM     11  C   UNL d   1      32.821  23.696 -16.713  0.00  0.00     0.002 A 
ATOM     12  C   UNL d   1      32.856  23.610 -17.529  0.00  0.00     0.025 A 
ENDBRANCH   6   7
ENDBRANCH   5   6
ENDBRANCH   4   5
ENDBRANCH   3   4
BRANCH   1  13
ATOM     13  C   UNL d   1      32.791  21.669 -21.416  0.00  0.00     0.058 A 
ATOM     14  C   UNL d   1      32.988  21.642 -22.209  0.00  0.00     0.005 A 
ATOM     15  C   UNL d   1      33.159  20.917 -22.565  0.00  0.00     0.000 A 
ATOM     16  C   UNL d   1      33.129  20.223 -22.120  0.00  0.00     0.000 A 
ATOM     17  C   UNL d   1      32.930  20.254 -21.319  0.00  0.00     0.000 A 
ATOM     18  C   UNL d   1      32.762  20.975 -20.971  0.00  0.00     0.005 A 
ENDBRANCH   1  13
TORSDOF 5
ENDMDL
