MODEL 1
REMARK VINA RESULT:      46.1      0.000      0.000
REMARK  6 active torsions:
REMARK  status: ('A' for Active; 'I' for Inactive)
REMARK       I    between atoms: C_3  and  N_1 
REMARK    1  A    between atoms: C_5  and  N_1 
REMARK    2  A    between atoms: C_2  and  C_3 
REMARK    3  A    between atoms: N_9  and  C_5 
REMARK    4  A    between atoms: C_13  and  N_9 
REMARK    5  A    between atoms: C_11  and  C_13 
REMARK    6  A    between atoms: C_15  and  C_11 
ROOT
ATOM      1  C   UNL d   1     -49.977  27.295  34.090  0.00  0.00     0.224 C 
ATOM      2  S   UNL d   1     -50.188  27.844  33.505  0.00  0.00    -0.037 SA
ENDROOT
BRANCH   1   3
ATOM      3  N   UNL d   1     -50.172  26.499  33.994  0.00  0.00    -0.177 NA
ATOM      4  C   UNL d   1     -50.875  26.293  33.601  0.00  0.00     0.304 C 
ATOM      5  O   UNL d   1     -51.370  26.873  33.312  0.00  0.00    -0.263 OA
BRANCH   4   6
ATOM      6  C   UNL d   1     -51.070  25.498  33.506  0.00  0.00     0.158 A 
ATOM      7  O   UNL d   1     -51.828  25.174  33.538  0.00  0.00    -0.296 OA
ATOM      8  C   UNL d   1     -51.775  24.370  33.416  0.00  0.00     0.134 A 
ATOM      9 BR   UNL d   1     -52.398  23.835  33.403  0.00  0.00    -0.022 Br
ATOM     10  C   UNL d   1     -50.980  24.185  33.306  0.00  0.00     0.034 A 
ATOM     11  C   UNL d   1     -50.539  24.889  33.362  0.00  0.00     0.032 A 
ENDBRANCH   4   6
ENDBRANCH   1   3
BRANCH   1  12
ATOM     12  N   UNL d   1     -49.574  27.551  34.761  0.00  0.00    -0.212 NA
BRANCH  12  13
ATOM     13  C   UNL d   1     -49.105  28.217  34.719  0.00  0.00     0.143 C 
BRANCH  13  14
ATOM     14  C   UNL d   1     -48.594  28.394  35.340  0.00  0.00     0.215 C 
ATOM     15  O   UNL d   1     -48.560  27.920  36.009  0.00  0.00    -0.285 OA
BRANCH  14  16
ATOM     16  C   UNL d   1     -48.101  29.059  35.298  0.00  0.00     0.041 A 
ATOM     17  C   UNL d   1     -47.381  29.007  34.895  0.00  0.00     0.003 A 
ATOM     18  C   UNL d   1     -46.885  29.664  34.849  0.00  0.00     0.000 A 
ATOM     19  C   UNL d   1     -47.110  30.379  35.207  0.00  0.00     0.000 A 
ATOM     20  C   UNL d   1     -47.831  30.432  35.609  0.00  0.00     0.000 A 
ATOM     21  C   UNL d   1     -48.326  29.768  35.653  0.00  0.00     0.003 A 
ENDBRANCH  14  16
ENDBRANCH  13  14
ENDBRANCH  12  13
ENDBRANCH   1  12
TORSDOF 6
ENDMDL
MODEL 2
REMARK VINA RESULT:      47.8      2.577      5.517
REMARK  6 active torsions:
REMARK  status: ('A' for Active; 'I' for Inactive)
REMARK       I    between atoms: C_3  and  N_1 
REMARK    1  A    between atoms: C_5  and  N_1 
REMARK    2  A    between atoms: C_2  and  C_3 
REMARK    3  A    between atoms: N_9  and  C_5 
REMARK    4  A    between atoms: C_13  and  N_9 
REMARK    5  A    between atoms: C_11  and  C_13 
REMARK    6  A    between atoms: C_15  and  C_11 
ROOT
ATOM      1  C   UNL d   1     -48.642  28.528  35.108  0.00  0.00     0.224 C 
ATOM      2  S   UNL d   1     -48.874  28.386  35.891  0.00  0.00    -0.037 SA
ENDROOT
BRANCH   1   3
ATOM      3  N   UNL d   1     -48.373  29.277  34.890  0.00  0.00    -0.177 NA
ATOM      4  C   UNL d   1     -47.972  29.748  35.446  0.00  0.00     0.304 C 
ATOM      5  O   UNL d   1     -47.844  29.472  36.203  0.00  0.00    -0.263 OA
BRANCH   4   6
ATOM      6  C   UNL d   1     -47.703  30.496  35.228  0.00  0.00     0.158 A 
ATOM      7  O   UNL d   1     -48.090  31.026  34.727  0.00  0.00    -0.296 OA
ATOM      8  C   UNL d   1     -47.636  31.699  34.657  0.00  0.00     0.134 A 
ATOM      9 BR   UNL d   1     -47.814  32.365  34.212  0.00  0.00    -0.022 Br
ATOM     10  C   UNL d   1     -46.960  31.594  35.116  0.00  0.00     0.034 A 
ATOM     11  C   UNL d   1     -47.002  30.843  35.473  0.00  0.00     0.032 A 
ENDBRANCH   4   6
ENDBRANCH   1   3
BRANCH   1  12
ATOM     12  N   UNL d   1     -48.682  27.920  34.556  0.00  0.00    -0.212 NA
BRANCH  12  13
ATOM     13  C   UNL d   1     -49.381  27.784  34.156  0.00  0.00     0.143 C 
BRANCH  13  14
ATOM     14  C   UNL d   1     -49.452  27.119  33.677  0.00  0.00     0.215 C 
ATOM     15  O   UNL d   1     -48.796  26.786  33.313  0.00  0.00    -0.285 OA
BRANCH  14  16
ATOM     16  C   UNL d   1     -50.195  26.773  33.553  0.00  0.00     0.041 A 
ATOM     17  C   UNL d   1     -50.870  27.251  33.547  0.00  0.00     0.003 A 
ATOM     18  C   UNL d   1     -51.613  26.914  33.424  0.00  0.00     0.000 A 
ATOM     19  C   UNL d   1     -51.682  26.095  33.306  0.00  0.00     0.000 A 
ATOM     20  C   UNL d   1     -51.007  25.617  33.312  0.00  0.00     0.000 A 
ATOM     21  C   UNL d   1     -50.263  25.960  33.436  0.00  0.00     0.003 A 
ENDBRANCH  14  16
ENDBRANCH  13  14
ENDBRANCH  12  13
ENDBRANCH   1  12
TORSDOF 6
ENDMDL
