MODEL 1
REMARK VINA RESULT:      50.7      0.000      0.000
REMARK  4 active torsions:
REMARK  status: ('A' for Active; 'I' for Inactive)
REMARK    1  A    between atoms: C_2  and  S_1 
REMARK    2  A    between atoms: N_3  and  S_1 
REMARK    3  A    between atoms: C_12  and  N_3 
REMARK    4  A    between atoms: N_4  and  C_8 
ROOT
ATOM      1  S   UNL d   1      13.342  12.331  -3.496  0.00  0.00     0.285 S 
ATOM      2  O   UNL d   1      12.769  12.914  -3.237  0.00  0.00    -0.198 OA
ATOM      3  O   UNL d   1      13.884  11.779  -3.744  0.00  0.00    -0.198 OA
ENDROOT
BRANCH   1   4
ATOM      4  C   UNL d   1      13.517  12.200  -2.723  0.00  0.00     0.105 A 
ATOM      5  C   UNL d   1      14.275  12.295  -2.418  0.00  0.00     0.013 A 
ATOM      6  C   UNL d   1      14.449  12.157  -1.618  0.00  0.00     0.001 A 
ATOM      7  C   UNL d   1      15.214  12.259  -1.339  0.00  0.00     0.000 A 
ATOM      8  C   UNL d   1      13.848  11.919  -1.115  0.00  0.00     0.000 A 
ATOM      9  C   UNL d   1      15.386  12.122  -0.542  0.00  0.00     0.000 A 
ATOM     10  C   UNL d   1      14.761  11.875  -0.020  0.00  0.00     0.000 A 
ATOM     11  C   UNL d   1      14.006  11.779  -0.319  0.00  0.00     0.000 A 
ATOM     12  C   UNL d   1      13.073  11.819  -1.411  0.00  0.00     0.001 A 
ATOM     13  C   UNL d   1      12.884  11.950  -2.198  0.00  0.00     0.013 A 
ENDBRANCH   1   4
BRANCH   1  14
ATOM     14  N   UNL d   1      13.135  12.491  -4.301  0.00  0.00    -0.158 NA
BRANCH  14  15
ATOM     15  C   UNL d   1      13.224  13.232  -4.614  0.00  0.00     0.094 A 
ATOM     16  C   UNL d   1      12.809  13.879  -4.332  0.00  0.00     0.021 A 
ATOM     17  C   UNL d   1      12.886  14.642  -4.638  0.00  0.00     0.019 A 
ATOM     18  C   UNL d   1      13.427  14.757  -5.281  0.00  0.00     0.064 A 
ATOM     19  C   UNL d   1      13.850  14.118  -5.574  0.00  0.00     0.019 A 
ATOM     20  C   UNL d   1      13.768  13.341  -5.259  0.00  0.00     0.021 A 
BRANCH  18  21
ATOM     21  N   UNL d   1      13.518  15.516  -5.602  0.00  0.00    -0.300 N 
ATOM     22  C   UNL d   1      12.928  15.885  -6.055  0.00  0.00     0.107 A 
ATOM     23  C   UNL d   1      13.030  16.632  -6.364  0.00  0.00     0.142 A 
ATOM     24  O   UNL d   1      13.728  17.043  -6.232  0.00  0.00    -0.300 OA
ATOM     25  C   UNL d   1      14.333  16.702  -5.785  0.00  0.00     0.142 A 
ATOM     26  C   UNL d   1      14.234  15.933  -5.464  0.00  0.00     0.107 A 
ENDBRANCH  18  21
ENDBRANCH  14  15
ENDBRANCH   1  14
TORSDOF 4
ENDMDL
