MODEL 1
REMARK VINA RESULT:      -4.5      0.000      0.000
REMARK  5 active torsions:
REMARK  status: ('A' for Active; 'I' for Inactive)
REMARK    1  A    between atoms: C_2  and  S_1 
REMARK    2  A    between atoms: N_3  and  S_1 
REMARK    3  A    between atoms: C_5  and  C_6 
REMARK       I    between atoms: N_10  and  C_5 
REMARK    4  A    between atoms: C_25  and  N_10 
REMARK    5  A    between atoms: C_24  and  C_25 
ROOT
ATOM      1  C   UNL d   1      57.469   0.296  31.791  0.00  0.00     0.104 A 
ATOM      2  C   UNL d   1      57.380   0.169  30.984  0.00  0.00     0.018 A 
ATOM      3  C   UNL d   1      58.015   0.298  30.473  0.00  0.00     0.059 A 
ATOM      4  C   UNL d   1      58.195   0.553  32.096  0.00  0.00     0.012 A 
ATOM      5  C   UNL d   1      58.743   0.555  30.770  0.00  0.00     0.005 A 
ATOM      6  C   UNL d   1      58.830   0.682  31.585  0.00  0.00     0.001 A 
ATOM      7  C   UNL d   1      58.284   0.682  32.920  0.00  0.00     0.001 C 
ENDROOT
BRANCH   3   8
ATOM      8  C   UNL d   1      57.930   0.173  29.668  0.00  0.00     0.279 C 
ATOM      9  N   UNL d   1      58.311  -0.468  29.308  0.00  0.00    -0.206 NA
ATOM     10  O   UNL d   1      57.469   0.682  29.221  0.00  0.00    -0.265 OA
BRANCH   9  11
ATOM     11  C   UNL d   1      58.772  -0.977  29.754  0.00  0.00     0.102 C 
BRANCH  11  12
ATOM     12  C   UNL d   1      59.052  -1.691  29.417  0.00  0.00     0.021 A 
ATOM     13  C   UNL d   1      59.804  -1.981  29.598  0.00  0.00     0.028 A 
ATOM     14  C   UNL d   1      60.063  -2.681  29.260  0.00  0.00     0.119 A 
ATOM     15  O   UNL d   1      60.775  -3.105  29.332  0.00  0.00    -0.300 OA
ATOM     16  C   UNL d   1      59.575  -3.103  28.737  0.00  0.00     0.119 A 
ATOM     17  C   UNL d   1      60.723  -3.770  28.862  0.00  0.00     0.304 A 
ATOM     18  O   UNL d   1      59.979  -3.770  28.493  0.00  0.00    -0.300 OA
ATOM     19  C   UNL d   1      58.828  -2.807  28.562  0.00  0.00     0.026 A 
ATOM     20  C   UNL d   1      58.568  -2.106  28.900  0.00  0.00     0.004 A 
ENDBRANCH  11  12
ENDBRANCH   9  11
ENDBRANCH   3   8
BRANCH   1  21
ATOM     21  S   UNL d   1      56.828   0.164  32.297  0.00  0.00     0.272 S 
ATOM     22  O   UNL d   1      56.358   0.649  31.821  0.00  0.00    -0.200 OA
ATOM     23  O   UNL d   1      57.301  -0.319  32.768  0.00  0.00    -0.200 OA
BRANCH  21  24
ATOM     24  N   UNL d   1      56.190   0.034  32.798  0.00  0.00    -0.225 N 
ATOM     25  C   UNL d   1      56.000  -0.728  33.029  0.00  0.00     0.118 A 
ATOM     26  C   UNL d   1      55.361  -0.868  33.532  0.00  0.00     0.142 A 
ATOM     27  O   UNL d   1      54.911  -0.227  33.804  0.00  0.00    -0.300 OA
ATOM     28  C   UNL d   1      55.100   0.535  33.574  0.00  0.00     0.142 A 
ATOM     29  C   UNL d   1      55.739   0.675  33.071  0.00  0.00     0.118 A 
ENDBRANCH  21  24
ENDBRANCH   1  21
TORSDOF 5
ENDMDL
MODEL 2
REMARK VINA RESULT:      -3.4      1.456      5.295
REMARK  5 active torsions:
REMARK  status: ('A' for Active; 'I' for Inactive)
REMARK    1  A    between atoms: C_2  and  S_1 
REMARK    2  A    between atoms: N_3  and  S_1 
REMARK    3  A    between atoms: C_5  and  C_6 
REMARK       I    between atoms: N_10  and  C_5 
REMARK    4  A    between atoms: C_25  and  N_10 
REMARK    5  A    between atoms: C_24  and  C_25 
ROOT
ATOM      1  C   UNL d   1      58.748  -0.827  29.685  0.00  0.00     0.104 A 
ATOM      2  C   UNL d   1      59.000  -0.540  30.411  0.00  0.00     0.018 A 
ATOM      3  C   UNL d   1      58.772   0.214  30.659  0.00  0.00     0.059 A 
ATOM      4  C   UNL d   1      58.264  -0.365  29.197  0.00  0.00     0.012 A 
ATOM      5  C   UNL d   1      58.289   0.682  30.178  0.00  0.00     0.005 A 
ATOM      6  C   UNL d   1      58.036   0.389  29.445  0.00  0.00     0.001 A 
ATOM      7  C   UNL d   1      58.008  -0.660  28.455  0.00  0.00     0.001 C 
ENDROOT
BRANCH   3   8
ATOM      8  C   UNL d   1      59.022   0.504  31.384  0.00  0.00     0.279 C 
ATOM      9  N   UNL d   1      58.473   0.616  31.993  0.00  0.00    -0.206 NA
ATOM     10  O   UNL d   1      59.813   0.682  31.503  0.00  0.00    -0.265 OA
BRANCH   9  11
ATOM     11  C   UNL d   1      57.683   0.439  31.875  0.00  0.00     0.102 C 
BRANCH  11  12
ATOM     12  C   UNL d   1      57.150   0.453  32.522  0.00  0.00     0.021 A 
ATOM     13  C   UNL d   1      56.334   0.416  32.401  0.00  0.00     0.028 A 
ATOM     14  C   UNL d   1      55.825   0.430  33.044  0.00  0.00     0.119 A 
ATOM     15  O   UNL d   1      54.997   0.402  33.100  0.00  0.00    -0.300 OA
ATOM     16  C   UNL d   1      56.125   0.482  33.817  0.00  0.00     0.119 A 
ATOM     17  C   UNL d   1      54.794   0.436  33.890  0.00  0.00     0.304 A 
ATOM     18  O   UNL d   1      55.493   0.485  34.335  0.00  0.00    -0.300 OA
ATOM     19  C   UNL d   1      56.940   0.518  33.928  0.00  0.00     0.026 A 
ATOM     20  C   UNL d   1      57.448   0.504  33.284  0.00  0.00     0.004 A 
ENDBRANCH  11  12
ENDBRANCH   9  11
ENDBRANCH   3   8
BRANCH   1  21
ATOM     21  S   UNL d   1      58.981  -1.584  29.443  0.00  0.00     0.272 S 
ATOM     22  O   UNL d   1      58.363  -1.910  29.882  0.00  0.00    -0.200 OA
ATOM     23  O   UNL d   1      59.597  -1.252  29.007  0.00  0.00    -0.200 OA
BRANCH  21  24
ATOM     24  N   UNL d   1      59.212  -2.335  29.204  0.00  0.00    -0.225 N 
ATOM     25  C   UNL d   1      58.651  -2.922  29.103  0.00  0.00     0.118 A 
ATOM     26  C   UNL d   1      58.873  -3.680  28.864  0.00  0.00     0.142 A 
ATOM     27  O   UNL d   1      59.674  -3.843  28.724  0.00  0.00    -0.300 OA
ATOM     28  C   UNL d   1      60.236  -3.256  28.825  0.00  0.00     0.142 A 
ATOM     29  C   UNL d   1      60.013  -2.498  29.065  0.00  0.00     0.118 A 
ENDBRANCH  21  24
ENDBRANCH   1  21
TORSDOF 5
ENDMDL
