MODEL 1
REMARK VINA RESULT:      19.8      0.000      0.000
REMARK  5 active torsions:
REMARK  status: ('A' for Active; 'I' for Inactive)
REMARK    1  A    between atoms: N_2  and  S_1 
REMARK    2  A    between atoms: C_10  and  S_1 
REMARK    3  A    between atoms: C_4  and  N_12 
REMARK    4  A    between atoms: C_8  and  C_17 
REMARK       I    between atoms: N_11  and  C_8 
REMARK    5  A    between atoms: N_12  and  N_11 
ROOT
ATOM      1  C   UNL d   1     -41.769-121.504 -52.716  0.00  0.00     0.104 A 
ATOM      2  C   UNL d   1     -41.470-120.843 -51.239  0.00  0.00     0.059 A 
ATOM      3  C   UNL d   1     -41.627-121.995 -52.067  0.00  0.00     0.013 A 
ATOM      4  C   UNL d   1     -41.761-120.684 -52.623  0.00  0.00     0.013 A 
ATOM      5  C   UNL d   1     -41.480-121.658 -51.338  0.00  0.00     0.006 A 
ATOM      6  C   UNL d   1     -41.610-120.356 -51.881  0.00  0.00     0.006 A 
ENDROOT
BRANCH   2   7
ATOM      7  C   UNL d   1     -41.321-120.510 -50.503  0.00  0.00     0.297 C 
ATOM      8  N   UNL d   1     -41.393-121.034 -49.878  0.00  0.00    -0.104 NA
ATOM      9  O   UNL d   1     -41.125-119.702 -50.550  0.00  0.00    -0.264 OA
BRANCH   8  10
ATOM     10  N   UNL d   1     -41.599-121.814 -50.025  0.00  0.00    -0.118 NA
BRANCH  10  11
ATOM     11  C   UNL d   1     -41.913-122.287 -49.417  0.00  0.00     0.215 A 
ATOM     12  N   UNL d   1     -41.507-122.562 -48.760  0.00  0.00    -0.219 NA
ATOM     13  C   UNL d   1     -42.017-123.007 -48.298  0.00  0.00     0.090 A 
ATOM     14  C   UNL d   1     -41.921-123.411 -47.591  0.00  0.00     0.018 A 
ATOM     15  C   UNL d   1     -42.756-123.007 -48.680  0.00  0.00     0.050 A 
ATOM     16  C   UNL d   1     -42.558-123.817 -47.258  0.00  0.00     0.002 A 
ATOM     17  C   UNL d   1     -41.183-123.410 -47.212  0.00  0.00     0.002 C 
ATOM     18  C   UNL d   1     -43.287-123.816 -47.637  0.00  0.00     0.001 A 
ATOM     19  C   UNL d   1     -43.399-123.410 -48.355  0.00  0.00     0.008 A 
ATOM     20  S   UNL d   1     -42.686-122.562 -49.368  0.00  0.00    -0.045 SA
ENDBRANCH  10  11
ENDBRANCH   8  10
ENDBRANCH   2   7
BRANCH   1  21
ATOM     21  S   UNL d   1     -41.920-121.828 -53.456  0.00  0.00     0.271 S 
ATOM     22  O   UNL d   1     -42.684-122.025 -53.221  0.00  0.00    -0.200 OA
ATOM     23  O   UNL d   1     -41.155-121.631 -53.694  0.00  0.00    -0.200 OA
BRANCH  21  24
ATOM     24  N   UNL d   1     -42.068-122.152 -54.200  0.00  0.00    -0.229 N 
ATOM     25  C   UNL d   1     -42.317-121.667 -54.818  0.00  0.00     0.092 A 
ATOM     26  C   UNL d   1     -42.466-121.992 -55.562  0.00  0.00     0.018 A 
ATOM     27  C   UNL d   1     -42.715-121.506 -56.180  0.00  0.00     0.002 A 
ATOM     28  C   UNL d   1     -42.366-122.802 -55.695  0.00  0.00     0.003 A 
ATOM     29  C   UNL d   1     -42.863-121.831 -56.923  0.00  0.00     0.000 A 
ATOM     30  C   UNL d   1     -42.761-122.642 -57.048  0.00  0.00     0.000 A 
ATOM     31  C   UNL d   1     -42.512-123.123 -56.430  0.00  0.00     0.000 A 
ATOM     32  C   UNL d   1     -42.114-123.288 -55.069  0.00  0.00     0.020 A 
ATOM     33  C   UNL d   1     -41.966-122.963 -54.325  0.00  0.00     0.092 A 
ENDBRANCH  21  24
ENDBRANCH   1  21
TORSDOF 5
ENDMDL
MODEL 2
REMARK VINA RESULT:      22.0      1.077      6.164
REMARK  5 active torsions:
REMARK  status: ('A' for Active; 'I' for Inactive)
REMARK    1  A    between atoms: N_2  and  S_1 
REMARK    2  A    between atoms: C_10  and  S_1 
REMARK    3  A    between atoms: C_4  and  N_12 
REMARK    4  A    between atoms: C_8  and  C_17 
REMARK       I    between atoms: N_11  and  C_8 
REMARK    5  A    between atoms: N_12  and  N_11 
ROOT
ATOM      1  C   UNL d   1     -42.018-121.676 -50.741  0.00  0.00     0.104 A 
ATOM      2  C   UNL d   1     -41.599-120.815 -52.079  0.00  0.00     0.059 A 
ATOM      3  C   UNL d   1     -41.322-121.860 -51.146  0.00  0.00     0.013 A 
ATOM      4  C   UNL d   1     -42.501-121.062 -51.006  0.00  0.00     0.013 A 
ATOM      5  C   UNL d   1     -41.123-121.426 -51.810  0.00  0.00     0.006 A 
ATOM      6  C   UNL d   1     -42.288-120.632 -51.678  0.00  0.00     0.006 A 
ENDROOT
BRANCH   2   7
ATOM      7  C   UNL d   1     -41.393-120.383 -52.746  0.00  0.00     0.297 C 
ATOM      8  N   UNL d   1     -41.415-120.813 -53.443  0.00  0.00    -0.104 NA
ATOM      9  O   UNL d   1     -41.203-119.591 -52.570  0.00  0.00    -0.264 OA
BRANCH   8  10
ATOM     10  N   UNL d   1     -41.630-121.603 -53.424  0.00  0.00    -0.118 NA
BRANCH  10  11
ATOM     11  C   UNL d   1     -41.918-121.977 -54.110  0.00  0.00     0.215 A 
ATOM     12  N   UNL d   1     -42.137-121.604 -54.807  0.00  0.00    -0.219 NA
ATOM     13  C   UNL d   1     -42.389-122.170 -55.344  0.00  0.00     0.090 A 
ATOM     14  C   UNL d   1     -42.666-122.123 -56.114  0.00  0.00     0.018 A 
ATOM     15  C   UNL d   1     -42.324-122.909 -54.968  0.00  0.00     0.050 A 
ATOM     16  C   UNL d   1     -42.882-122.811 -56.517  0.00  0.00     0.002 A 
ATOM     17  C   UNL d   1     -42.730-121.385 -56.486  0.00  0.00     0.002 C 
ATOM     18  C   UNL d   1     -42.817-123.541 -56.144  0.00  0.00     0.001 A 
ATOM     19  C   UNL d   1     -42.537-123.602 -55.363  0.00  0.00     0.008 A 
ATOM     20  S   UNL d   1     -42.034-122.784 -54.209  0.00  0.00    -0.045 SA
ENDBRANCH  10  11
ENDBRANCH   8  10
ENDBRANCH   2   7
BRANCH   1  21
ATOM     21  S   UNL d   1     -42.232-122.102 -50.072  0.00  0.00     0.271 S 
ATOM     22  O   UNL d   1     -43.012-121.853 -50.156  0.00  0.00    -0.200 OA
ATOM     23  O   UNL d   1     -41.452-122.354 -49.986  0.00  0.00    -0.200 OA
BRANCH  21  24
ATOM     24  N   UNL d   1     -42.445-122.532 -49.400  0.00  0.00    -0.229 N 
ATOM     25  C   UNL d   1     -42.000-122.460 -48.709  0.00  0.00     0.092 A 
ATOM     26  C   UNL d   1     -42.213-122.889 -48.037  0.00  0.00     0.018 A 
ATOM     27  C   UNL d   1     -41.768-122.818 -47.346  0.00  0.00     0.002 A 
ATOM     28  C   UNL d   1     -42.869-123.392 -48.049  0.00  0.00     0.003 A 
ATOM     29  C   UNL d   1     -41.981-123.247 -46.675  0.00  0.00     0.000 A 
ATOM     30  C   UNL d   1     -42.639-123.748 -46.695  0.00  0.00     0.000 A 
ATOM     31  C   UNL d   1     -43.080-123.817 -47.385  0.00  0.00     0.000 A 
ATOM     32  C   UNL d   1     -43.315-123.462 -48.748  0.00  0.00     0.020 A 
ATOM     33  C   UNL d   1     -43.103-123.032 -49.420  0.00  0.00     0.092 A 
ENDBRANCH  21  24
ENDBRANCH   1  21
TORSDOF 5
ENDMDL
