MODEL 1
REMARK VINA RESULT:      -4.0      0.000      0.000
REMARK  3 active torsions:
REMARK  status: ('A' for Active; 'I' for Inactive)
REMARK    1  A    between atoms: N_6  and  C_1 
REMARK       I    between atoms: C_8  and  N_6 
REMARK       I    between atoms: C_11  and  N_7 
REMARK    2  A    between atoms: C_14  and  C_8 
REMARK    3  A    between atoms: O_20  and  C_19 
ROOT
ATOM      1  C   UNL d   1     -41.345-122.777 -51.193  0.00  0.00     0.124 A 
ATOM      2  C   UNL d   1     -41.373-122.032 -51.564  0.00  0.00     0.093 A 
ATOM      3  C   UNL d   1     -41.377-122.965 -52.526  0.00  0.00     0.049 A 
ATOM      4  C   UNL d   1     -41.393-122.154 -52.386  0.00  0.00     0.021 A 
ATOM      5  S   UNL d   1     -41.347-123.358 -51.798  0.00  0.00    -0.066 SA
ATOM      6  N   UNL d   1     -41.423-122.728 -53.938  0.00  0.00    -0.272 N 
ATOM      7  C   UNL d   1     -41.392-123.256 -53.311  0.00  0.00     0.089 A 
ATOM      8  C   UNL d   1     -41.380-121.304 -51.173  0.00  0.00     0.103 C 
ATOM      9  C   UNL d   1     -41.438-123.007 -54.721  0.00  0.00     0.265 C 
ATOM     10  N   UNL d   1     -41.387-120.588 -50.790  0.00  0.00    -0.191 NA
ATOM     11  C   UNL d   1     -41.424-121.611 -53.020  0.00  0.00     0.020 A 
ATOM     12  C   UNL d   1     -41.439-121.906 -53.793  0.00  0.00     0.083 A 
ATOM     13  O   UNL d   1     -41.422-123.817 -54.865  0.00  0.00    -0.267 OA
ATOM     14  C   UNL d   1     -41.468-122.479 -55.349  0.00  0.00     0.066 C 
ENDROOT
BRANCH   1  15
ATOM     15  N   UNL d   1     -41.319-122.920 -50.380  0.00  0.00    -0.201 NA
ATOM     16  C   UNL d   1     -41.900-123.386 -50.025  0.00  0.00     0.280 C 
ATOM     17  O   UNL d   1     -42.509-123.712 -50.472  0.00  0.00    -0.265 OA
BRANCH  16  18
ATOM     18  C   UNL d   1     -41.874-123.526 -49.228  0.00  0.00     0.060 A 
ATOM     19  C   UNL d   1     -42.568-123.542 -48.782  0.00  0.00     0.029 A 
ATOM     20  C   UNL d   1     -42.541-123.684 -47.972  0.00  0.00     0.094 A 
ATOM     21  C   UNL d   1     -41.821-123.813 -47.600  0.00  0.00     0.024 A 
ATOM     22  C   UNL d   1     -41.123-123.800 -48.038  0.00  0.00     0.002 A 
ATOM     23  C   UNL d   1     -41.149-123.655 -48.860  0.00  0.00     0.005 A 
BRANCH  20  24
ATOM     24  O   UNL d   1     -43.247-123.701 -47.509  0.00  0.00    -0.328 OA
ATOM     25  C   UNL d   1     -43.219-123.806 -46.695  0.00  0.00     0.181 C 
ENDBRANCH  20  24
ENDBRANCH  16  18
ENDBRANCH   1  15
TORSDOF 3
ENDMDL
