MODEL 1
REMARK VINA RESULT:      51.2      0.000      0.000
REMARK  7 active torsions:
REMARK  status: ('A' for Active; 'I' for Inactive)
REMARK    1  A    between atoms: N_2  and  S_1 
REMARK    2  A    between atoms: C_5  and  S_1 
REMARK    3  A    between atoms: C_3  and  N_2 
REMARK    4  A    between atoms: C_4  and  C_3 
REMARK    5  A    between atoms: C_8  and  C_3 
REMARK    6  A    between atoms: C_17  and  C_8 
REMARK    7  A    between atoms: C_9  and  C_10 
ROOT
ATOM      1  S   UNL d   1     -55.673 -99.732 -45.264  0.00  0.00     0.285 S 
ATOM      2  O   UNL d   1     -55.471 -98.939 -45.288  0.00  0.00    -0.198 OA
ATOM      3  O   UNL d   1     -54.904 -99.935 -45.519  0.00  0.00    -0.198 OA
ENDROOT
BRANCH   1   4
ATOM      4  N   UNL d   1     -55.874-100.525 -45.239  0.00  0.00    -0.152 NA
BRANCH   4   5
ATOM      5  C   UNL d   1     -55.335-101.077 -44.989  0.00  0.00     0.158 C 
BRANCH   5   6
ATOM      6  C   UNL d   1     -55.352-101.837 -45.290  0.00  0.00     0.230 C 
ATOM      7  O   UNL d   1     -55.730-101.992 -45.990  0.00  0.00    -0.643 OA
ATOM      8  O   UNL d   1     -54.982-102.449 -44.879  0.00  0.00    -0.643 OA
ENDBRANCH   5   6
BRANCH   5   9
ATOM      9  C   UNL d   1     -54.766-100.871 -44.427  0.00  0.00     0.026 C 
BRANCH   9  10
ATOM     10  C   UNL d   1     -54.754-101.241 -43.690  0.00  0.00     0.002 A 
ATOM     11  C   UNL d   1     -54.725-100.792 -42.993  0.00  0.00     0.000 A 
ATOM     12  C   UNL d   1     -54.713-101.162 -42.260  0.00  0.00     0.000 A 
ATOM     13  C   UNL d   1     -54.730-101.984 -42.214  0.00  0.00     0.000 A 
ATOM     14  C   UNL d   1     -54.760-102.453 -42.918  0.00  0.00     0.000 A 
ATOM     15  C   UNL d   1     -54.771-102.057 -43.645  0.00  0.00     0.000 A 
ENDBRANCH   9  10
ENDBRANCH   5   9
ENDBRANCH   4   5
ENDBRANCH   1   4
BRANCH   1  16
ATOM     16  C   UNL d   1     -56.427 -99.533 -45.013  0.00  0.00     0.105 A 
ATOM     17  C   UNL d   1     -56.737 -99.882 -44.334  0.00  0.00     0.013 A 
ATOM     18  C   UNL d   1     -57.491 -99.683 -44.083  0.00  0.00    -0.004 A 
ATOM     19  C   UNL d   1     -57.933 -99.135 -44.512  0.00  0.00    -0.023 A 
ATOM     20  C   UNL d   1     -57.624 -98.775 -45.205  0.00  0.00    -0.004 A 
ATOM     21  C   UNL d   1     -56.869 -98.985 -45.442  0.00  0.00     0.013 A 
BRANCH  19  22
ATOM     22  C   UNL d   1     -58.692 -98.950 -44.239  0.00  0.00     0.019 C 
ATOM     23  C   UNL d   1     -58.970 -99.011 -45.007  0.00  0.00     0.004 C 
ATOM     24  C   UNL d   1     -59.438 -98.769 -43.975  0.00  0.00     0.004 C 
ATOM     25  C   UNL d   1     -58.404 -98.892 -43.475  0.00  0.00     0.004 C 
ENDBRANCH  19  22
ENDBRANCH   1  16
TORSDOF 7
ENDMDL
