MODEL 1
REMARK VINA RESULT:      -7.8      0.000      0.000
REMARK  5 active torsions:
REMARK  status: ('A' for Active; 'I' for Inactive)
REMARK    1  A    between atoms: C_2  and  C_1 
REMARK    2  A    between atoms: C_5  and  C_2 
REMARK    3  A    between atoms: C_9  and  C_5 
REMARK    4  A    between atoms: O_18  and  C_12 
REMARK    5  A    between atoms: O_19  and  C_14 
ROOT
ATOM      1  C   UNL d   1      53.142  31.880  53.311  0.00  0.00     0.141 C 
ATOM      2  C   UNL d   1      52.453  32.092  52.902  0.00  0.00     0.107 C 
ATOM      3  N   UNL d   1      51.749  32.301  52.488  0.00  0.00    -0.191 NA
ENDROOT
BRANCH   1   4
ATOM      4  C   UNL d   1      53.198  31.150  53.671  0.00  0.00     0.161 A 
ATOM      5  N   UNL d   1      53.221  30.414  53.262  0.00  0.00    -0.287 N 
ATOM      6  C   UNL d   1      53.280  29.812  53.842  0.00  0.00     0.083 A 
ATOM      7  C   UNL d   1      53.190  30.313  52.451  0.00  0.00     0.101 C 
ATOM      8  C   UNL d   1      53.324  29.000  53.800  0.00  0.00     0.019 A 
ATOM      9  C   UNL d   1      53.294  30.183  54.592  0.00  0.00     0.099 A 
ATOM     10  C   UNL d   1      53.380  28.537  54.472  0.00  0.00     0.002 A 
ATOM     11  C   UNL d   1      53.393  28.908  55.222  0.00  0.00     0.002 A 
ATOM     12  C   UNL d   1      53.350  29.733  55.281  0.00  0.00     0.021 A 
ATOM     13  N   UNL d   1      53.242  31.008  54.462  0.00  0.00    -0.226 NA
ENDBRANCH   1   4
BRANCH   1  14
ATOM     14  C   UNL d   1      53.768  32.415  53.349  0.00  0.00     0.208 C 
ATOM     15  O   UNL d   1      54.478  32.223  52.982  0.00  0.00    -0.286 OA
BRANCH  14  16
ATOM     16  C   UNL d   1      53.683  33.127  53.747  0.00  0.00     0.042 A 
ATOM     17  C   UNL d   1      54.128  33.287  54.419  0.00  0.00     0.029 A 
ATOM     18  C   UNL d   1      54.044  33.995  54.814  0.00  0.00     0.116 A 
ATOM     19  C   UNL d   1      53.512  34.562  54.549  0.00  0.00     0.116 A 
ATOM     20  C   UNL d   1      53.064  34.403  53.874  0.00  0.00     0.026 A 
ATOM     21  C   UNL d   1      53.149  33.696  53.479  0.00  0.00     0.005 A 
BRANCH  18  22
ATOM     22  O   UNL d   1      54.497  34.130  55.479  0.00  0.00    -0.326 OA
ATOM     23  C   UNL d   1      55.255  33.781  55.562  0.00  0.00     0.181 C 
ENDBRANCH  18  22
BRANCH  19  24
ATOM     24  O   UNL d   1      53.428  35.267  54.942  0.00  0.00    -0.326 OA
ATOM     25  C   UNL d   1      52.860  35.821  54.691  0.00  0.00     0.181 C 
ENDBRANCH  19  24
ENDBRANCH  14  16
ENDBRANCH   1  14
TORSDOF 5
ENDMDL
MODEL 2
REMARK VINA RESULT:      -7.7      2.883      4.149
REMARK  5 active torsions:
REMARK  status: ('A' for Active; 'I' for Inactive)
REMARK    1  A    between atoms: C_2  and  C_1 
REMARK    2  A    between atoms: C_5  and  C_2 
REMARK    3  A    between atoms: C_9  and  C_5 
REMARK    4  A    between atoms: O_18  and  C_12 
REMARK    5  A    between atoms: O_19  and  C_14 
ROOT
ATOM      1  C   UNL d   1      51.652  33.353  53.096  0.00  0.00     0.141 C 
ATOM      2  C   UNL d   1      51.160  32.693  53.184  0.00  0.00     0.107 C 
ATOM      3  N   UNL d   1      50.663  32.018  53.278  0.00  0.00    -0.191 NA
ENDROOT
BRANCH   1   4
ATOM      4  C   UNL d   1      52.343  33.412  53.526  0.00  0.00     0.161 A 
ATOM      5  N   UNL d   1      53.001  32.889  53.452  0.00  0.00    -0.287 N 
ATOM      6  C   UNL d   1      53.584  33.150  53.993  0.00  0.00     0.083 A 
ATOM      7  C   UNL d   1      53.051  32.250  52.945  0.00  0.00     0.101 C 
ATOM      8  C   UNL d   1      54.330  32.882  54.180  0.00  0.00     0.019 A 
ATOM      9  C   UNL d   1      53.281  33.823  54.388  0.00  0.00     0.099 A 
ATOM     10  C   UNL d   1      54.792  33.252  54.745  0.00  0.00     0.002 A 
ATOM     11  C   UNL d   1      54.488  33.925  55.140  0.00  0.00     0.002 A 
ATOM     12  C   UNL d   1      53.731  34.210  54.961  0.00  0.00     0.021 A 
ATOM     13  N   UNL d   1      52.515  33.965  54.085  0.00  0.00    -0.226 NA
ENDBRANCH   1   4
BRANCH   1  14
ATOM     14  C   UNL d   1      51.436  33.950  52.569  0.00  0.00     0.208 C 
ATOM     15  O   UNL d   1      51.968  34.176  51.985  0.00  0.00    -0.286 OA
BRANCH  14  16
ATOM     16  C   UNL d   1      50.702  34.311  52.628  0.00  0.00     0.042 A 
ATOM     17  C   UNL d   1      50.150  34.238  52.023  0.00  0.00     0.029 A 
ATOM     18  C   UNL d   1      49.421  34.597  52.082  0.00  0.00     0.116 A 
ATOM     19  C   UNL d   1      49.223  35.038  52.746  0.00  0.00     0.116 A 
ATOM     20  C   UNL d   1      49.776  35.111  53.355  0.00  0.00     0.026 A 
ATOM     21  C   UNL d   1      50.505  34.753  53.296  0.00  0.00     0.005 A 
BRANCH  18  22
ATOM     22  O   UNL d   1      48.890  34.510  51.468  0.00  0.00    -0.326 OA
ATOM     23  C   UNL d   1      49.152  34.488  50.672  0.00  0.00     0.181 C 
ENDBRANCH  18  22
BRANCH  19  24
ATOM     24  O   UNL d   1      48.497  35.394  52.805  0.00  0.00    -0.326 OA
ATOM     25  C   UNL d   1      48.321  35.884  53.455  0.00  0.00     0.181 C 
ENDBRANCH  19  24
ENDBRANCH  14  16
ENDBRANCH   1  14
TORSDOF 5
ENDMDL
MODEL 3
REMARK VINA RESULT:      -7.7      1.660      4.417
REMARK  5 active torsions:
REMARK  status: ('A' for Active; 'I' for Inactive)
REMARK    1  A    between atoms: C_2  and  C_1 
REMARK    2  A    between atoms: C_5  and  C_2 
REMARK    3  A    between atoms: C_9  and  C_5 
REMARK    4  A    between atoms: O_18  and  C_12 
REMARK    5  A    between atoms: O_19  and  C_14 
ROOT
ATOM      1  C   UNL d   1      53.442  32.616  53.994  0.00  0.00     0.141 C 
ATOM      2  C   UNL d   1      53.785  32.822  54.719  0.00  0.00     0.107 C 
ATOM      3  N   UNL d   1      54.129  33.038  55.458  0.00  0.00    -0.191 NA
ENDROOT
BRANCH   1   4
ATOM      4  C   UNL d   1      52.797  33.029  53.711  0.00  0.00     0.161 A 
ATOM      5  N   UNL d   1      52.830  33.805  53.382  0.00  0.00    -0.287 N 
ATOM      6  C   UNL d   1      52.049  34.014  53.165  0.00  0.00     0.083 A 
ATOM      7  C   UNL d   1      53.503  34.261  53.295  0.00  0.00     0.101 C 
ATOM      8  C   UNL d   1      51.723  34.678  52.826  0.00  0.00     0.019 A 
ATOM      9  C   UNL d   1      51.551  33.370  53.362  0.00  0.00     0.099 A 
ATOM     10  C   UNL d   1      50.922  34.735  52.672  0.00  0.00     0.002 A 
ATOM     11  C   UNL d   1      50.424  34.091  52.868  0.00  0.00     0.002 A 
ATOM     12  C   UNL d   1      50.740  33.407  53.214  0.00  0.00     0.021 A 
ATOM     13  N   UNL d   1      52.033  32.775  53.697  0.00  0.00    -0.226 NA
ENDBRANCH   1   4
BRANCH   1  14
ATOM     14  C   UNL d   1      53.759  31.990  53.561  0.00  0.00     0.208 C 
ATOM     15  O   UNL d   1      54.232  32.155  52.910  0.00  0.00    -0.286 OA
BRANCH  14  16
ATOM     16  C   UNL d   1      53.605  31.214  53.778  0.00  0.00     0.042 A 
ATOM     17  C   UNL d   1      53.212  30.706  53.266  0.00  0.00     0.029 A 
ATOM     18  C   UNL d   1      53.058  29.935  53.482  0.00  0.00     0.116 A 
ATOM     19  C   UNL d   1      53.293  29.651  54.216  0.00  0.00     0.116 A 
ATOM     20  C   UNL d   1      53.688  30.160  54.732  0.00  0.00     0.026 A 
ATOM     21  C   UNL d   1      53.841  30.931  54.516  0.00  0.00     0.005 A 
BRANCH  18  22
ATOM     22  O   UNL d   1      52.667  29.450  52.955  0.00  0.00    -0.326 OA
ATOM     23  C   UNL d   1      52.730  29.573  52.128  0.00  0.00     0.181 C 
ENDBRANCH  18  22
BRANCH  19  24
ATOM     24  O   UNL d   1      53.140  28.884  54.431  0.00  0.00    -0.326 OA
ATOM     25  C   UNL d   1      53.316  28.622  55.202  0.00  0.00     0.181 C 
ENDBRANCH  19  24
ENDBRANCH  14  16
ENDBRANCH   1  14
TORSDOF 5
ENDMDL
MODEL 4
REMARK VINA RESULT:      -7.0      2.623      3.517
REMARK  5 active torsions:
REMARK  status: ('A' for Active; 'I' for Inactive)
REMARK    1  A    between atoms: C_2  and  C_1 
REMARK    2  A    between atoms: C_5  and  C_2 
REMARK    3  A    between atoms: C_9  and  C_5 
REMARK    4  A    between atoms: O_18  and  C_12 
REMARK    5  A    between atoms: O_19  and  C_14 
ROOT
ATOM      1  C   UNL d   1      52.395  33.647  53.251  0.00  0.00     0.141 C 
ATOM      2  C   UNL d   1      52.592  34.115  53.905  0.00  0.00     0.107 C 
ATOM      3  N   UNL d   1      52.796  34.586  54.575  0.00  0.00    -0.191 NA
ENDROOT
BRANCH   1   4
ATOM      4  C   UNL d   1      52.574  32.851  53.245  0.00  0.00     0.161 A 
ATOM      5  N   UNL d   1      53.351  32.534  53.319  0.00  0.00    -0.287 N 
ATOM      6  C   UNL d   1      53.281  31.700  53.285  0.00  0.00     0.083 A 
ATOM      7  C   UNL d   1      54.040  32.966  53.408  0.00  0.00     0.101 C 
ATOM      8  C   UNL d   1      53.822  31.093  53.324  0.00  0.00     0.019 A 
ATOM      9  C   UNL d   1      52.470  31.518  53.191  0.00  0.00     0.099 A 
ATOM     10  C   UNL d   1      53.594  30.309  53.274  0.00  0.00     0.002 A 
ATOM     11  C   UNL d   1      52.783  30.127  53.180  0.00  0.00     0.002 A 
ATOM     12  C   UNL d   1      52.219  30.733  53.139  0.00  0.00     0.021 A 
ATOM     13  N   UNL d   1      52.053  32.243  53.169  0.00  0.00    -0.226 NA
ENDBRANCH   1   4
BRANCH   1  14
ATOM     14  C   UNL d   1      52.016  33.995  52.606  0.00  0.00     0.208 C 
ATOM     15  O   UNL d   1      52.426  34.076  51.899  0.00  0.00    -0.286 OA
BRANCH  14  16
ATOM     16  C   UNL d   1      51.241  34.256  52.671  0.00  0.00     0.042 A 
ATOM     17  C   UNL d   1      50.701  34.118  52.067  0.00  0.00     0.029 A 
ATOM     18  C   UNL d   1      49.931  34.378  52.132  0.00  0.00     0.116 A 
ATOM     19  C   UNL d   1      49.680  34.783  52.802  0.00  0.00     0.116 A 
ATOM     20  C   UNL d   1      50.221  34.922  53.409  0.00  0.00     0.026 A 
ATOM     21  C   UNL d   1      50.991  34.663  53.344  0.00  0.00     0.005 A 
BRANCH  18  22
ATOM     22  O   UNL d   1      49.413  34.229  51.519  0.00  0.00    -0.326 OA
ATOM     23  C   UNL d   1      49.643  34.350  50.722  0.00  0.00     0.181 C 
ENDBRANCH  18  22
BRANCH  19  24
ATOM     24  O   UNL d   1      48.914  35.041  52.866  0.00  0.00    -0.326 OA
ATOM     25  C   UNL d   1      48.710  35.612  53.437  0.00  0.00     0.181 C 
ENDBRANCH  19  24
ENDBRANCH  14  16
ENDBRANCH   1  14
TORSDOF 5
ENDMDL
MODEL 5
REMARK VINA RESULT:      -6.9      2.773      4.673
REMARK  5 active torsions:
REMARK  status: ('A' for Active; 'I' for Inactive)
REMARK    1  A    between atoms: C_2  and  C_1 
REMARK    2  A    between atoms: C_5  and  C_2 
REMARK    3  A    between atoms: C_9  and  C_5 
REMARK    4  A    between atoms: O_18  and  C_12 
REMARK    5  A    between atoms: O_19  and  C_14 
ROOT
ATOM      1  C   UNL d   1      51.057  33.914  52.899  0.00  0.00     0.141 C 
ATOM      2  C   UNL d   1      51.020  33.108  53.086  0.00  0.00     0.107 C 
ATOM      3  N   UNL d   1      50.974  32.288  53.276  0.00  0.00    -0.191 NA
ENDROOT
BRANCH   1   4
ATOM      4  C   UNL d   1      50.374  34.358  52.849  0.00  0.00     0.161 A 
ATOM      5  N   UNL d   1      49.881  34.405  52.167  0.00  0.00    -0.287 N 
ATOM      6  C   UNL d   1      49.246  34.917  52.356  0.00  0.00     0.083 A 
ATOM      7  C   UNL d   1      50.007  34.020  51.456  0.00  0.00     0.101 C 
ATOM      8  C   UNL d   1      48.599  35.181  51.939  0.00  0.00     0.019 A 
ATOM      9  C   UNL d   1      49.356  35.174  53.145  0.00  0.00     0.099 A 
ATOM     10  C   UNL d   1      48.052  35.692  52.269  0.00  0.00     0.002 A 
ATOM     11  C   UNL d   1      48.162  35.949  53.058  0.00  0.00     0.002 A 
ATOM     12  C   UNL d   1      48.816  35.690  53.496  0.00  0.00     0.021 A 
ATOM     13  N   UNL d   1      50.057  34.817  53.428  0.00  0.00    -0.226 NA
ENDBRANCH   1   4
BRANCH   1  14
ATOM     14  C   UNL d   1      51.792  34.263  52.764  0.00  0.00     0.208 C 
ATOM     15  O   UNL d   1      51.923  34.652  52.053  0.00  0.00    -0.286 OA
BRANCH  14  16
ATOM     16  C   UNL d   1      52.383  34.220  53.331  0.00  0.00     0.042 A 
ATOM     17  C   UNL d   1      52.497  34.836  53.864  0.00  0.00     0.029 A 
ATOM     18  C   UNL d   1      53.084  34.794  54.428  0.00  0.00     0.116 A 
ATOM     19  C   UNL d   1      53.573  34.135  54.475  0.00  0.00     0.116 A 
ATOM     20  C   UNL d   1      53.460  33.516  53.942  0.00  0.00     0.026 A 
ATOM     21  C   UNL d   1      52.873  33.558  53.377  0.00  0.00     0.005 A 
BRANCH  18  22
ATOM     22  O   UNL d   1      53.177  35.418  54.945  0.00  0.00    -0.326 OA
ATOM     23  C   UNL d   1      52.985  36.201  54.714  0.00  0.00     0.181 C 
ENDBRANCH  18  22
BRANCH  19  24
ATOM     24  O   UNL d   1      54.157  34.093  55.036  0.00  0.00    -0.326 OA
ATOM     25  C   UNL d   1      54.577  33.383  55.151  0.00  0.00     0.181 C 
ENDBRANCH  19  24
ENDBRANCH  14  16
ENDBRANCH   1  14
TORSDOF 5
ENDMDL
MODEL 6
REMARK VINA RESULT:      -6.5      1.309      2.143
REMARK  5 active torsions:
REMARK  status: ('A' for Active; 'I' for Inactive)
REMARK    1  A    between atoms: C_2  and  C_1 
REMARK    2  A    between atoms: C_5  and  C_2 
REMARK    3  A    between atoms: C_9  and  C_5 
REMARK    4  A    between atoms: O_18  and  C_12 
REMARK    5  A    between atoms: O_19  and  C_14 
ROOT
ATOM      1  C   UNL d   1      53.924  32.668  53.880  0.00  0.00     0.141 C 
ATOM      2  C   UNL d   1      54.314  32.964  54.548  0.00  0.00     0.107 C 
ATOM      3  N   UNL d   1      54.711  33.259  55.232  0.00  0.00    -0.191 NA
ENDROOT
BRANCH   1   4
ATOM      4  C   UNL d   1      53.724  31.878  53.836  0.00  0.00     0.161 A 
ATOM      5  N   UNL d   1      53.605  31.376  54.502  0.00  0.00    -0.287 N 
ATOM      6  C   UNL d   1      53.410  30.617  54.207  0.00  0.00     0.083 A 
ATOM      7  C   UNL d   1      53.669  31.596  55.288  0.00  0.00     0.101 C 
ATOM      8  C   UNL d   1      53.235  29.907  54.565  0.00  0.00     0.019 A 
ATOM      9  C   UNL d   1      53.413  30.663  53.371  0.00  0.00     0.099 A 
ATOM     10  C   UNL d   1      53.061  29.237  54.130  0.00  0.00     0.002 A 
ATOM     11  C   UNL d   1      53.063  29.282  53.294  0.00  0.00     0.002 A 
ATOM     12  C   UNL d   1      53.240  29.998  52.915  0.00  0.00     0.021 A 
ATOM     13  N   UNL d   1      53.609  31.449  53.166  0.00  0.00    -0.226 NA
ENDBRANCH   1   4
BRANCH   1  14
ATOM     14  C   UNL d   1      53.741  33.181  53.261  0.00  0.00     0.208 C 
ATOM     15  O   UNL d   1      54.267  33.252  52.634  0.00  0.00    -0.286 OA
BRANCH  14  16
ATOM     16  C   UNL d   1      53.043  33.613  53.271  0.00  0.00     0.042 A 
ATOM     17  C   UNL d   1      53.004  34.335  53.660  0.00  0.00     0.029 A 
ATOM     18  C   UNL d   1      52.311  34.764  53.671  0.00  0.00     0.116 A 
ATOM     19  C   UNL d   1      51.638  34.483  53.293  0.00  0.00     0.116 A 
ATOM     20  C   UNL d   1      51.676  33.757  52.901  0.00  0.00     0.026 A 
ATOM     21  C   UNL d   1      52.369  33.328  52.891  0.00  0.00     0.005 A 
BRANCH  18  22
ATOM     22  O   UNL d   1      52.298  35.479  54.064  0.00  0.00    -0.326 OA
ATOM     23  C   UNL d   1      52.990  35.787  54.423  0.00  0.00     0.181 C 
ENDBRANCH  18  22
BRANCH  19  24
ATOM     24  O   UNL d   1      50.949  34.910  53.303  0.00  0.00    -0.326 OA
ATOM     25  C   UNL d   1      50.264  34.609  52.936  0.00  0.00     0.181 C 
ENDBRANCH  19  24
ENDBRANCH  14  16
ENDBRANCH   1  14
TORSDOF 5
ENDMDL
MODEL 7
REMARK VINA RESULT:      -6.0      2.663      4.766
REMARK  5 active torsions:
REMARK  status: ('A' for Active; 'I' for Inactive)
REMARK    1  A    between atoms: C_2  and  C_1 
REMARK    2  A    between atoms: C_5  and  C_2 
REMARK    3  A    between atoms: C_9  and  C_5 
REMARK    4  A    between atoms: O_18  and  C_12 
REMARK    5  A    between atoms: O_19  and  C_14 
ROOT
ATOM      1  C   UNL d   1      51.515  34.082  52.992  0.00  0.00     0.141 C 
ATOM      2  C   UNL d   1      52.169  34.589  52.946  0.00  0.00     0.107 C 
ATOM      3  N   UNL d   1      52.831  35.109  52.894  0.00  0.00    -0.191 NA
ENDROOT
BRANCH   1   4
ATOM      4  C   UNL d   1      50.859  34.213  52.525  0.00  0.00     0.161 A 
ATOM      5  N   UNL d   1      50.167  34.624  52.773  0.00  0.00    -0.287 N 
ATOM      6  C   UNL d   1      49.637  34.630  52.125  0.00  0.00     0.083 A 
ATOM      7  C   UNL d   1      50.043  34.953  53.512  0.00  0.00     0.101 C 
ATOM      8  C   UNL d   1      48.890  34.936  52.018  0.00  0.00     0.019 A 
ATOM      9  C   UNL d   1      50.008  34.226  51.492  0.00  0.00     0.099 A 
ATOM     10  C   UNL d   1      48.491  34.859  51.308  0.00  0.00     0.002 A 
ATOM     11  C   UNL d   1      48.861  34.455  50.675  0.00  0.00     0.002 A 
ATOM     12  C   UNL d   1      49.622  34.138  50.768  0.00  0.00     0.021 A 
ATOM     13  N   UNL d   1      50.759  33.978  51.761  0.00  0.00    -0.226 NA
ENDBRANCH   1   4
BRANCH   1  14
ATOM     14  C   UNL d   1      51.535  33.445  53.515  0.00  0.00     0.208 C 
ATOM     15  O   UNL d   1      50.962  33.394  54.102  0.00  0.00    -0.286 OA
BRANCH  14  16
ATOM     16  C   UNL d   1      52.118  32.872  53.450  0.00  0.00     0.042 A 
ATOM     17  C   UNL d   1      52.814  32.931  53.882  0.00  0.00     0.029 A 
ATOM     18  C   UNL d   1      53.393  32.361  53.817  0.00  0.00     0.116 A 
ATOM     19  C   UNL d   1      53.292  31.716  53.318  0.00  0.00     0.116 A 
ATOM     20  C   UNL d   1      52.593  31.655  52.883  0.00  0.00     0.026 A 
ATOM     21  C   UNL d   1      52.014  32.225  52.948  0.00  0.00     0.005 A 
BRANCH  18  22
ATOM     22  O   UNL d   1      54.075  32.442  54.257  0.00  0.00    -0.326 OA
ATOM     23  C   UNL d   1      54.042  32.645  55.070  0.00  0.00     0.181 C 
ENDBRANCH  18  22
BRANCH  19  24
ATOM     24  O   UNL d   1      53.868  31.149  53.253  0.00  0.00    -0.326 OA
ATOM     25  C   UNL d   1      53.670  30.375  53.018  0.00  0.00     0.181 C 
ENDBRANCH  19  24
ENDBRANCH  14  16
ENDBRANCH   1  14
TORSDOF 5
ENDMDL
