MODEL 1
REMARK VINA RESULT:      -5.6      0.000      0.000
REMARK  6 active torsions:
REMARK  status: ('A' for Active; 'I' for Inactive)
REMARK    1  A    between atoms: N_9  and  C_1 
REMARK    2  A    between atoms: C_4  and  S_13 
REMARK    3  A    between atoms: C_14  and  C_8 
REMARK       I    between atoms: C_12  and  N_9 
REMARK    4  A    between atoms: C_17  and  C_10 
REMARK    5  A    between atoms: C_16  and  C_12 
REMARK    6  A    between atoms: S_13  and  C_16 
ROOT
ATOM      1  S   UNL d   1     -41.289-122.610 -51.751  0.00  0.00    -0.043 SA
ENDROOT
BRANCH   1   2
ATOM      2  C   UNL d   1     -41.347-122.793 -52.559  0.00  0.00     0.195 A 
ATOM      3  N   UNL d   1     -41.621-122.294 -53.153  0.00  0.00    -0.220 NA
ATOM      4  C   UNL d   1     -41.581-122.701 -53.858  0.00  0.00     0.103 A 
ATOM      5  C   UNL d   1     -41.285-123.448 -53.708  0.00  0.00     0.120 A 
ATOM      6  N   UNL d   1     -41.143-123.500 -52.907  0.00  0.00    -0.218 NA
BRANCH   4   7
ATOM      7  C   UNL d   1     -41.812-122.373 -54.577  0.00  0.00     0.019 A 
ATOM      8  C   UNL d   1     -41.247-122.219 -55.162  0.00  0.00     0.002 A 
ATOM      9  C   UNL d   1     -41.493-121.889 -55.879  0.00  0.00     0.000 A 
ATOM     10  C   UNL d   1     -42.289-121.719 -56.005  0.00  0.00     0.000 A 
ATOM     11  C   UNL d   1     -42.840-121.872 -55.428  0.00  0.00     0.000 A 
ATOM     12  C   UNL d   1     -42.597-122.205 -54.702  0.00  0.00     0.002 A 
ENDBRANCH   4   7
ENDBRANCH   1   2
BRANCH   1  13
ATOM     13  C   UNL d   1     -41.276-123.222 -51.195  0.00  0.00     0.101 C 
BRANCH  13  14
ATOM     14  C   UNL d   1     -41.444-123.068 -50.401  0.00  0.00     0.288 C 
ATOM     15  N   UNL d   1     -41.926-123.578 -49.964  0.00  0.00    -0.181 NA
ATOM     16  O   UNL d   1     -41.123-122.390 -50.038  0.00  0.00    -0.265 OA
BRANCH  15  17
ATOM     17  C   UNL d   1     -42.092-123.420 -49.167  0.00  0.00     0.219 A 
ATOM     18  S   UNL d   1     -41.680-123.817 -48.573  0.00  0.00    -0.026 SA
ATOM     19  C   UNL d   1     -41.963-123.548 -47.841  0.00  0.00     0.135 A 
ATOM     20  N   UNL d   1     -42.549-122.985 -47.988  0.00  0.00    -0.139 NA
ATOM     21  N   UNL d   1     -42.631-122.904 -48.805  0.00  0.00    -0.121 NA
BRANCH  19  22
ATOM     22  C   UNL d   1     -41.708-123.793 -47.099  0.00  0.00     0.028 C 
ATOM     23  C   UNL d   1     -41.176-123.323 -46.676  0.00  0.00     0.002 C 
ENDBRANCH  19  22
ENDBRANCH  15  17
ENDBRANCH  13  14
ENDBRANCH   1  13
TORSDOF 6
ENDMDL
MODEL 2
REMARK VINA RESULT:      -5.3      1.123      6.050
REMARK  6 active torsions:
REMARK  status: ('A' for Active; 'I' for Inactive)
REMARK    1  A    between atoms: N_9  and  C_1 
REMARK    2  A    between atoms: C_4  and  S_13 
REMARK    3  A    between atoms: C_14  and  C_8 
REMARK       I    between atoms: C_12  and  N_9 
REMARK    4  A    between atoms: C_17  and  C_10 
REMARK    5  A    between atoms: C_16  and  C_12 
REMARK    6  A    between atoms: S_13  and  C_16 
ROOT
ATOM      1  S   UNL d   1     -41.729-122.341 -50.771  0.00  0.00    -0.043 SA
ENDROOT
BRANCH   1   2
ATOM      2  C   UNL d   1     -41.650-122.845 -50.114  0.00  0.00     0.195 A 
ATOM      3  N   UNL d   1     -42.090-122.812 -49.420  0.00  0.00    -0.220 NA
ATOM      4  C   UNL d   1     -41.827-123.409 -48.932  0.00  0.00     0.103 A 
ATOM      5  C   UNL d   1     -41.228-123.812 -49.315  0.00  0.00     0.120 A 
ATOM      6  N   UNL d   1     -41.123-123.461 -50.043  0.00  0.00    -0.218 NA
BRANCH   4   7
ATOM      7  C   UNL d   1     -42.142-123.546 -48.183  0.00  0.00     0.019 A 
ATOM      8  C   UNL d   1     -42.957-123.663 -48.092  0.00  0.00     0.002 A 
ATOM      9  C   UNL d   1     -43.259-123.799 -47.335  0.00  0.00     0.000 A 
ATOM     10  C   UNL d   1     -42.754-123.817 -46.685  0.00  0.00     0.000 A 
ATOM     11  C   UNL d   1     -41.956-123.702 -46.779  0.00  0.00     0.000 A 
ATOM     12  C   UNL d   1     -41.644-123.564 -47.541  0.00  0.00     0.002 A 
ENDBRANCH   4   7
ENDBRANCH   1   2
BRANCH   1  13
ATOM     13  C   UNL d   1     -41.286-122.488 -51.453  0.00  0.00     0.101 C 
BRANCH  13  14
ATOM     14  C   UNL d   1     -41.462-122.097 -52.158  0.00  0.00     0.288 C 
ATOM     15  N   UNL d   1     -41.714-122.517 -52.823  0.00  0.00    -0.181 NA
ATOM     16  O   UNL d   1     -41.386-121.267 -52.197  0.00  0.00    -0.265 OA
BRANCH  15  17
ATOM     17  C   UNL d   1     -41.891-122.120 -53.531  0.00  0.00     0.219 A 
ATOM     18  S   UNL d   1     -41.798-122.506 -54.254  0.00  0.00    -0.026 SA
ATOM     19  C   UNL d   1     -42.015-121.976 -54.855  0.00  0.00     0.135 A 
ATOM     20  N   UNL d   1     -42.240-121.266 -54.498  0.00  0.00    -0.139 NA
ATOM     21  N   UNL d   1     -42.164-121.352 -53.682  0.00  0.00    -0.121 NA
BRANCH  19  22
ATOM     22  C   UNL d   1     -42.009-122.126 -55.663  0.00  0.00     0.028 C 
ATOM     23  C   UNL d   1     -42.722-122.273 -56.055  0.00  0.00     0.002 C 
ENDBRANCH  19  22
ENDBRANCH  15  17
ENDBRANCH  13  14
ENDBRANCH   1  13
TORSDOF 6
ENDMDL
MODEL 3
REMARK VINA RESULT:      -3.2      0.999      1.185
REMARK  6 active torsions:
REMARK  status: ('A' for Active; 'I' for Inactive)
REMARK    1  A    between atoms: N_9  and  C_1 
REMARK    2  A    between atoms: C_4  and  S_13 
REMARK    3  A    between atoms: C_14  and  C_8 
REMARK       I    between atoms: C_12  and  N_9 
REMARK    4  A    between atoms: C_17  and  C_10 
REMARK    5  A    between atoms: C_16  and  C_12 
REMARK    6  A    between atoms: S_13  and  C_16 
ROOT
ATOM      1  S   UNL d   1     -41.837-122.481 -51.410  0.00  0.00    -0.043 SA
ENDROOT
BRANCH   1   2
ATOM      2  C   UNL d   1     -41.723-122.114 -52.147  0.00  0.00     0.195 A 
ATOM      3  N   UNL d   1     -41.876-122.444 -52.884  0.00  0.00    -0.220 NA
ATOM      4  C   UNL d   1     -41.684-121.889 -53.449  0.00  0.00     0.103 A 
ATOM      5  C   UNL d   1     -41.412-121.217 -53.070  0.00  0.00     0.120 A 
ATOM      6  N   UNL d   1     -41.438-121.361 -52.268  0.00  0.00    -0.218 NA
BRANCH   4   7
ATOM      7  C   UNL d   1     -41.766-122.027 -54.257  0.00  0.00     0.019 A 
ATOM      8  C   UNL d   1     -41.280-122.580 -54.635  0.00  0.00     0.002 A 
ATOM      9  C   UNL d   1     -41.373-122.708 -55.446  0.00  0.00     0.000 A 
ATOM     10  C   UNL d   1     -41.943-122.288 -55.868  0.00  0.00     0.000 A 
ATOM     11  C   UNL d   1     -42.418-121.746 -55.493  0.00  0.00     0.000 A 
ATOM     12  C   UNL d   1     -42.328-121.613 -54.675  0.00  0.00     0.002 A 
ENDBRANCH   4   7
ENDBRANCH   1   2
BRANCH   1  13
ATOM     13  C   UNL d   1     -41.209-122.524 -50.874  0.00  0.00     0.101 C 
BRANCH  13  14
ATOM     14  C   UNL d   1     -41.289-122.946 -50.170  0.00  0.00     0.288 C 
ATOM     15  N   UNL d   1     -41.486-122.561 -49.466  0.00  0.00    -0.181 NA
ATOM     16  O   UNL d   1     -41.170-123.771 -50.170  0.00  0.00    -0.265 OA
BRANCH  15  17
ATOM     17  C   UNL d   1     -41.567-122.989 -48.759  0.00  0.00     0.219 A 
ATOM     18  S   UNL d   1     -42.181-122.812 -48.238  0.00  0.00    -0.026 SA
ATOM     19  C   UNL d   1     -42.121-123.325 -47.588  0.00  0.00     0.135 A 
ATOM     20  N   UNL d   1     -41.469-123.816 -47.713  0.00  0.00    -0.139 NA
ATOM     21  N   UNL d   1     -41.125-123.611 -48.434  0.00  0.00    -0.121 NA
BRANCH  19  22
ATOM     22  C   UNL d   1     -42.619-123.346 -46.934  0.00  0.00     0.028 C 
ATOM     23  C   UNL d   1     -43.327-123.770 -46.976  0.00  0.00     0.002 C 
ENDBRANCH  19  22
ENDBRANCH  15  17
ENDBRANCH  13  14
ENDBRANCH   1  13
TORSDOF 6
ENDMDL
