MODEL 1
REMARK VINA RESULT:      16.7      0.000      0.000
REMARK  4 active torsions:
REMARK  status: ('A' for Active; 'I' for Inactive)
REMARK    1  A    between atoms: N_2  and  S_1 
REMARK    2  A    between atoms: C_3  and  S_1 
REMARK    3  A    between atoms: C_18  and  N_6 
REMARK    4  A    between atoms: C_19  and  C_18 
ROOT
ATOM      1  N   UNL d   1      45.836 -16.108  44.328  0.00  0.00    -0.226 N 
ATOM      2  N   UNL d   1      45.542 -14.507  44.665  0.00  0.00    -0.300 N 
ATOM      3  C   UNL d   1      46.476 -15.581  44.447  0.00  0.00     0.111 A 
ATOM      4  C   UNL d   1      45.077 -15.824  44.379  0.00  0.00     0.111 A 
ATOM      5  C   UNL d   1      44.929 -15.021  44.548  0.00  0.00     0.100 A 
ATOM      6  C   UNL d   1      46.329 -14.778  44.616  0.00  0.00     0.100 A 
ENDROOT
BRANCH   1   7
ATOM      7  S   UNL d   1      45.982 -16.902  44.160  0.00  0.00     0.272 S 
ATOM      8  O   UNL d   1      45.761 -16.777  43.371  0.00  0.00    -0.200 OA
ATOM      9  O   UNL d   1      46.205 -17.028  44.954  0.00  0.00    -0.200 OA
BRANCH   7  10
ATOM     10  C   UNL d   1      46.129 -17.701  43.992  0.00  0.00     0.106 A 
ATOM     11  C   UNL d   1      46.207 -17.956  43.227  0.00  0.00     0.040 A 
ATOM     12  C   UNL d   1      46.351 -18.734  43.064  0.00  0.00     0.123 A 
ATOM     13  O   UNL d   1      46.429 -18.979  42.266  0.00  0.00    -0.301 OA
ATOM     14  C   UNL d   1      46.418 -19.274  43.661  0.00  0.00     0.123 A 
ATOM     15  C   UNL d   1      46.576 -19.777  42.098  0.00  0.00     0.149 A 
ATOM     16  C   UNL d   1      46.643 -20.327  42.728  0.00  0.00     0.149 A 
ATOM     17  O   UNL d   1      46.565 -20.073  43.493  0.00  0.00    -0.301 OA
ATOM     18  C   UNL d   1      46.344 -19.049  44.433  0.00  0.00     0.028 A 
ATOM     19  C   UNL d   1      46.197 -18.251  44.618  0.00  0.00     0.015 A 
ENDBRANCH   7  10
ENDBRANCH   1   7
BRANCH   2  20
ATOM     20  C   UNL d   1      45.394 -13.705  44.834  0.00  0.00     0.080 C 
BRANCH  20  21
ATOM     21  C   UNL d   1      45.287 -13.172  44.235  0.00  0.00     0.018 A 
ATOM     22  C   UNL d   1      45.927 -12.699  43.975  0.00  0.00     0.002 A 
ATOM     23  C   UNL d   1      45.820 -12.166  43.376  0.00  0.00     0.000 A 
ATOM     24  C   UNL d   1      45.082 -12.082  43.017  0.00  0.00     0.000 A 
ATOM     25  C   UNL d   1      44.448 -12.530  43.254  0.00  0.00     0.000 A 
ATOM     26  C   UNL d   1      44.549 -13.087  43.876  0.00  0.00     0.002 A 
ENDBRANCH  20  21
ENDBRANCH   2  20
TORSDOF 4
ENDMDL
