MODEL 1
REMARK VINA RESULT:      -1.5      0.000      0.000
REMARK  9 active torsions:
REMARK  status: ('A' for Active; 'I' for Inactive)
REMARK    1  A    between atoms: S_3  and  C_1 
REMARK    2  A    between atoms: C_7  and  S_3 
REMARK    3  A    between atoms: N_8  and  C_4 
REMARK    4  A    between atoms: C_19  and  N_8 
REMARK    5  A    between atoms: C_20  and  N_8 
REMARK    6  A    between atoms: O_17  and  C_22 
REMARK    7  A    between atoms: O_18  and  C_21 
REMARK    8  A    between atoms: C_21  and  C_19 
REMARK    9  A    between atoms: C_22  and  C_20 
ROOT
ATOM      1  C   UNL d   1      32.590  22.646 -20.925  0.00  0.00     0.187 A 
ATOM      2  N   UNL d   1      32.924  22.026 -21.331  0.00  0.00    -0.209 NA
ATOM      3  C   UNL d   1      32.659  22.075 -22.115  0.00  0.00     0.181 A 
ATOM      4  S   UNL d   1      32.166  22.727 -22.176  0.00  0.00    -0.036 SA
ATOM      5  C   UNL d   1      32.126  23.077 -21.438  0.00  0.00     0.118 A 
ATOM      6 CL   UNL d   1      31.794  23.702 -21.015  0.00  0.00    -0.073 Cl
ENDROOT
BRANCH   1   7
ATOM      7  S   UNL d   1      32.703  22.810 -20.127  0.00  0.00     0.228 S 
ATOM      8  O   UNL d   1      32.348  22.342 -19.558  0.00  0.00    -0.216 OA
ATOM      9  O   UNL d   1      33.177  23.446 -19.901  0.00  0.00    -0.216 OA
BRANCH   7  10
ATOM     10  C   UNL d   1      32.743  22.875 -19.299  0.00  0.00     0.089 A 
ATOM     11  C   UNL d   1      32.335  23.493 -18.914  0.00  0.00     0.011 A 
ATOM     12  C   UNL d   1      32.376  23.555 -18.090  0.00  0.00     0.001 A 
ATOM     13  C   UNL d   1      32.818  23.010 -17.651  0.00  0.00     0.000 A 
ATOM     14  C   UNL d   1      33.227  22.390 -18.039  0.00  0.00     0.001 A 
ATOM     15  C   UNL d   1      32.861  23.070 -16.835  0.00  0.00     0.000 C 
ATOM     16  C   UNL d   1      33.185  22.330 -18.860  0.00  0.00     0.011 A 
ENDBRANCH   7  10
ENDBRANCH   1   7
BRANCH   3  17
ATOM     17  N   UNL d   1      32.989  21.456 -22.534  0.00  0.00    -0.280 N 
BRANCH  17  18
ATOM     18  C   UNL d   1      33.234  21.568 -23.311  0.00  0.00     0.108 C 
BRANCH  18  19
ATOM     19  C   UNL d   1      33.123  22.299 -23.678  0.00  0.00     0.135 C 
BRANCH  19  20
ATOM     20  O   UNL d   1      33.103  22.350 -24.500  0.00  0.00    -0.325 OA
ATOM     21  C   UNL d   1      32.684  22.958 -24.866  0.00  0.00     0.182 C 
ENDBRANCH  19  20
ENDBRANCH  18  19
ENDBRANCH  17  18
BRANCH  17  22
ATOM     22  C   UNL d   1      33.230  20.670 -22.571  0.00  0.00     0.108 C 
BRANCH  22  23
ATOM     23  C   UNL d   1      32.675  20.073 -22.619  0.00  0.00     0.135 C 
BRANCH  23  24
ATOM     24  O   UNL d   1      32.871  19.355 -22.974  0.00  0.00    -0.325 OA
ATOM     25  C   UNL d   1      32.509  18.662 -22.731  0.00  0.00     0.182 C 
ENDBRANCH  23  24
ENDBRANCH  22  23
ENDBRANCH  17  22
ENDBRANCH   3  17
TORSDOF 9
ENDMDL
MODEL 2
REMARK VINA RESULT:      -1.1      2.179      5.334
REMARK  9 active torsions:
REMARK  status: ('A' for Active; 'I' for Inactive)
REMARK    1  A    between atoms: S_3  and  C_1 
REMARK    2  A    between atoms: C_7  and  S_3 
REMARK    3  A    between atoms: N_8  and  C_4 
REMARK    4  A    between atoms: C_19  and  N_8 
REMARK    5  A    between atoms: C_20  and  N_8 
REMARK    6  A    between atoms: O_17  and  C_22 
REMARK    7  A    between atoms: O_18  and  C_21 
REMARK    8  A    between atoms: C_21  and  C_19 
REMARK    9  A    between atoms: C_22  and  C_20 
ROOT
ATOM      1  C   UNL d   1      32.868  19.452 -23.550  0.00  0.00     0.187 A 
ATOM      2  N   UNL d   1      32.856  19.872 -22.854  0.00  0.00    -0.209 NA
ATOM      3  C   UNL d   1      33.089  20.648 -23.031  0.00  0.00     0.181 A 
ATOM      4  S   UNL d   1      33.241  20.689 -23.835  0.00  0.00    -0.036 SA
ATOM      5  C   UNL d   1      33.103  19.948 -24.152  0.00  0.00     0.118 A 
ATOM      6 CL   UNL d   1      33.112  19.511 -24.851  0.00  0.00    -0.073 Cl
ENDROOT
BRANCH   1   7
ATOM      7  S   UNL d   1      32.675  18.656 -23.630  0.00  0.00     0.228 S 
ATOM      8  O   UNL d   1      32.544  18.197 -22.966  0.00  0.00    -0.216 OA
ATOM      9  O   UNL d   1      32.614  18.322 -24.381  0.00  0.00    -0.216 OA
BRANCH   7  10
ATOM     10  C   UNL d   1      32.476  17.851 -23.584  0.00  0.00     0.089 A 
ATOM     11  C   UNL d   1      31.817  17.564 -24.008  0.00  0.00     0.011 A 
ATOM     12  C   UNL d   1      31.620  16.761 -23.961  0.00  0.00     0.001 A 
ATOM     13  C   UNL d   1      32.073  16.248 -23.497  0.00  0.00     0.000 A 
ATOM     14  C   UNL d   1      32.735  16.536 -23.072  0.00  0.00     0.001 A 
ATOM     15  C   UNL d   1      31.881  15.453 -23.448  0.00  0.00     0.000 C 
ATOM     16  C   UNL d   1      32.929  17.336 -23.120  0.00  0.00     0.011 A 
ENDBRANCH   7  10
ENDBRANCH   1   7
BRANCH   3  17
ATOM     17  N   UNL d   1      33.080  21.080 -22.338  0.00  0.00    -0.280 N 
BRANCH  17  18
ATOM     18  C   UNL d   1      32.784  21.848 -22.336  0.00  0.00     0.108 C 
BRANCH  18  19
ATOM     19  C   UNL d   1      33.241  22.468 -22.633  0.00  0.00     0.135 C 
BRANCH  19  20
ATOM     20  O   UNL d   1      32.888  23.188 -22.819  0.00  0.00    -0.325 OA
ATOM     21  C   UNL d   1      32.859  23.445 -23.603  0.00  0.00     0.182 C 
ENDBRANCH  19  20
ENDBRANCH  18  19
ENDBRANCH  17  18
BRANCH  17  22
ATOM     22  C   UNL d   1      33.241  21.139 -21.533  0.00  0.00     0.108 C 
BRANCH  22  23
ATOM     23  C   UNL d   1      32.668  21.409 -21.020  0.00  0.00     0.135 C 
BRANCH  23  24
ATOM     24  O   UNL d   1      32.828  21.464 -20.213  0.00  0.00    -0.325 OA
ATOM     25  C   UNL d   1      33.005  22.189 -19.875  0.00  0.00     0.182 C 
ENDBRANCH  23  24
ENDBRANCH  22  23
ENDBRANCH  17  22
ENDBRANCH   3  17
TORSDOF 9
ENDMDL
MODEL 3
REMARK VINA RESULT:      -0.4      1.689      4.826
REMARK  9 active torsions:
REMARK  status: ('A' for Active; 'I' for Inactive)
REMARK    1  A    between atoms: S_3  and  C_1 
REMARK    2  A    between atoms: C_7  and  S_3 
REMARK    3  A    between atoms: N_8  and  C_4 
REMARK    4  A    between atoms: C_19  and  N_8 
REMARK    5  A    between atoms: C_20  and  N_8 
REMARK    6  A    between atoms: O_17  and  C_22 
REMARK    7  A    between atoms: O_18  and  C_21 
REMARK    8  A    between atoms: C_21  and  C_19 
REMARK    9  A    between atoms: C_22  and  C_20 
ROOT
ATOM      1  C   UNL d   1      32.935  20.294 -21.751  0.00  0.00     0.187 A 
ATOM      2  N   UNL d   1      32.862  21.095 -21.869  0.00  0.00    -0.209 NA
ATOM      3  C   UNL d   1      33.053  21.467 -21.153  0.00  0.00     0.181 A 
ATOM      4  S   UNL d   1      33.241  20.885 -20.608  0.00  0.00    -0.036 SA
ATOM      5  C   UNL d   1      33.166  20.163 -20.981  0.00  0.00     0.118 A 
ATOM      6 CL   UNL d   1      33.237  19.348 -20.874  0.00  0.00    -0.073 Cl
ENDROOT
BRANCH   1   7
ATOM      7  S   UNL d   1      32.798  19.714 -22.318  0.00  0.00     0.228 S 
ATOM      8  O   UNL d   1      33.017  19.841 -23.096  0.00  0.00    -0.216 OA
ATOM      9  O   UNL d   1      32.438  19.005 -22.101  0.00  0.00    -0.216 OA
BRANCH   7  10
ATOM     10  C   UNL d   1      32.712  19.210 -22.973  0.00  0.00     0.089 A 
ATOM     11  C   UNL d   1      33.241  19.275 -23.615  0.00  0.00     0.011 A 
ATOM     12  C   UNL d   1      33.153  18.771 -24.266  0.00  0.00     0.001 A 
ATOM     13  C   UNL d   1      32.547  18.208 -24.280  0.00  0.00     0.000 A 
ATOM     14  C   UNL d   1      32.017  18.144 -23.635  0.00  0.00     0.001 A 
ATOM     15  C   UNL d   1      32.458  17.708 -24.923  0.00  0.00     0.000 C 
ATOM     16  C   UNL d   1      32.106  18.646 -22.987  0.00  0.00     0.011 A 
ENDBRANCH   7  10
ENDBRANCH   1   7
BRANCH   3  17
ATOM     17  N   UNL d   1      32.983  22.274 -21.260  0.00  0.00    -0.280 N 
BRANCH  17  18
ATOM     18  C   UNL d   1      33.226  22.619 -21.966  0.00  0.00     0.108 C 
BRANCH  18  19
ATOM     19  C   UNL d   1      32.939  23.362 -22.183  0.00  0.00     0.135 C 
BRANCH  19  20
ATOM     20  O   UNL d   1      32.603  23.473 -22.927  0.00  0.00    -0.325 OA
ATOM     21  C   UNL d   1      33.039  23.307 -23.607  0.00  0.00     0.182 C 
ENDBRANCH  19  20
ENDBRANCH  18  19
ENDBRANCH  17  18
BRANCH  17  22
ATOM     22  C   UNL d   1      32.761  23.014 -20.974  0.00  0.00     0.108 C 
BRANCH  22  23
ATOM     23  C   UNL d   1      32.155  23.077 -20.431  0.00  0.00     0.135 C 
BRANCH  23  24
ATOM     24  O   UNL d   1      32.150  23.698 -19.889  0.00  0.00    -0.325 OA
ATOM     25  C   UNL d   1      31.813  23.599 -19.150  0.00  0.00     0.182 C 
ENDBRANCH  23  24
ENDBRANCH  22  23
ENDBRANCH  17  22
ENDBRANCH   3  17
TORSDOF 9
ENDMDL
MODEL 4
REMARK VINA RESULT:       0.8      1.903      2.961
REMARK  9 active torsions:
REMARK  status: ('A' for Active; 'I' for Inactive)
REMARK    1  A    between atoms: S_3  and  C_1 
REMARK    2  A    between atoms: C_7  and  S_3 
REMARK    3  A    between atoms: N_8  and  C_4 
REMARK    4  A    between atoms: C_19  and  N_8 
REMARK    5  A    between atoms: C_20  and  N_8 
REMARK    6  A    between atoms: O_17  and  C_22 
REMARK    7  A    between atoms: O_18  and  C_21 
REMARK    8  A    between atoms: C_21  and  C_19 
REMARK    9  A    between atoms: C_22  and  C_20 
ROOT
ATOM      1  C   UNL d   1      32.969  20.485 -22.301  0.00  0.00     0.187 A 
ATOM      2  N   UNL d   1      32.887  19.679 -22.363  0.00  0.00    -0.209 NA
ATOM      3  C   UNL d   1      32.918  19.489 -23.169  0.00  0.00     0.181 A 
ATOM      4  S   UNL d   1      33.020  20.186 -23.589  0.00  0.00    -0.036 SA
ATOM      5  C   UNL d   1      33.051  20.798 -23.049  0.00  0.00     0.118 A 
ATOM      6 CL   UNL d   1      33.134  21.616 -22.974  0.00  0.00    -0.073 Cl
ENDROOT
BRANCH   1   7
ATOM      7  S   UNL d   1      32.970  20.912 -21.598  0.00  0.00     0.228 S 
ATOM      8  O   UNL d   1      33.070  21.724 -21.611  0.00  0.00    -0.216 OA
ATOM      9  O   UNL d   1      32.869  20.520 -20.880  0.00  0.00    -0.216 OA
BRANCH   7  10
ATOM     10  C   UNL d   1      32.989  21.445 -20.961  0.00  0.00     0.089 A 
ATOM     11  C   UNL d   1      32.774  22.242 -21.084  0.00  0.00     0.011 A 
ATOM     12  C   UNL d   1      32.793  22.771 -20.447  0.00  0.00     0.001 A 
ATOM     13  C   UNL d   1      33.023  22.513 -19.696  0.00  0.00     0.000 A 
ATOM     14  C   UNL d   1      33.238  21.712 -19.574  0.00  0.00     0.001 A 
ATOM     15  C   UNL d   1      33.043  23.034 -19.064  0.00  0.00     0.000 C 
ATOM     16  C   UNL d   1      33.218  21.187 -20.209  0.00  0.00     0.011 A 
ENDBRANCH   7  10
ENDBRANCH   1   7
BRANCH   3  17
ATOM     17  N   UNL d   1      32.836  18.680 -23.244  0.00  0.00    -0.280 N 
BRANCH  17  18
ATOM     18  C   UNL d   1      32.156  18.364 -23.582  0.00  0.00     0.108 C 
BRANCH  18  19
ATOM     19  C   UNL d   1      32.104  18.276 -24.401  0.00  0.00     0.135 C 
BRANCH  19  20
ATOM     20  O   UNL d   1      31.392  18.421 -24.788  0.00  0.00    -0.325 OA
ATOM     21  C   UNL d   1      30.954  17.793 -25.097  0.00  0.00     0.182 C 
ENDBRANCH  19  20
ENDBRANCH  18  19
ENDBRANCH  17  18
BRANCH  17  22
ATOM     22  C   UNL d   1      33.135  17.921 -23.134  0.00  0.00     0.108 C 
BRANCH  22  23
ATOM     23  C   UNL d   1      32.634  17.308 -22.936  0.00  0.00     0.135 C 
BRANCH  23  24
ATOM     24  O   UNL d   1      32.942  16.596 -22.659  0.00  0.00    -0.325 OA
ATOM     25  C   UNL d   1      33.241  16.043 -23.183  0.00  0.00     0.182 C 
ENDBRANCH  23  24
ENDBRANCH  22  23
ENDBRANCH  17  22
ENDBRANCH   3  17
TORSDOF 9
ENDMDL
