MODEL 1
REMARK VINA RESULT:      12.9      0.000      0.000
REMARK  1 active torsions:
REMARK  status: ('A' for Active; 'I' for Inactive)
REMARK    1  A    between atoms: C_5  and  C_1 
ROOT
ATOM      1  C   UNL d   1      59.641  49.679  50.688  0.00  0.00     0.164 A 
ATOM      2  O   UNL d   1      59.357  49.701  49.844  0.00  0.00    -0.301 OA
ATOM      3  C   UNL d   1      58.980  49.661  51.156  0.00  0.00     0.033 A 
ATOM      4  C   UNL d   1      58.308  49.670  50.702  0.00  0.00     0.025 A 
ATOM      5  C   UNL d   1      58.540  49.694  49.896  0.00  0.00     0.100 A 
ATOM      6  C   UNL d   1      57.505  49.659  50.908  0.00  0.00     0.009 A 
ATOM      7  C   UNL d   1      57.964  49.707  49.310  0.00  0.00     0.025 A 
ATOM      8  C   UNL d   1      56.936  49.672  50.308  0.00  0.00     0.035 A 
ATOM      9  C   UNL d   1      57.167  49.696  49.502  0.00  0.00     0.009 A 
ATOM     10 BR   UNL d   1      56.131  49.661  50.514  0.00  0.00    -0.049 Br
ENDROOT
BRANCH   1  11
ATOM     11  C   UNL d   1      60.409  49.676  50.989  0.00  0.00     0.235 C 
ATOM     12  O   UNL d   1      60.548  49.707  51.806  0.00  0.00    -0.642 OA
ATOM     13  O   UNL d   1      61.077  49.641  50.494  0.00  0.00    -0.642 OA
ENDBRANCH   1  11
TORSDOF 1
ENDMDL
MODEL 2
REMARK VINA RESULT:      14.4      1.946      3.207
REMARK  1 active torsions:
REMARK  status: ('A' for Active; 'I' for Inactive)
REMARK    1  A    between atoms: C_5  and  C_1 
ROOT
ATOM      1  C   UNL d   1      57.608  49.679  50.267  0.00  0.00     0.164 A 
ATOM      2  O   UNL d   1      57.853  49.675  51.123  0.00  0.00    -0.301 OA
ATOM      3  C   UNL d   1      58.290  49.688  49.830  0.00  0.00     0.033 A 
ATOM      4  C   UNL d   1      58.940  49.690  50.315  0.00  0.00     0.025 A 
ATOM      5  C   UNL d   1      58.671  49.682  51.110  0.00  0.00     0.100 A 
ATOM      6  C   UNL d   1      59.752  49.699  50.146  0.00  0.00     0.009 A 
ATOM      7  C   UNL d   1      59.219  49.683  51.721  0.00  0.00     0.025 A 
ATOM      8  C   UNL d   1      60.292  49.699  50.772  0.00  0.00     0.035 A 
ATOM      9  C   UNL d   1      60.024  49.691  51.567  0.00  0.00     0.009 A 
ATOM     10 BR   UNL d   1      61.106  49.708  50.604  0.00  0.00    -0.049 Br
ENDROOT
BRANCH   1  11
ATOM     11  C   UNL d   1      56.855  49.674  49.930  0.00  0.00     0.235 C 
ATOM     12  O   UNL d   1      56.754  49.708  49.108  0.00  0.00    -0.642 OA
ATOM     13  O   UNL d   1      56.165  49.637  50.393  0.00  0.00    -0.642 OA
ENDBRANCH   1  11
TORSDOF 1
ENDMDL
MODEL 3
REMARK VINA RESULT:      15.7      1.914      3.123
REMARK  1 active torsions:
REMARK  status: ('A' for Active; 'I' for Inactive)
REMARK    1  A    between atoms: C_5  and  C_1 
ROOT
ATOM      1  C   UNL d   1      58.490  49.701  50.677  0.00  0.00     0.164 A 
ATOM      2  O   UNL d   1      59.177  49.706  50.110  0.00  0.00    -0.301 OA
ATOM      3  C   UNL d   1      58.804  49.694  51.423  0.00  0.00     0.033 A 
ATOM      4  C   UNL d   1      59.614  49.695  51.392  0.00  0.00     0.025 A 
ATOM      5  C   UNL d   1      59.843  49.702  50.585  0.00  0.00     0.100 A 
ATOM      6  C   UNL d   1      60.187  49.690  51.991  0.00  0.00     0.009 A 
ATOM      7  C   UNL d   1      60.642  49.705  50.392  0.00  0.00     0.025 A 
ATOM      8  C   UNL d   1      60.988  49.693  51.782  0.00  0.00     0.035 A 
ATOM      9  C   UNL d   1      61.217  49.700  50.975  0.00  0.00     0.009 A 
ATOM     10 BR   UNL d   1      61.563  49.688  52.382  0.00  0.00    -0.049 Br
ENDROOT
BRANCH   1  11
ATOM     11  C   UNL d   1      57.679  49.702  50.528  0.00  0.00     0.235 C 
ATOM     12  O   UNL d   1      57.129  49.699  51.149  0.00  0.00    -0.642 OA
ATOM     13  O   UNL d   1      57.372  49.705  49.754  0.00  0.00    -0.642 OA
ENDBRANCH   1  11
TORSDOF 1
ENDMDL
