MODEL 1
REMARK VINA RESULT:      81.0      0.000      0.000
REMARK  4 active torsions:
REMARK  status: ('A' for Active; 'I' for Inactive)
REMARK    1  A    between atoms: C_12  and  C_2 
REMARK       I    between atoms: C_3  and  N_8 
REMARK    2  A    between atoms: C_5  and  C_3 
REMARK    3  A    between atoms: C_9  and  C_4 
REMARK    4  A    between atoms: N_8  and  C_13 
ROOT
ATOM      1  C   UNL d   1     -55.306-101.936 -42.156  0.00  0.00     0.018 A 
ATOM      2  C   UNL d   1     -55.579-101.564 -43.738  0.00  0.00     0.085 A 
ATOM      3  C   UNL d   1     -54.719-101.569 -42.602  0.00  0.00     0.003 A 
ATOM      4  C   UNL d   1     -56.041-102.122 -42.499  0.00  0.00     0.003 A 
ATOM      5  C   UNL d   1     -56.173-101.931 -43.298  0.00  0.00     0.019 A 
ATOM      6  C   UNL d   1     -54.852-101.384 -43.388  0.00  0.00     0.019 A 
ENDROOT
BRANCH   1   7
ATOM      7  C   UNL d   1     -55.169-102.125 -41.356  0.00  0.00     0.088 A 
ATOM      8  N   UNL d   1     -55.170-101.600 -40.727  0.00  0.00    -0.239 NA
ATOM      9  C   UNL d   1     -55.010-102.019 -40.040  0.00  0.00     0.111 A 
ATOM     10  S   UNL d   1     -54.908-102.814 -40.244  0.00  0.00    -0.066 SA
ATOM     11  C   UNL d   1     -55.007-102.874 -41.056  0.00  0.00     0.056 A 
BRANCH   9  12
ATOM     12  C   UNL d   1     -54.959-101.705 -39.274  0.00  0.00     0.024 A 
ATOM     13  C   UNL d   1     -54.764-102.196 -38.640  0.00  0.00     0.002 A 
ATOM     14  C   UNL d   1     -54.714-101.875 -37.871  0.00  0.00     0.000 A 
ATOM     15  C   UNL d   1     -54.859-101.072 -37.748  0.00  0.00     0.000 A 
ATOM     16  C   UNL d   1     -55.056-100.577 -38.391  0.00  0.00     0.000 A 
ATOM     17  C   UNL d   1     -55.105-100.894 -39.148  0.00  0.00     0.002 A 
ENDBRANCH   9  12
ENDBRANCH   1   7
BRANCH   2  18
ATOM     18  N   UNL d   1     -55.714-101.376 -44.535  0.00  0.00    -0.208 NA
ATOM     19  C   UNL d   1     -55.706-100.589 -44.781  0.00  0.00     0.280 C 
ATOM     20  O   UNL d   1     -55.840-100.399 -45.578  0.00  0.00    -0.265 OA
BRANCH  19  21
ATOM     21  C   UNL d   1     -55.562 -99.977 -44.232  0.00  0.00     0.069 A 
ATOM     22  C   UNL d   1     -56.124 -99.392 -44.129  0.00  0.00     0.062 A 
ATOM     23 CL   UNL d   1     -56.827 -99.402 -44.560  0.00  0.00    -0.082 Cl
ATOM     24  C   UNL d   1     -55.983 -98.789 -43.588  0.00  0.00     0.012 A 
ATOM     25  C   UNL d   1     -55.286 -98.774 -43.156  0.00  0.00     0.001 A 
ATOM     26  C   UNL d   1     -54.727 -99.363 -43.265  0.00  0.00     0.000 A 
ATOM     27  C   UNL d   1     -54.863 -99.971 -43.806  0.00  0.00     0.006 A 
ENDBRANCH  19  21
ENDBRANCH   2  18
TORSDOF 4
ENDMDL
MODEL 2
REMARK VINA RESULT:      83.5      2.872      5.565
REMARK  4 active torsions:
REMARK  status: ('A' for Active; 'I' for Inactive)
REMARK    1  A    between atoms: C_12  and  C_2 
REMARK       I    between atoms: C_3  and  N_8 
REMARK    2  A    between atoms: C_5  and  C_3 
REMARK    3  A    between atoms: C_9  and  C_4 
REMARK    4  A    between atoms: N_8  and  C_13 
ROOT
ATOM      1  C   UNL d   1     -55.154-102.119 -39.464  0.00  0.00     0.018 A 
ATOM      2  C   UNL d   1     -55.285-102.304 -37.831  0.00  0.00     0.085 A 
ATOM      3  C   UNL d   1     -55.610-101.593 -39.023  0.00  0.00     0.003 A 
ATOM      4  C   UNL d   1     -54.757-102.747 -39.090  0.00  0.00     0.003 A 
ATOM      5  C   UNL d   1     -54.826-102.835 -38.265  0.00  0.00     0.019 A 
ATOM      6  C   UNL d   1     -55.676-101.683 -38.212  0.00  0.00     0.019 A 
ENDROOT
BRANCH   1   7
ATOM      7  C   UNL d   1     -55.088-102.026 -40.290  0.00  0.00     0.088 A 
ATOM      8  N   UNL d   1     -55.059-101.316 -40.697  0.00  0.00    -0.239 NA
ATOM      9  C   UNL d   1     -54.993-101.480 -41.498  0.00  0.00     0.111 A 
ATOM     10  S   UNL d   1     -54.981-102.302 -41.590  0.00  0.00    -0.066 SA
ATOM     11  C   UNL d   1     -55.039-102.634 -40.843  0.00  0.00     0.056 A 
BRANCH   9  12
ATOM     12  C   UNL d   1     -54.946-100.924 -42.111  0.00  0.00     0.024 A 
ATOM     13  C   UNL d   1     -55.042-101.164 -42.894  0.00  0.00     0.002 A 
ATOM     14  C   UNL d   1     -54.994-100.599 -43.507  0.00  0.00     0.000 A 
ATOM     15  C   UNL d   1     -54.852 -99.806 -43.328  0.00  0.00     0.000 A 
ATOM     16  C   UNL d   1     -54.755 -99.565 -42.535  0.00  0.00     0.000 A 
ATOM     17  C   UNL d   1     -54.803-100.121 -41.932  0.00  0.00     0.002 A 
ENDBRANCH   9  12
ENDBRANCH   1   7
BRANCH   2  18
ATOM     18  N   UNL d   1     -55.352-102.395 -37.009  0.00  0.00    -0.208 NA
ATOM     19  C   UNL d   1     -55.248-101.745 -36.511  0.00  0.00     0.280 C 
ATOM     20  O   UNL d   1     -55.316-101.835 -35.689  0.00  0.00    -0.265 OA
BRANCH  19  21
ATOM     21  C   UNL d   1     -55.075-100.993 -36.830  0.00  0.00     0.069 A 
ATOM     22  C   UNL d   1     -55.036-100.347 -36.330  0.00  0.00     0.062 A 
ATOM     23 CL   UNL d   1     -55.166-100.431 -35.520  0.00  0.00    -0.082 Cl
ATOM     24  C   UNL d   1     -54.865 -99.606 -36.643  0.00  0.00     0.012 A 
ATOM     25  C   UNL d   1     -54.735 -99.516 -37.448  0.00  0.00     0.001 A 
ATOM     26  C   UNL d   1     -54.776-100.169 -37.942  0.00  0.00     0.000 A 
ATOM     27  C   UNL d   1     -54.947-100.914 -37.635  0.00  0.00     0.006 A 
ENDBRANCH  19  21
ENDBRANCH   2  18
TORSDOF 4
ENDMDL
MODEL 3
REMARK VINA RESULT:      83.7      3.101      4.142
REMARK  4 active torsions:
REMARK  status: ('A' for Active; 'I' for Inactive)
REMARK    1  A    between atoms: C_12  and  C_2 
REMARK       I    between atoms: C_3  and  N_8 
REMARK    2  A    between atoms: C_5  and  C_3 
REMARK    3  A    between atoms: C_9  and  C_4 
REMARK    4  A    between atoms: N_8  and  C_13 
ROOT
ATOM      1  C   UNL d   1     -57.942 -99.085 -43.615  0.00  0.00     0.018 A 
ATOM      2  C   UNL d   1     -56.676 -99.025 -44.669  0.00  0.00     0.085 A 
ATOM      3  C   UNL d   1     -58.037 -99.344 -44.392  0.00  0.00     0.003 A 
ATOM      4  C   UNL d   1     -57.208 -98.791 -43.356  0.00  0.00     0.003 A 
ATOM      5  C   UNL d   1     -56.572 -98.763 -43.893  0.00  0.00     0.019 A 
ATOM      6  C   UNL d   1     -57.409 -99.315 -44.916  0.00  0.00     0.019 A 
ENDROOT
BRANCH   1   7
ATOM      7  C   UNL d   1     -58.582 -99.115 -43.082  0.00  0.00     0.088 A 
ATOM      8  N   UNL d   1     -58.540 -99.290 -42.283  0.00  0.00    -0.239 NA
ATOM      9  C   UNL d   1     -59.297 -99.258 -41.970  0.00  0.00     0.111 A 
ATOM     10  S   UNL d   1     -59.817 -99.061 -42.583  0.00  0.00    -0.066 SA
ATOM     11  C   UNL d   1     -59.372 -98.973 -43.265  0.00  0.00     0.056 A 
BRANCH   9  12
ATOM     12  C   UNL d   1     -59.510 -99.398 -41.181  0.00  0.00     0.024 A 
ATOM     13  C   UNL d   1     -59.637 -98.763 -40.671  0.00  0.00     0.002 A 
ATOM     14  C   UNL d   1     -59.851 -98.910 -39.876  0.00  0.00     0.000 A 
ATOM     15  C   UNL d   1     -59.933 -99.686 -39.607  0.00  0.00     0.000 A 
ATOM     16  C   UNL d   1     -59.803-100.327 -40.126  0.00  0.00     0.000 A 
ATOM     17  C   UNL d   1     -59.592-100.182 -40.908  0.00  0.00     0.002 A 
ENDBRANCH   9  12
ENDBRANCH   1   7
BRANCH   2  18
ATOM     18  N   UNL d   1     -56.040 -98.996 -45.202  0.00  0.00    -0.208 NA
ATOM     19  C   UNL d   1     -55.449 -99.571 -45.172  0.00  0.00     0.280 C 
ATOM     20  O   UNL d   1     -54.813 -99.543 -45.705  0.00  0.00    -0.265 OA
BRANCH  19  21
ATOM     21  C   UNL d   1     -55.487-100.185 -44.608  0.00  0.00     0.069 A 
ATOM     22  C   UNL d   1     -55.122-100.083 -43.883  0.00  0.00     0.062 A 
ATOM     23 CL   UNL d   1     -54.722 -99.385 -43.706  0.00  0.00    -0.082 Cl
ATOM     24  C   UNL d   1     -55.159-100.688 -43.327  0.00  0.00     0.012 A 
ATOM     25  C   UNL d   1     -55.555-101.385 -43.497  0.00  0.00     0.001 A 
ATOM     26  C   UNL d   1     -55.918-101.479 -44.226  0.00  0.00     0.000 A 
ATOM     27  C   UNL d   1     -55.885-100.877 -44.789  0.00  0.00     0.006 A 
ENDBRANCH  19  21
ENDBRANCH   2  18
TORSDOF 4
ENDMDL
