MODEL 1
REMARK VINA RESULT:      27.3      0.000      0.000
REMARK  2 active torsions:
REMARK  status: ('A' for Active; 'I' for Inactive)
REMARK    1  A    between atoms: N_2  and  C_9 
REMARK    2  A    between atoms: C_11  and  C_7 
ROOT
ATOM      1  C   UNL d   1      60.166  49.674  51.250  0.00  0.00     0.110 A 
ATOM      2  C   UNL d   1      60.529  49.696  52.532  0.00  0.00     0.332 A 
ATOM      3  C   UNL d   1      60.984  49.685  51.282  0.00  0.00     0.060 A 
ATOM      4  S   UNL d   1      61.210  49.699  52.067  0.00  0.00    -0.018 SA
ATOM      5  O   UNL d   1      59.881  49.681  52.014  0.00  0.00    -0.268 OA
ATOM      6  C   UNL d   1      59.779  49.659  50.523  0.00  0.00     0.027 A 
ATOM      7  C   UNL d   1      61.426  49.681  50.568  0.00  0.00     0.051 A 
ATOM      8  C   UNL d   1      60.208  49.655  49.819  0.00  0.00     0.044 A 
ATOM      9  O   UNL d   1      60.497  49.707  53.357  0.00  0.00    -0.251 OA
ATOM     10  C   UNL d   1      61.027  49.666  49.843  0.00  0.00     0.196 A 
ATOM     11  O   UNL d   1      61.468  49.662  49.135  0.00  0.00    -0.286 OA
ENDROOT
BRANCH   6  12
ATOM     12  C   UNL d   1      58.955  49.648  50.495  0.00  0.00     0.002 A 
ATOM     13  C   UNL d   1      58.571  49.697  49.762  0.00  0.00     0.002 A 
ATOM     14  C   UNL d   1      57.741  49.687  49.729  0.00  0.00     0.024 A 
ATOM     15  C   UNL d   1      57.302  49.626  50.430  0.00  0.00     0.127 A 
ATOM     16  C   UNL d   1      57.687  49.577  51.155  0.00  0.00     0.024 A 
ATOM     17  C   UNL d   1      58.516  49.588  51.188  0.00  0.00     0.002 A 
BRANCH  15  18
ATOM     18  N   UNL d   1      56.469  49.615  50.403  0.00  0.00    -0.114 N 
ATOM     19  O   UNL d   1      56.037  49.668  51.102  0.00  0.00    -0.532 OA
ATOM     20  O   UNL d   1      56.081  49.550  49.681  0.00  0.00    -0.532 OA
ENDBRANCH  15  18
ENDBRANCH   6  12
TORSDOF 2
ENDMDL
