MODEL 1
REMARK VINA RESULT:      64.9      0.000      0.000
REMARK  4 active torsions:
REMARK  status: ('A' for Active; 'I' for Inactive)
REMARK    1  A    between atoms: C_6  and  C_1 
REMARK    2  A    between atoms: C_8  and  N_3 
REMARK    3  A    between atoms: C_9  and  C_6 
REMARK    4  A    between atoms: N_7  and  C_9 
ROOT
ATOM      1  C   UNL d   1     -49.492  27.470  33.822  0.00  0.00     0.058 A 
ATOM      2  C   UNL d   1     -49.044  27.597  34.482  0.00  0.00     0.067 A 
ATOM      3  N   UNL d   1     -48.828  28.375  34.526  0.00  0.00    -0.306 N 
ATOM      4  C   UNL d   1     -49.154  28.711  33.880  0.00  0.00     0.064 A 
ATOM      5  C   UNL d   1     -49.576  28.116  33.442  0.00  0.00     0.022 A 
ATOM      6  C   UNL d   1     -48.844  27.009  35.025  0.00  0.00     0.019 C 
ATOM      7  C   UNL d   1     -49.086  29.474  33.696  0.00  0.00     0.019 C 
ENDROOT
BRANCH   1   8
ATOM      8  C   UNL d   1     -49.835  26.732  33.563  0.00  0.00     0.214 C 
ATOM      9  O   UNL d   1     -49.391  26.065  33.526  0.00  0.00    -0.285 OA
BRANCH   8  10
ATOM     10  C   UNL d   1     -50.668  26.660  33.328  0.00  0.00     0.123 C 
BRANCH  10  11
ATOM     11  N   UNL d   1     -51.077  25.942  33.322  0.00  0.00    -0.300 N 
ATOM     12  C   UNL d   1     -50.703  25.217  33.328  0.00  0.00     0.080 A 
ATOM     13  C   UNL d   1     -51.140  24.460  33.322  0.00  0.00     0.019 A 
ATOM     14  C   UNL d   1     -51.901  24.488  33.311  0.00  0.00     0.003 A 
ATOM     15  C   UNL d   1     -52.302  25.228  33.306  0.00  0.00     0.019 A 
ATOM     16  C   UNL d   1     -52.315  23.747  33.306  0.00  0.00     0.000 C 
ATOM     17  C   UNL d   1     -51.896  25.951  33.311  0.00  0.00     0.080 A 
ENDBRANCH  10  11
ENDBRANCH   8  10
ENDBRANCH   1   8
BRANCH   3  18
ATOM     18  C   UNL d   1     -48.379  28.828  35.063  0.00  0.00     0.064 A 
ATOM     19  C   UNL d   1     -48.295  28.646  35.821  0.00  0.00     0.020 A 
ATOM     20  C   UNL d   1     -47.825  29.121  36.381  0.00  0.00     0.031 A 
ATOM     21  C   UNL d   1     -47.465  29.763  36.124  0.00  0.00     0.140 A 
ATOM     22  C   UNL d   1     -47.529  29.981  35.348  0.00  0.00     0.031 A 
ATOM     23  F   UNL d   1     -46.993  30.241  36.681  0.00  0.00    -0.204 F 
ATOM     24  C   UNL d   1     -47.989  29.501  34.837  0.00  0.00     0.020 A 
ENDBRANCH   3  18
TORSDOF 4
ENDMDL
MODEL 2
REMARK VINA RESULT:      66.9      1.518      2.434
REMARK  4 active torsions:
REMARK  status: ('A' for Active; 'I' for Inactive)
REMARK    1  A    between atoms: C_6  and  C_1 
REMARK    2  A    between atoms: C_8  and  N_3 
REMARK    3  A    between atoms: C_9  and  C_6 
REMARK    4  A    between atoms: N_7  and  C_9 
ROOT
ATOM      1  C   UNL d   1     -48.552  28.747  34.841  0.00  0.00     0.058 A 
ATOM      2  C   UNL d   1     -48.640  29.473  34.496  0.00  0.00     0.067 A 
ATOM      3  N   UNL d   1     -48.104  29.994  34.805  0.00  0.00    -0.306 N 
ATOM      4  C   UNL d   1     -47.695  29.567  35.340  0.00  0.00     0.064 A 
ATOM      5  C   UNL d   1     -47.995  28.772  35.349  0.00  0.00     0.022 A 
ATOM      6  C   UNL d   1     -49.200  29.643  33.914  0.00  0.00     0.019 C 
ATOM      7  C   UNL d   1     -47.108  29.855  35.781  0.00  0.00     0.019 C 
ENDROOT
BRANCH   1   8
ATOM      8  C   UNL d   1     -49.002  28.039  34.679  0.00  0.00     0.214 C 
ATOM      9  O   UNL d   1     -49.154  27.509  35.261  0.00  0.00    -0.285 OA
BRANCH   8  10
ATOM     10  C   UNL d   1     -49.316  27.855  33.891  0.00  0.00     0.123 C 
BRANCH  10  11
ATOM     11  N   UNL d   1     -49.840  27.232  33.745  0.00  0.00    -0.300 N 
ATOM     12  C   UNL d   1     -50.648  27.303  33.830  0.00  0.00     0.080 A 
ATOM     13  C   UNL d   1     -51.199  26.643  33.675  0.00  0.00     0.019 A 
ATOM     14  C   UNL d   1     -50.903  25.977  33.453  0.00  0.00     0.003 A 
ATOM     15  C   UNL d   1     -50.072  25.887  33.361  0.00  0.00     0.019 A 
ATOM     16  C   UNL d   1     -51.448  25.342  33.306  0.00  0.00     0.000 C 
ATOM     17  C   UNL d   1     -49.542  26.508  33.506  0.00  0.00     0.080 A 
ENDBRANCH  10  11
ENDBRANCH   8  10
ENDBRANCH   1   8
BRANCH   3  18
ATOM     18  C   UNL d   1     -47.929  30.799  34.676  0.00  0.00     0.064 A 
ATOM     19  C   UNL d   1     -48.383  31.279  34.254  0.00  0.00     0.020 A 
ATOM     20  C   UNL d   1     -48.199  32.121  34.120  0.00  0.00     0.031 A 
ATOM     21  C   UNL d   1     -47.550  32.421  34.432  0.00  0.00     0.140 A 
ATOM     22  C   UNL d   1     -47.059  31.955  34.873  0.00  0.00     0.031 A 
ATOM     23  F   UNL d   1     -47.362  33.262  34.300  0.00  0.00    -0.204 F 
ATOM     24  C   UNL d   1     -47.267  31.149  34.982  0.00  0.00     0.020 A 
ENDBRANCH   3  18
TORSDOF 4
ENDMDL
