MODEL 1
REMARK VINA RESULT:      45.6      0.000      0.000
REMARK  2 active torsions:
REMARK  status: ('A' for Active; 'I' for Inactive)
REMARK    1  A    between atoms: C_8  and  N_2 
REMARK    2  A    between atoms: N_7  and  C_4 
ROOT
ATOM      1  C   UNL d   1     -54.765-100.710 -39.104  0.00  0.00     0.358 A 
ATOM      2  N   UNL d   1     -54.835-101.512 -39.291  0.00  0.00    -0.226 N 
ATOM      3  N   UNL d   1     -54.748-100.473 -38.320  0.00  0.00    -0.174 NA
ATOM      4  C   UNL d   1     -54.800-101.031 -37.718  0.00  0.00     0.158 A 
ATOM      5  C   UNL d   1     -54.889-102.077 -38.696  0.00  0.00     0.271 A 
ATOM      6  C   UNL d   1     -54.871-101.833 -37.906  0.00  0.00     0.099 A 
ATOM      7  O   UNL d   1     -54.712-100.146 -39.710  0.00  0.00    -0.244 OA
ATOM      8  O   UNL d   1     -54.959-102.879 -38.884  0.00  0.00    -0.266 OA
ENDROOT
BRANCH   2   9
ATOM      9  C   UNL d   1     -54.853-101.751 -40.081  0.00  0.00     0.071 A 
ATOM     10  C   UNL d   1     -55.008-102.540 -40.269  0.00  0.00     0.019 A 
ATOM     11  C   UNL d   1     -55.027-102.784 -41.051  0.00  0.00     0.013 A 
ATOM     12  C   UNL d   1     -54.889-102.234 -41.654  0.00  0.00     0.058 A 
ATOM     13  C   UNL d   1     -54.735-101.452 -41.461  0.00  0.00     0.013 A 
ATOM     14 CL   UNL d   1     -54.907-102.476 -42.435  0.00  0.00    -0.082 Cl
ATOM     15  C   UNL d   1     -54.716-101.207 -40.677  0.00  0.00     0.019 A 
ENDBRANCH   2   9
BRANCH   4  16
ATOM     16  N   UNL d   1     -54.783-100.796 -36.930  0.00  0.00    -0.285 N 
ATOM     17  C   UNL d   1     -54.729-101.370 -36.337  0.00  0.00     0.108 A 
ATOM     18  C   UNL d   1     -54.711-101.138 -35.546  0.00  0.00     0.142 A 
ATOM     19  O   UNL d   1     -54.748-100.328 -35.344  0.00  0.00    -0.300 OA
ATOM     20  C   UNL d   1     -54.802 -99.771 -35.947  0.00  0.00     0.142 A 
ATOM     21  C   UNL d   1     -54.820-100.003 -36.738  0.00  0.00     0.108 A 
ENDBRANCH   4  16
TORSDOF 2
ENDMDL
