MODEL 1
REMARK VINA RESULT:      -7.1      0.000      0.000
REMARK  3 active torsions:
REMARK  status: ('A' for Active; 'I' for Inactive)
REMARK    1  A    between atoms: C_7  and  C_1 
REMARK    2  A    between atoms: C_6  and  C_3 
REMARK    3  A    between atoms: O_15  and  C_7 
ROOT
ATOM      1  C   UNL d   1     -46.596  13.317  22.766  0.00  0.00     0.167 A 
ATOM      2  C   UNL d   1     -47.261  12.828  22.711  0.00  0.00     0.047 A 
ATOM      3  C   UNL d   1     -47.930  13.297  22.822  0.00  0.00     0.105 A 
ATOM      4  N   UNL d   1     -47.680  14.078  22.946  0.00  0.00    -0.148 NA
ATOM      5  N   UNL d   1     -46.856  14.081  22.910  0.00  0.00    -0.143 NA
ENDROOT
BRANCH   3   6
ATOM      6  C   UNL d   1     -48.717  13.035  22.811  0.00  0.00     0.030 A 
ATOM      7  C   UNL d   1     -49.166  13.109  22.122  0.00  0.00     0.060 A 
ATOM      8  C   UNL d   1     -49.946  12.851  22.107  0.00  0.00     0.023 A 
ATOM      9 CL   UNL d   1     -48.826  13.445  21.448  0.00  0.00    -0.082 Cl
ATOM     10  C   UNL d   1     -50.284  12.512  22.790  0.00  0.00     0.059 A 
ATOM     11  C   UNL d   1     -49.826  12.442  23.477  0.00  0.00     0.011 A 
ATOM     12 CL   UNL d   1     -51.064  12.254  22.775  0.00  0.00    -0.082 Cl
ATOM     13  C   UNL d   1     -49.045  12.703  23.487  0.00  0.00     0.003 A 
ENDBRANCH   3   6
BRANCH   1  14
ATOM     14  C   UNL d   1     -45.812  13.075  22.690  0.00  0.00     0.316 C 
ATOM     15  O   UNL d   1     -45.500  12.529  23.225  0.00  0.00    -0.257 OA
BRANCH  14  16
ATOM     16  O   UNL d   1     -45.340  13.375  22.082  0.00  0.00    -0.294 OA
ATOM     17  C   UNL d   1     -44.616  13.029  21.905  0.00  0.00     0.185 C 
ENDBRANCH  14  16
ENDBRANCH   1  14
TORSDOF 3
ENDMDL
MODEL 2
REMARK VINA RESULT:      -7.1      1.694      1.845
REMARK  3 active torsions:
REMARK  status: ('A' for Active; 'I' for Inactive)
REMARK    1  A    between atoms: C_7  and  C_1 
REMARK    2  A    between atoms: C_6  and  C_3 
REMARK    3  A    between atoms: O_15  and  C_7 
ROOT
ATOM      1  C   UNL d   1     -46.912  13.368  22.535  0.00  0.00     0.167 A 
ATOM      2  C   UNL d   1     -47.372  13.928  22.934  0.00  0.00     0.047 A 
ATOM      3  C   UNL d   1     -48.135  13.898  22.621  0.00  0.00     0.105 A 
ATOM      4  N   UNL d   1     -48.148  13.318  22.028  0.00  0.00    -0.148 NA
ATOM      5  N   UNL d   1     -47.390  12.997  21.982  0.00  0.00    -0.143 NA
ENDROOT
BRANCH   3   6
ATOM      6  C   UNL d   1     -48.778  14.365  22.859  0.00  0.00     0.030 A 
ATOM      7  C   UNL d   1     -49.405  14.022  23.272  0.00  0.00     0.060 A 
ATOM      8  C   UNL d   1     -50.044  14.480  23.509  0.00  0.00     0.023 A 
ATOM      9 CL   UNL d   1     -49.386  13.214  23.445  0.00  0.00    -0.082 Cl
ATOM     10  C   UNL d   1     -50.059  15.295  23.332  0.00  0.00     0.059 A 
ATOM     11  C   UNL d   1     -49.425  15.631  22.917  0.00  0.00     0.011 A 
ATOM     12 CL   UNL d   1     -50.698  15.754  23.569  0.00  0.00    -0.082 Cl
ATOM     13  C   UNL d   1     -48.787  15.167  22.681  0.00  0.00     0.003 A 
ENDBRANCH   3   6
BRANCH   1  14
ATOM     14  C   UNL d   1     -46.114  13.213  22.672  0.00  0.00     0.316 C 
ATOM     15  O   UNL d   1     -45.883  12.871  23.386  0.00  0.00    -0.257 OA
BRANCH  14  16
ATOM     16  O   UNL d   1     -45.549  13.400  22.100  0.00  0.00    -0.294 OA
ATOM     17  C   UNL d   1     -44.795  13.074  22.136  0.00  0.00     0.185 C 
ENDBRANCH  14  16
ENDBRANCH   1  14
TORSDOF 3
ENDMDL
MODEL 3
REMARK VINA RESULT:      -6.3      8.433      9.194
REMARK  3 active torsions:
REMARK  status: ('A' for Active; 'I' for Inactive)
REMARK    1  A    between atoms: C_7  and  C_1 
REMARK    2  A    between atoms: C_6  and  C_3 
REMARK    3  A    between atoms: O_15  and  C_7 
ROOT
ATOM      1  C   UNL d   1     -40.707  14.865  17.687  0.00  0.00     0.167 A 
ATOM      2  C   UNL d   1     -40.502  15.110  18.451  0.00  0.00     0.047 A 
ATOM      3  C   UNL d   1     -40.342  14.437  18.899  0.00  0.00     0.105 A 
ATOM      4  N   UNL d   1     -40.448  13.773  18.414  0.00  0.00    -0.148 NA
ATOM      5  N   UNL d   1     -40.672  14.045  17.669  0.00  0.00    -0.143 NA
ENDROOT
BRANCH   3   6
ATOM      6  C   UNL d   1     -40.115  14.425  19.696  0.00  0.00     0.030 A 
ATOM      7  C   UNL d   1     -39.328  14.279  19.898  0.00  0.00     0.060 A 
ATOM      8  C   UNL d   1     -39.098  14.266  20.687  0.00  0.00     0.023 A 
ATOM      9 CL   UNL d   1     -38.772  14.146  19.301  0.00  0.00    -0.082 Cl
ATOM     10  C   UNL d   1     -39.663  14.401  21.285  0.00  0.00     0.059 A 
ATOM     11  C   UNL d   1     -40.451  14.546  21.074  0.00  0.00     0.011 A 
ATOM     12 CL   UNL d   1     -39.433  14.388  22.074  0.00  0.00    -0.082 Cl
ATOM     13  C   UNL d   1     -40.675  14.558  20.282  0.00  0.00     0.003 A 
ENDBRANCH   3   6
BRANCH   1  14
ATOM     14  C   UNL d   1     -40.909  15.359  17.059  0.00  0.00     0.316 C 
ATOM     15  O   UNL d   1     -40.321  15.794  16.678  0.00  0.00    -0.257 OA
BRANCH  14  16
ATOM     16  O   UNL d   1     -41.695  15.419  16.813  0.00  0.00    -0.294 OA
ATOM     17  C   UNL d   1     -41.902  15.922  16.197  0.00  0.00     0.185 C 
ENDBRANCH  14  16
ENDBRANCH   1  14
TORSDOF 3
ENDMDL
MODEL 4
REMARK VINA RESULT:      -6.0      2.270      3.832
REMARK  3 active torsions:
REMARK  status: ('A' for Active; 'I' for Inactive)
REMARK    1  A    between atoms: C_7  and  C_1 
REMARK    2  A    between atoms: C_6  and  C_3 
REMARK    3  A    between atoms: O_15  and  C_7 
ROOT
ATOM      1  C   UNL d   1     -49.280  13.432  22.443  0.00  0.00     0.167 A 
ATOM      2  C   UNL d   1     -48.553  13.141  22.172  0.00  0.00     0.047 A 
ATOM      3  C   UNL d   1     -47.982  13.319  22.740  0.00  0.00     0.105 A 
ATOM      4  N   UNL d   1     -48.353  13.721  23.363  0.00  0.00    -0.148 NA
ATOM      5  N   UNL d   1     -49.153  13.786  23.172  0.00  0.00    -0.143 NA
ENDROOT
BRANCH   3   6
ATOM      6  C   UNL d   1     -47.176  13.130  22.695  0.00  0.00     0.030 A 
ATOM      7  C   UNL d   1     -46.880  12.489  23.124  0.00  0.00     0.060 A 
ATOM      8  C   UNL d   1     -46.082  12.297  23.083  0.00  0.00     0.023 A 
ATOM      9 CL   UNL d   1     -47.392  12.041  23.593  0.00  0.00    -0.082 Cl
ATOM     10  C   UNL d   1     -45.569  12.753  22.607  0.00  0.00     0.059 A 
ATOM     11  C   UNL d   1     -45.875  13.394  22.181  0.00  0.00     0.011 A 
ATOM     12 CL   UNL d   1     -44.771  12.561  22.567  0.00  0.00    -0.082 Cl
ATOM     13  C   UNL d   1     -46.676  13.582  22.226  0.00  0.00     0.003 A 
ENDBRANCH   3   6
BRANCH   1  14
ATOM     14  C   UNL d   1     -50.000  13.374  22.047  0.00  0.00     0.316 C 
ATOM     15  O   UNL d   1     -50.340  12.632  21.926  0.00  0.00    -0.257 OA
BRANCH  14  16
ATOM     16  O   UNL d   1     -50.380  14.054  21.772  0.00  0.00    -0.294 OA
ATOM     17  C   UNL d   1     -51.064  13.996  21.321  0.00  0.00     0.185 C 
ENDBRANCH  14  16
ENDBRANCH   1  14
TORSDOF 3
ENDMDL
MODEL 5
REMARK VINA RESULT:      -6.0      8.232      9.875
REMARK  3 active torsions:
REMARK  status: ('A' for Active; 'I' for Inactive)
REMARK    1  A    between atoms: C_7  and  C_1 
REMARK    2  A    between atoms: C_6  and  C_3 
REMARK    3  A    between atoms: O_15  and  C_7 
ROOT
ATOM      1  C   UNL d   1     -40.485  14.478  19.434  0.00  0.00     0.167 A 
ATOM      2  C   UNL d   1     -39.816  14.518  18.948  0.00  0.00     0.047 A 
ATOM      3  C   UNL d   1     -39.985  14.112  18.250  0.00  0.00     0.105 A 
ATOM      4  N   UNL d   1     -40.760  13.820  18.302  0.00  0.00    -0.148 NA
ATOM      5  N   UNL d   1     -41.060  14.050  19.035  0.00  0.00    -0.143 NA
ENDROOT
BRANCH   3   6
ATOM      6  C   UNL d   1     -39.471  14.013  17.607  0.00  0.00     0.030 A 
ATOM      7  C   UNL d   1     -39.509  14.533  16.967  0.00  0.00     0.060 A 
ATOM      8  C   UNL d   1     -39.001  14.439  16.327  0.00  0.00     0.023 A 
ATOM      9 CL   UNL d   1     -40.060  15.149  16.973  0.00  0.00    -0.082 Cl
ATOM     10  C   UNL d   1     -38.447  13.816  16.325  0.00  0.00     0.059 A 
ATOM     11  C   UNL d   1     -38.416  13.298  16.972  0.00  0.00     0.011 A 
ATOM     12 CL   UNL d   1     -37.940  13.722  15.686  0.00  0.00    -0.082 Cl
ATOM     13  C   UNL d   1     -38.927  13.398  17.610  0.00  0.00     0.003 A 
ENDBRANCH   3   6
BRANCH   1  14
ATOM     14  C   UNL d   1     -40.556  14.810  20.185  0.00  0.00     0.316 C 
ATOM     15  O   UNL d   1     -40.253  14.408  20.838  0.00  0.00    -0.257 OA
BRANCH  14  16
ATOM     16  O   UNL d   1     -40.929  15.540  20.283  0.00  0.00    -0.294 OA
ATOM     17  C   UNL d   1     -41.012  15.869  21.032  0.00  0.00     0.185 C 
ENDBRANCH  14  16
ENDBRANCH   1  14
TORSDOF 3
ENDMDL
