MODEL 1
REMARK VINA RESULT:      30.0      0.000      0.000
REMARK  4 active torsions:
REMARK  status: ('A' for Active; 'I' for Inactive)
REMARK    1  A    between atoms: S_3  and  N_1 
REMARK    2  A    between atoms: C_7  and  C_4 
REMARK    3  A    between atoms: C_8  and  C_5 
REMARK    4  A    between atoms: O_19  and  C_17 
ROOT
ATOM      1  N   UNL d   1      13.697  12.333  -3.353  0.00  0.00    -0.155 N 
ATOM      2  N   UNL d   1      13.899  11.850  -2.702  0.00  0.00    -0.155 NA
ATOM      3  C   UNL d   1      14.067  12.345  -2.077  0.00  0.00     0.110 A 
ATOM      4  C   UNL d   1      13.740  13.125  -3.132  0.00  0.00     0.096 A 
ATOM      5  C   UNL d   1      13.974  13.149  -2.323  0.00  0.00     0.041 A 
ENDROOT
BRANCH   4   6
ATOM      6  C   UNL d   1      13.584  13.781  -3.608  0.00  0.00     0.021 A 
ATOM      7  C   UNL d   1      14.060  14.444  -3.568  0.00  0.00     0.026 A 
ATOM      8  C   UNL d   1      13.904  15.099  -4.044  0.00  0.00     0.094 A 
ATOM      9  C   UNL d   1      13.272  15.091  -4.561  0.00  0.00     0.024 A 
ATOM     10  C   UNL d   1      12.789  14.425  -4.606  0.00  0.00     0.002 A 
ATOM     11  C   UNL d   1      12.945  13.770  -4.129  0.00  0.00     0.002 A 
BRANCH   8  12
ATOM     12  O   UNL d   1      14.392  15.768  -3.997  0.00  0.00    -0.328 OA
ATOM     13  C   UNL d   1      14.701  16.100  -4.680  0.00  0.00     0.181 C 
ENDBRANCH   8  12
ENDBRANCH   4   6
BRANCH   1  14
ATOM     14  S   UNL d   1      13.492  12.059  -4.084  0.00  0.00     0.266 S 
ATOM     15  O   UNL d   1      14.225  12.318  -4.393  0.00  0.00    -0.203 OA
ATOM     16  O   UNL d   1      12.769  11.795  -3.819  0.00  0.00    -0.203 OA
ATOM     17  C   UNL d   1      13.297  11.779  -4.859  0.00  0.00     0.165 C 
ENDBRANCH   1  14
BRANCH   3  18
ATOM     18  C   UNL d   1      14.295  12.124  -1.311  0.00  0.00     0.049 A 
ATOM     19  S   UNL d   1      15.074  11.983  -1.103  0.00  0.00    -0.085 SA
ATOM     20  C   UNL d   1      15.072  11.779  -0.302  0.00  0.00     0.035 A 
ATOM     21  C   UNL d   1      14.272  11.802  -0.035  0.00  0.00     0.007 A 
ATOM     22  C   UNL d   1      13.806  12.013  -0.658  0.00  0.00     0.009 A 
ENDBRANCH   3  18
TORSDOF 4
ENDMDL
