MODEL 1
REMARK VINA RESULT:     111.9      0.000      0.000
REMARK  2 active torsions:
REMARK  status: ('A' for Active; 'I' for Inactive)
REMARK    1  A    between atoms: N_10  and  C_3 
REMARK    2  A    between atoms: C_12  and  C_5 
ROOT
ATOM      1  N   UNL d   1     -50.276  26.211  34.063  0.00  0.00    -0.196 N 
ATOM      2  C   UNL d   1     -49.912  26.947  34.182  0.00  0.00     0.167 A 
ATOM      3  C   UNL d   1     -51.060  26.188  33.818  0.00  0.00     0.152 A 
ATOM      4  N   UNL d   1     -49.079  25.565  34.431  0.00  0.00    -0.163 NA
ATOM      5  C   UNL d   1     -49.141  26.992  34.423  0.00  0.00     0.055 A 
ATOM      6  N   UNL d   1     -50.341  27.644  34.055  0.00  0.00    -0.227 NA
ATOM      7  C   UNL d   1     -51.484  26.874  33.691  0.00  0.00     0.052 A 
ATOM      8  C   UNL d   1     -48.717  26.297  34.550  0.00  0.00     0.104 A 
ATOM      9  C   UNL d   1     -51.122  27.606  33.810  0.00  0.00     0.086 A 
ATOM     10  C   UNL d   1     -52.274  26.828  33.445  0.00  0.00     0.004 A 
ATOM     11  C   UNL d   1     -47.948  26.328  34.790  0.00  0.00     0.023 C 
ATOM     12  C   UNL d   1     -51.547  28.300  33.684  0.00  0.00     0.019 A 
ATOM     13  C   UNL d   1     -52.701  27.536  33.317  0.00  0.00     0.000 A 
ATOM     14  C   UNL d   1     -52.339  28.268  33.436  0.00  0.00     0.002 A 
ENDROOT
BRANCH   3  15
ATOM     15  N   UNL d   1     -51.433  25.442  33.695  0.00  0.00    -0.286 N 
ATOM     16  C   UNL d   1     -50.978  24.789  33.430  0.00  0.00     0.101 A 
ATOM     17  C   UNL d   1     -51.354  24.036  33.306  0.00  0.00     0.100 A 
ATOM     18  N   UNL d   1     -52.175  23.946  33.449  0.00  0.00    -0.299 N 
ATOM     19  C   UNL d   1     -52.633  24.601  33.715  0.00  0.00     0.100 A 
ATOM     20  C   UNL d   1     -52.542  23.193  33.323  0.00  0.00     0.100 C 
ATOM     21  C   UNL d   1     -52.265  25.358  33.842  0.00  0.00     0.101 A 
ENDBRANCH   3  15
BRANCH   5  22
ATOM     22  C   UNL d   1     -48.780  27.724  34.542  0.00  0.00     0.004 A 
ATOM     23  C   UNL d   1     -48.339  28.054  33.943  0.00  0.00     0.000 A 
ATOM     24  C   UNL d   1     -47.977  28.786  34.062  0.00  0.00     0.000 A 
ATOM     25  C   UNL d   1     -48.062  29.176  34.778  0.00  0.00     0.000 A 
ATOM     26  C   UNL d   1     -48.509  28.835  35.376  0.00  0.00     0.000 A 
ATOM     27  C   UNL d   1     -48.870  28.103  35.257  0.00  0.00     0.000 A 
ENDBRANCH   5  22
TORSDOF 2
ENDMDL
MODEL 2
REMARK VINA RESULT:     113.5      2.412      3.058
REMARK  2 active torsions:
REMARK  status: ('A' for Active; 'I' for Inactive)
REMARK    1  A    between atoms: N_10  and  C_3 
REMARK    2  A    between atoms: C_12  and  C_5 
ROOT
ATOM      1  N   UNL d   1     -52.221  25.520  35.773  0.00  0.00    -0.196 N 
ATOM      2  C   UNL d   1     -51.753  26.073  36.177  0.00  0.00     0.167 A 
ATOM      3  C   UNL d   1     -52.139  25.447  34.959  0.00  0.00     0.152 A 
ATOM      4  N   UNL d   1     -52.821  25.145  36.992  0.00  0.00    -0.163 NA
ATOM      5  C   UNL d   1     -51.818  26.161  36.979  0.00  0.00     0.055 A 
ATOM      6  N   UNL d   1     -51.213  26.541  35.758  0.00  0.00    -0.227 NA
ATOM      7  C   UNL d   1     -51.608  25.907  34.544  0.00  0.00     0.052 A 
ATOM      8  C   UNL d   1     -52.356  25.695  37.393  0.00  0.00     0.104 A 
ATOM      9  C   UNL d   1     -51.143  26.457  34.946  0.00  0.00     0.086 A 
ATOM     10  C   UNL d   1     -51.541  25.817  33.723  0.00  0.00     0.004 A 
ATOM     11  C   UNL d   1     -52.431  25.772  38.193  0.00  0.00     0.023 C 
ATOM     12  C   UNL d   1     -50.605  26.923  34.531  0.00  0.00     0.019 A 
ATOM     13  C   UNL d   1     -50.994  26.292  33.306  0.00  0.00     0.000 A 
ATOM     14  C   UNL d   1     -50.529  26.842  33.707  0.00  0.00     0.002 A 
ENDROOT
BRANCH   3  15
ATOM     15  N   UNL d   1     -52.613  24.886  34.545  0.00  0.00    -0.286 N 
ATOM     16  C   UNL d   1     -52.473  24.065  34.651  0.00  0.00     0.101 A 
ATOM     17  C   UNL d   1     -52.952  23.499  34.233  0.00  0.00     0.100 A 
ATOM     18  N   UNL d   1     -53.560  23.759  33.718  0.00  0.00    -0.299 N 
ATOM     19  C   UNL d   1     -53.702  24.583  33.611  0.00  0.00     0.100 A 
ATOM     20  C   UNL d   1     -54.031  23.189  33.306  0.00  0.00     0.100 C 
ATOM     21  C   UNL d   1     -53.228  25.156  34.025  0.00  0.00     0.101 A 
ENDBRANCH   3  15
BRANCH   5  22
ATOM     22  C   UNL d   1     -51.353  26.711  37.381  0.00  0.00     0.004 A 
ATOM     23  C   UNL d   1     -50.587  26.841  37.137  0.00  0.00     0.000 A 
ATOM     24  C   UNL d   1     -50.121  27.390  37.539  0.00  0.00     0.000 A 
ATOM     25  C   UNL d   1     -50.429  27.802  38.178  0.00  0.00     0.000 A 
ATOM     26  C   UNL d   1     -51.202  27.664  38.416  0.00  0.00     0.000 A 
ATOM     27  C   UNL d   1     -51.667  27.114  38.014  0.00  0.00     0.000 A 
ENDBRANCH   5  22
TORSDOF 2
ENDMDL
