MODEL 1
REMARK VINA RESULT:      24.7      0.000      0.000
REMARK  1 active torsions:
REMARK  status: ('A' for Active; 'I' for Inactive)
REMARK    1  A    between atoms: C_12  and  C_8 
ROOT
ATOM      1  N   UNL d   1     -51.064  26.037  33.414  0.00  0.00    -0.123 N 
ATOM      2  N   UNL d   1     -49.645  26.023  33.331  0.00  0.00    -0.180 NA
ATOM      3  C   UNL d   1     -50.353  25.624  33.353  0.00  0.00     0.217 A 
ATOM      4  N   UNL d   1     -51.059  26.864  33.452  0.00  0.00    -0.141 NA
ATOM      5  N   UNL d   1     -51.784  25.646  33.437  0.00  0.00    -0.146 NA
ATOM      6  C   UNL d   1     -49.630  26.838  33.368  0.00  0.00     0.300 A 
ATOM      7  C   UNL d   1     -50.337  27.258  33.429  0.00  0.00     0.161 A 
ATOM      8  C   UNL d   1     -51.793  24.813  33.398  0.00  0.00     0.110 A 
ATOM      9  S   UNL d   1     -50.370  24.806  33.316  0.00  0.00    -0.045 SA
ATOM     10  C   UNL d   1     -51.086  24.393  33.338  0.00  0.00     0.059 A 
ATOM     11  O   UNL d   1     -48.909  27.243  33.345  0.00  0.00    -0.263 OA
ATOM     12  C   UNL d   1     -50.324  28.083  33.467  0.00  0.00     0.028 C 
ENDROOT
BRANCH   8  13
ATOM     13  C   UNL d   1     -52.510  24.411  33.421  0.00  0.00     0.020 A 
ATOM     14  C   UNL d   1     -52.518  23.596  33.554  0.00  0.00     0.002 A 
ATOM     15  C   UNL d   1     -53.238  23.190  33.578  0.00  0.00     0.000 A 
ATOM     16  C   UNL d   1     -53.946  23.601  33.468  0.00  0.00     0.000 A 
ATOM     17  C   UNL d   1     -53.932  24.417  33.335  0.00  0.00     0.000 A 
ATOM     18  C   UNL d   1     -53.214  24.820  33.312  0.00  0.00     0.002 A 
ENDBRANCH   8  13
TORSDOF 1
ENDMDL
MODEL 2
REMARK VINA RESULT:      26.7      0.873      1.121
REMARK  1 active torsions:
REMARK  status: ('A' for Active; 'I' for Inactive)
REMARK    1  A    between atoms: C_12  and  C_8 
ROOT
ATOM      1  N   UNL d   1     -51.065  25.058  33.412  0.00  0.00    -0.123 N 
ATOM      2  N   UNL d   1     -49.747  24.528  33.358  0.00  0.00    -0.180 NA
ATOM      3  C   UNL d   1     -50.552  24.414  33.363  0.00  0.00     0.217 A 
ATOM      4  N   UNL d   1     -50.760  25.826  33.457  0.00  0.00    -0.141 NA
ATOM      5  N   UNL d   1     -51.878  24.956  33.418  0.00  0.00    -0.146 NA
ATOM      6  C   UNL d   1     -49.437  25.281  33.402  0.00  0.00     0.300 A 
ATOM      7  C   UNL d   1     -49.944  25.930  33.452  0.00  0.00     0.161 A 
ATOM      8  C   UNL d   1     -52.189  24.183  33.372  0.00  0.00     0.110 A 
ATOM      9  S   UNL d   1     -50.865  23.658  33.319  0.00  0.00    -0.045 SA
ATOM     10  C   UNL d   1     -51.682  23.534  33.323  0.00  0.00     0.059 A 
ATOM     11  O   UNL d   1     -48.618  25.396  33.397  0.00  0.00    -0.263 OA
ATOM     12  C   UNL d   1     -49.632  26.694  33.496  0.00  0.00     0.028 C 
ENDROOT
BRANCH   8  13
ATOM     13  C   UNL d   1     -53.004  24.070  33.377  0.00  0.00     0.020 A 
ATOM     14  C   UNL d   1     -53.310  23.303  33.410  0.00  0.00     0.002 A 
ATOM     15  C   UNL d   1     -54.129  23.188  33.415  0.00  0.00     0.000 A 
ATOM     16  C   UNL d   1     -54.636  23.838  33.387  0.00  0.00     0.000 A 
ATOM     17  C   UNL d   1     -54.324  24.603  33.354  0.00  0.00     0.000 A 
ATOM     18  C   UNL d   1     -53.509  24.717  33.350  0.00  0.00     0.002 A 
ENDBRANCH   8  13
TORSDOF 1
ENDMDL
