MODEL 1
REMARK VINA RESULT:       0.1      0.000      0.000
REMARK  6 active torsions:
REMARK  status: ('A' for Active; 'I' for Inactive)
REMARK    1  A    between atoms: C_9  and  N_1 
REMARK    2  A    between atoms: S_10  and  C_6 
REMARK    3  A    between atoms: C_16  and  S_10 
REMARK    4  A    between atoms: C_12  and  C_16 
REMARK    5  A    between atoms: O_20  and  C_12 
REMARK    6  A    between atoms: C_22  and  O_20 
ROOT
ATOM      1  N   UNL d   1     -42.517-122.519 -50.344  0.00  0.00    -0.212 N 
ATOM      2  C   UNL d   1     -42.066-122.887 -50.923  0.00  0.00     0.169 A 
ATOM      3  N   UNL d   1     -42.998-121.969 -50.695  0.00  0.00    -0.162 NA
ATOM      4  C   UNL d   1     -42.275-122.556 -51.650  0.00  0.00     0.081 A 
ATOM      5  C   UNL d   1     -42.852-121.987 -51.510  0.00  0.00     0.126 A 
ATOM      6  C   UNL d   1     -41.913-122.815 -52.340  0.00  0.00     0.117 A 
ATOM      7  N   UNL d   1     -41.495-123.478 -50.888  0.00  0.00    -0.205 NA
ATOM      8  N   UNL d   1     -41.339-123.408 -52.307  0.00  0.00    -0.217 NA
ATOM      9  C   UNL d   1     -41.130-123.739 -51.581  0.00  0.00     0.201 A 
ENDROOT
BRANCH   1  10
ATOM     10  C   UNL d   1     -42.429-122.738 -49.548  0.00  0.00     0.085 A 
ATOM     11  C   UNL d   1     -41.710-122.630 -49.173  0.00  0.00     0.020 A 
ATOM     12  C   UNL d   1     -41.618-122.842 -48.392  0.00  0.00     0.013 A 
ATOM     13  C   UNL d   1     -42.257-123.172 -47.967  0.00  0.00     0.058 A 
ATOM     14  C   UNL d   1     -42.980-123.278 -48.354  0.00  0.00     0.013 A 
ATOM     15 CL   UNL d   1     -42.168-123.391 -47.171  0.00  0.00    -0.082 Cl
ATOM     16  C   UNL d   1     -43.064-123.061 -49.139  0.00  0.00     0.020 A 
ENDBRANCH   1  10
BRANCH   6  17
ATOM     17  S   UNL d   1     -42.122-122.484 -53.066  0.00  0.00    -0.062 SA
BRANCH  17  18
ATOM     18  C   UNL d   1     -41.741-122.721 -53.748  0.00  0.00     0.105 C 
BRANCH  18  19
ATOM     19  C   UNL d   1     -41.776-122.251 -54.425  0.00  0.00     0.307 C 
ATOM     20  O   UNL d   1     -41.128-121.786 -54.639  0.00  0.00    -0.258 OA
BRANCH  19  21
ATOM     21  O   UNL d   1     -42.459-122.246 -54.889  0.00  0.00    -0.271 OA
BRANCH  21  22
ATOM     22  C   UNL d   1     -42.420-122.005 -55.678  0.00  0.00     0.126 C 
ATOM     23  C   UNL d   1     -41.727-121.665 -55.971  0.00  0.00     0.029 C 
ENDBRANCH  21  22
ENDBRANCH  19  21
ENDBRANCH  18  19
ENDBRANCH  17  18
ENDBRANCH   6  17
TORSDOF 6
ENDMDL
