MODEL 1
REMARK VINA RESULT:      -5.6      0.000      0.000
REMARK  3 active torsions:
REMARK  status: ('A' for Active; 'I' for Inactive)
REMARK    1  A    between atoms: S_7  and  C_4 
REMARK    2  A    between atoms: C_9  and  S_7 
REMARK    3  A    between atoms: C_10  and  C_9 
ROOT
ATOM      1  S   UNL d   1     -41.831-122.742 -52.771  0.00  0.00    -0.046 SA
ENDROOT
BRANCH   1   2
ATOM      2  C   UNL d   1     -41.840-122.489 -53.556  0.00  0.00     0.217 A 
ATOM      3  N   UNL d   1     -42.529-122.162 -53.877  0.00  0.00    -0.180 NA
ATOM      4  C   UNL d   1     -42.538-121.908 -54.662  0.00  0.00     0.300 A 
ATOM      5  C   UNL d   1     -41.860-121.982 -55.125  0.00  0.00     0.161 A 
ATOM      6  O   UNL d   1     -43.226-121.581 -54.983  0.00  0.00    -0.263 OA
ATOM      7  C   UNL d   1     -41.869-121.729 -55.911  0.00  0.00     0.028 C 
ATOM      8  N   UNL d   1     -41.172-122.310 -54.803  0.00  0.00    -0.141 NA
ATOM      9  N   UNL d   1     -41.162-122.563 -54.019  0.00  0.00    -0.121 NA
ENDBRANCH   1   2
BRANCH   1  10
ATOM     10  C   UNL d   1     -41.163-122.612 -52.301  0.00  0.00     0.038 C 
BRANCH  10  11
ATOM     11  C   UNL d   1     -41.172-122.817 -51.502  0.00  0.00     0.007 A 
ATOM     12  C   UNL d   1     -41.123-123.610 -51.277  0.00  0.00     0.001 A 
ATOM     13  C   UNL d   1     -41.132-123.815 -50.478  0.00  0.00     0.000 A 
ATOM     14  C   UNL d   1     -41.190-123.225 -49.904  0.00  0.00     0.000 A 
ATOM     15  C   UNL d   1     -41.240-122.432 -50.128  0.00  0.00     0.000 A 
ATOM     16  C   UNL d   1     -41.199-123.431 -49.104  0.00  0.00     0.000 C 
ATOM     17  C   UNL d   1     -41.231-122.227 -50.928  0.00  0.00     0.001 A 
ENDBRANCH  10  11
ENDBRANCH   1  10
TORSDOF 3
ENDMDL
MODEL 2
REMARK VINA RESULT:      -5.6      1.104      1.428
REMARK  3 active torsions:
REMARK  status: ('A' for Active; 'I' for Inactive)
REMARK    1  A    between atoms: S_7  and  C_4 
REMARK    2  A    between atoms: C_9  and  S_7 
REMARK    3  A    between atoms: C_10  and  C_9 
ROOT
ATOM      1  S   UNL d   1     -41.308-123.048 -51.813  0.00  0.00    -0.046 SA
ENDROOT
BRANCH   1   2
ATOM      2  C   UNL d   1     -41.365-122.871 -52.617  0.00  0.00     0.217 A 
ATOM      3  N   UNL d   1     -41.666-123.433 -53.144  0.00  0.00    -0.180 NA
ATOM      4  C   UNL d   1     -41.724-123.256 -53.947  0.00  0.00     0.300 A 
ATOM      5  C   UNL d   1     -41.481-122.518 -54.224  0.00  0.00     0.161 A 
ATOM      6  O   UNL d   1     -42.024-123.817 -54.474  0.00  0.00    -0.263 OA
ATOM      7  C   UNL d   1     -41.539-122.341 -55.028  0.00  0.00     0.028 C 
ATOM      8  N   UNL d   1     -41.180-121.957 -53.696  0.00  0.00    -0.141 NA
ATOM      9  N   UNL d   1     -41.123-122.133 -52.894  0.00  0.00    -0.121 NA
ENDBRANCH   1   2
BRANCH   1  10
ATOM     10  C   UNL d   1     -41.510-122.479 -51.248  0.00  0.00     0.038 C 
BRANCH  10  11
ATOM     11  C   UNL d   1     -41.682-122.707 -50.474  0.00  0.00     0.007 A 
ATOM     12  C   UNL d   1     -41.122-123.123 -50.031  0.00  0.00     0.001 A 
ATOM     13  C   UNL d   1     -41.294-123.351 -49.256  0.00  0.00     0.000 A 
ATOM     14  C   UNL d   1     -42.027-123.161 -48.926  0.00  0.00     0.000 A 
ATOM     15  C   UNL d   1     -42.586-122.745 -49.369  0.00  0.00     0.000 A 
ATOM     16  C   UNL d   1     -42.199-123.389 -48.152  0.00  0.00     0.000 C 
ATOM     17  C   UNL d   1     -42.414-122.517 -50.144  0.00  0.00     0.001 A 
ENDBRANCH  10  11
ENDBRANCH   1  10
TORSDOF 3
ENDMDL
MODEL 3
REMARK VINA RESULT:      -5.1      2.042      4.355
REMARK  3 active torsions:
REMARK  status: ('A' for Active; 'I' for Inactive)
REMARK    1  A    between atoms: S_7  and  C_4 
REMARK    2  A    between atoms: C_9  and  S_7 
REMARK    3  A    between atoms: C_10  and  C_9 
ROOT
ATOM      1  S   UNL d   1     -41.550-122.328 -52.057  0.00  0.00    -0.046 SA
ENDROOT
BRANCH   1   2
ATOM      2  C   UNL d   1     -41.644-122.640 -51.299  0.00  0.00     0.217 A 
ATOM      3  N   UNL d   1     -42.259-122.373 -50.814  0.00  0.00    -0.180 NA
ATOM      4  C   UNL d   1     -42.352-122.685 -50.057  0.00  0.00     0.300 A 
ATOM      5  C   UNL d   1     -41.831-123.262 -49.783  0.00  0.00     0.161 A 
ATOM      6  O   UNL d   1     -42.967-122.419 -49.572  0.00  0.00    -0.263 OA
ATOM      7  C   UNL d   1     -41.924-123.575 -49.025  0.00  0.00     0.028 C 
ATOM      8  N   UNL d   1     -41.216-123.528 -50.268  0.00  0.00    -0.141 NA
ATOM      9  N   UNL d   1     -41.123-123.217 -51.025  0.00  0.00    -0.121 NA
ENDBRANCH   1   2
BRANCH   1  10
ATOM     10  C   UNL d   1     -41.358-122.825 -52.689  0.00  0.00     0.038 C 
BRANCH  10  11
ATOM     11  C   UNL d   1     -41.535-122.600 -53.462  0.00  0.00     0.007 A 
ATOM     12  C   UNL d   1     -42.029-121.953 -53.603  0.00  0.00     0.001 A 
ATOM     13  C   UNL d   1     -42.206-121.727 -54.376  0.00  0.00     0.000 A 
ATOM     14  C   UNL d   1     -41.889-122.150 -55.010  0.00  0.00     0.000 A 
ATOM     15  C   UNL d   1     -41.395-122.797 -54.870  0.00  0.00     0.000 A 
ATOM     16  C   UNL d   1     -42.066-121.925 -55.784  0.00  0.00     0.000 C 
ATOM     17  C   UNL d   1     -41.217-123.023 -54.096  0.00  0.00     0.001 A 
ENDBRANCH  10  11
ENDBRANCH   1  10
TORSDOF 3
ENDMDL
MODEL 4
REMARK VINA RESULT:      -4.7      2.665      4.550
REMARK  3 active torsions:
REMARK  status: ('A' for Active; 'I' for Inactive)
REMARK    1  A    between atoms: S_7  and  C_4 
REMARK    2  A    between atoms: C_9  and  S_7 
REMARK    3  A    between atoms: C_10  and  C_9 
ROOT
ATOM      1  S   UNL d   1     -41.762-122.837 -51.013  0.00  0.00    -0.046 SA
ENDROOT
BRANCH   1   2
ATOM      2  C   UNL d   1     -41.808-123.000 -50.206  0.00  0.00     0.217 A 
ATOM      3  N   UNL d   1     -42.541-123.160 -49.857  0.00  0.00    -0.180 NA
ATOM      4  C   UNL d   1     -42.587-123.323 -49.050  0.00  0.00     0.300 A 
ATOM      5  C   UNL d   1     -41.902-123.327 -48.592  0.00  0.00     0.161 A 
ATOM      6  O   UNL d   1     -43.320-123.483 -48.701  0.00  0.00    -0.263 OA
ATOM      7  C   UNL d   1     -41.948-123.491 -47.784  0.00  0.00     0.028 C 
ATOM      8  N   UNL d   1     -41.169-123.168 -48.941  0.00  0.00    -0.141 NA
ATOM      9  N   UNL d   1     -41.123-123.005 -49.747  0.00  0.00    -0.121 NA
ENDBRANCH   1   2
BRANCH   1  10
ATOM     10  C   UNL d   1     -41.155-123.166 -51.468  0.00  0.00     0.038 C 
BRANCH  10  11
ATOM     11  C   UNL d   1     -41.186-123.125 -52.292  0.00  0.00     0.007 A 
ATOM     12  C   UNL d   1     -41.227-123.817 -52.740  0.00  0.00     0.001 A 
ATOM     13  C   UNL d   1     -41.258-123.776 -53.564  0.00  0.00     0.000 A 
ATOM     14  C   UNL d   1     -41.249-123.041 -53.938  0.00  0.00     0.000 A 
ATOM     15  C   UNL d   1     -41.209-122.348 -53.490  0.00  0.00     0.000 A 
ATOM     16  C   UNL d   1     -41.280-123.000 -54.762  0.00  0.00     0.000 C 
ATOM     17  C   UNL d   1     -41.177-122.389 -52.666  0.00  0.00     0.001 A 
ENDBRANCH  10  11
ENDBRANCH   1  10
TORSDOF 3
ENDMDL
