MODEL 1
REMARK VINA RESULT:      37.7      0.000      0.000
REMARK  5 active torsions:
REMARK  status: ('A' for Active; 'I' for Inactive)
REMARK    1  A    between atoms: C_2  and  C_1 
REMARK    2  A    between atoms: C_3  and  C_1 
REMARK    3  A    between atoms: C_4  and  C_2 
REMARK    4  A    between atoms: C_8  and  C_3 
REMARK    5  A    between atoms: O_18  and  C_10 
ROOT
ATOM      1  C   UNL d   1      59.020  49.647  51.329  0.00  0.00     0.196 C 
ATOM      2  O   UNL d   1      58.990  49.706  52.154  0.00  0.00    -0.287 OA
ENDROOT
BRANCH   1   3
ATOM      3  C   UNL d   1      59.749  49.608  50.943  0.00  0.00     0.042 C 
BRANCH   3   4
ATOM      4  C   UNL d   1      60.468  49.230  51.097  0.00  0.00     0.003 C 
BRANCH   4   5
ATOM      5  C   UNL d   1      60.851  48.566  50.790  0.00  0.00     0.000 A 
ATOM      6  C   UNL d   1      60.722  47.826  51.136  0.00  0.00     0.003 A 
ATOM      7  C   UNL d   1      61.104  47.159  50.830  0.00  0.00     0.042 A 
ATOM      8  C   UNL d   1      61.610  47.239  50.183  0.00  0.00     0.196 A 
ATOM      9  C   UNL d   1      61.732  47.983  49.843  0.00  0.00     0.042 A 
ATOM     10  O   UNL d   1      61.992  46.576  49.876  0.00  0.00    -0.287 OA
ATOM     11  C   UNL d   1      61.355  48.642  50.144  0.00  0.00     0.003 A 
ENDBRANCH   4   5
ENDBRANCH   3   4
ENDBRANCH   1   3
BRANCH   1  12
ATOM     12  C   UNL d   1      58.309  49.629  50.903  0.00  0.00     0.039 A 
ATOM     13  C   UNL d   1      57.585  49.537  51.287  0.00  0.00     0.005 A 
ATOM     14  C   UNL d   1      56.886  49.521  50.848  0.00  0.00     0.024 A 
ATOM     15  C   UNL d   1      56.912  49.596  50.025  0.00  0.00     0.094 A 
ATOM     16  C   UNL d   1      57.648  49.689  49.642  0.00  0.00     0.024 A 
ATOM     17  C   UNL d   1      58.343  49.705  50.080  0.00  0.00     0.005 A 
BRANCH  15  18
ATOM     18  O   UNL d   1      56.214  49.580  49.587  0.00  0.00    -0.328 OA
ATOM     19  C   UNL d   1      56.038  48.925  49.117  0.00  0.00     0.181 C 
ENDBRANCH  15  18
ENDBRANCH   1  12
TORSDOF 5
ENDMDL
