MODEL 1
REMARK VINA RESULT:      32.5      0.000      0.000
REMARK  6 active torsions:
REMARK  status: ('A' for Active; 'I' for Inactive)
REMARK    1  A    between atoms: O_8  and  C_1 
REMARK    2  A    between atoms: C_2  and  C_3 
REMARK    3  A    between atoms: C_3  and  O_8 
REMARK    4  A    between atoms: C_4  and  S_17 
REMARK    5  A    between atoms: C_23  and  C_14 
REMARK    6  A    between atoms: S_17  and  C_23 
ROOT
ATOM      1  C   UNL d   1      14.932  13.441  -0.515  0.00  0.00     0.167 A 
ATOM      2  C   UNL d   1      15.345  12.730  -0.623  0.00  0.00     0.222 A 
ATOM      3  C   UNL d   1      15.067  12.196  -1.194  0.00  0.00     0.069 A 
ATOM      4  C   UNL d   1      14.262  13.613  -0.963  0.00  0.00     0.151 A 
ATOM      5  C   UNL d   1      14.396  12.368  -1.643  0.00  0.00     0.110 A 
ATOM      6  O   UNL d   1      13.997  13.076  -1.524  0.00  0.00    -0.302 OA
ATOM      7  O   UNL d   1      16.009  12.560  -0.179  0.00  0.00    -0.284 OA
ENDROOT
BRANCH   5   8
ATOM      8  C   UNL d   1      14.129  11.832  -2.206  0.00  0.00     0.063 C 
BRANCH   8   9
ATOM      9  S   UNL d   1      13.399  12.133  -2.453  0.00  0.00    -0.046 SA
BRANCH   9  10
ATOM     10  C   UNL d   1      13.321  12.460  -3.200  0.00  0.00     0.194 A 
ATOM     11  N   UNL d   1      13.270  13.276  -3.284  0.00  0.00    -0.221 NA
ATOM     12  C   UNL d   1      13.193  13.603  -4.025  0.00  0.00     0.085 A 
ATOM     13  C   UNL d   1      13.142  14.419  -4.109  0.00  0.00     0.021 C 
ATOM     14  C   UNL d   1      13.165  13.119  -4.694  0.00  0.00     0.038 A 
ATOM     15  C   UNL d   1      13.217  12.300  -4.596  0.00  0.00     0.085 A 
ATOM     16  N   UNL d   1      13.295  11.980  -3.850  0.00  0.00    -0.221 NA
ATOM     17  C   UNL d   1      13.190  11.816  -5.265  0.00  0.00     0.021 C 
ENDBRANCH   9  10
ENDBRANCH   8   9
ENDBRANCH   5   8
BRANCH   1  18
ATOM     18  O   UNL d   1      15.033  14.095  -0.015  0.00  0.00    -0.266 OA
BRANCH  18  19
ATOM     19  C   UNL d   1      14.592  14.780  -0.136  0.00  0.00     0.323 C 
ATOM     20  O   UNL d   1      13.791  14.771  -0.017  0.00  0.00    -0.257 OA
BRANCH  19  21
ATOM     21  C   UNL d   1      14.961  15.484  -0.381  0.00  0.00     0.164 A 
ATOM     22  O   UNL d   1      14.740  15.917  -1.033  0.00  0.00    -0.295 OA
ATOM     23  C   UNL d   1      15.249  16.562  -1.066  0.00  0.00     0.134 A 
ATOM     24 BR   UNL d   1      15.224  17.147  -1.640  0.00  0.00    -0.022 Br
ATOM     25  C   UNL d   1      15.759  16.518  -0.453  0.00  0.00     0.034 A 
ATOM     26  C   UNL d   1      15.579  15.848  -0.028  0.00  0.00     0.033 A 
ENDBRANCH  19  21
ENDBRANCH  18  19
ENDBRANCH   1  18
TORSDOF 6
ENDMDL
