MODEL 1
REMARK VINA RESULT:      22.6      0.000      0.000
REMARK  3 active torsions:
REMARK  status: ('A' for Active; 'I' for Inactive)
REMARK    1  A    between atoms: C_8  and  C_2 
REMARK    2  A    between atoms: O_6  and  C_8 
REMARK    3  A    between atoms: C_7  and  O_6 
ROOT
ATOM      1  N   UNL d   1     -57.537 -98.785 -43.817  0.00  0.00    -0.224 NA
ATOM      2  C   UNL d   1     -56.982 -98.793 -44.424  0.00  0.00     0.188 A 
ATOM      3  N   UNL d   1     -57.407 -98.788 -45.129  0.00  0.00    -0.224 NA
ATOM      4  C   UNL d   1     -58.278 -98.775 -44.137  0.00  0.00     0.101 A 
ATOM      5  C   UNL d   1     -58.197 -98.777 -44.958  0.00  0.00     0.101 A 
ATOM      6  C   UNL d   1     -59.026 -98.764 -43.829  0.00  0.00     0.021 A 
ATOM      7  C   UNL d   1     -58.867 -98.768 -45.440  0.00  0.00     0.021 A 
ATOM      8  C   UNL d   1     -59.619 -98.757 -45.099  0.00  0.00     0.002 A 
ATOM      9  C   UNL d   1     -59.700 -98.755 -44.278  0.00  0.00     0.002 A 
ENDROOT
BRANCH   2  10
ATOM     10  C   UNL d   1     -56.255 -98.804 -44.766  0.00  0.00     0.161 C 
BRANCH  10  11
ATOM     11  O   UNL d   1     -55.652 -99.001 -44.343  0.00  0.00    -0.302 OA
BRANCH  11  12
ATOM     12  C   UNL d   1     -55.326 -99.785 -44.389  0.00  0.00     0.100 A 
ATOM     13  C   UNL d   1     -55.034-100.135 -43.732  0.00  0.00     0.023 A 
ATOM     14  C   UNL d   1     -55.042 -99.750 -43.008  0.00  0.00     0.002 C 
ATOM     15  C   UNL d   1     -54.719-100.901 -43.789  0.00  0.00     0.002 A 
ATOM     16  C   UNL d   1     -54.711-101.288 -44.517  0.00  0.00     0.000 A 
ATOM     17  C   UNL d   1     -55.018-100.924 -45.215  0.00  0.00     0.002 A 
ATOM     18  C   UNL d   1     -55.331-100.149 -45.129  0.00  0.00     0.025 A 
ENDBRANCH  11  12
ENDBRANCH  10  11
ENDBRANCH   2  10
TORSDOF 3
ENDMDL
