MODEL 1
REMARK VINA RESULT:      -2.9      0.000      0.000
REMARK  4 active torsions:
REMARK  status: ('A' for Active; 'I' for Inactive)
REMARK       I    between atoms: N_3  and  C_1 
REMARK       I    between atoms: N_7  and  C_1 
REMARK    1  A    between atoms: C_2  and  N_3 
REMARK    2  A    between atoms: C_4  and  C_5 
REMARK    3  A    between atoms: O_13  and  C_4 
REMARK    4  A    between atoms: C_15  and  N_7 
ROOT
ATOM      1  C   UNL d   1      32.950  18.447 -23.683  0.00  0.00     0.097 A 
ATOM      2  C   UNL d   1      33.041  19.567 -22.804  0.00  0.00     0.065 A 
ATOM      3  C   UNL d   1      32.931  18.758 -22.920  0.00  0.00     0.025 A 
ATOM      4  C   UNL d   1      33.077  18.945 -24.330  0.00  0.00     0.075 A 
ATOM      5  C   UNL d   1      33.169  20.070 -23.457  0.00  0.00     0.006 A 
ATOM      6  C   UNL d   1      33.186  19.753 -24.214  0.00  0.00     0.013 A 
ATOM      7 CL   UNL d   1      33.095  18.630 -25.096  0.00  0.00    -0.081 Cl
ENDROOT
BRANCH   1   8
ATOM      8  N   UNL d   1      32.840  17.638 -23.800  0.00  0.00    -0.190 NA
ATOM      9  C   UNL d   1      32.085  17.313 -23.741  0.00  0.00     0.369 C 
ATOM     10  N   UNL d   1      31.979  16.502 -23.858  0.00  0.00    -0.191 NA
ATOM     11  O   UNL d   1      31.439  17.797 -23.565  0.00  0.00    -0.242 OA
BRANCH  10  12
ATOM     12  C   UNL d   1      31.222  16.174 -23.799  0.00  0.00     0.086 A 
ATOM     13  C   UNL d   1      30.727  16.168 -24.464  0.00  0.00     0.019 A 
ATOM     14  C   UNL d   1      29.974  15.838 -24.394  0.00  0.00     0.002 A 
ATOM     15  C   UNL d   1      29.717  15.520 -23.676  0.00  0.00     0.000 A 
ATOM     16  C   UNL d   1      30.213  15.532 -23.029  0.00  0.00     0.002 A 
ATOM     17  C   UNL d   1      30.965  15.856 -23.081  0.00  0.00     0.019 A 
ENDBRANCH  10  12
ENDBRANCH   1   8
BRANCH   2  18
ATOM     18  C   UNL d   1      33.023  19.885 -22.035  0.00  0.00     0.296 C 
ATOM     19  O   UNL d   1      33.169  19.396 -21.386  0.00  0.00    -0.259 OA
BRANCH  18  20
ATOM     20  O   UNL d   1      32.860  20.685 -21.922  0.00  0.00    -0.296 OA
ATOM     21  C   UNL d   1      32.831  20.997 -21.158  0.00  0.00     0.185 C 
ENDBRANCH  18  20
ENDBRANCH   2  18
TORSDOF 4
ENDMDL
MODEL 2
REMARK VINA RESULT:      -2.5      1.217      4.360
REMARK  4 active torsions:
REMARK  status: ('A' for Active; 'I' for Inactive)
REMARK       I    between atoms: N_3  and  C_1 
REMARK       I    between atoms: N_7  and  C_1 
REMARK    1  A    between atoms: C_2  and  N_3 
REMARK    2  A    between atoms: C_4  and  C_5 
REMARK    3  A    between atoms: O_13  and  C_4 
REMARK    4  A    between atoms: C_15  and  N_7 
ROOT
ATOM      1  C   UNL d   1      32.805  18.806 -23.636  0.00  0.00     0.097 A 
ATOM      2  C   UNL d   1      31.966  17.677 -23.872  0.00  0.00     0.065 A 
ATOM      3  C   UNL d   1      32.382  18.160 -23.349  0.00  0.00     0.025 A 
ATOM      4  C   UNL d   1      32.813  18.969 -24.445  0.00  0.00     0.075 A 
ATOM      5  C   UNL d   1      31.974  17.842 -24.690  0.00  0.00     0.006 A 
ATOM      6  C   UNL d   1      32.398  18.487 -24.968  0.00  0.00     0.013 A 
ATOM      7 CL   UNL d   1      33.240  19.619 -24.731  0.00  0.00    -0.081 Cl
ENDROOT
BRANCH   1   8
ATOM      8  N   UNL d   1      33.221  19.289 -23.113  0.00  0.00    -0.190 NA
ATOM      9  C   UNL d   1      32.820  19.860 -22.673  0.00  0.00     0.369 C 
ATOM     10  N   UNL d   1      33.240  20.342 -22.150  0.00  0.00    -0.191 NA
ATOM     11  O   UNL d   1      32.003  19.947 -22.756  0.00  0.00    -0.242 OA
BRANCH  10  12
ATOM     12  C   UNL d   1      32.839  20.916 -21.708  0.00  0.00     0.086 A 
ATOM     13  C   UNL d   1      32.430  20.690 -21.023  0.00  0.00     0.019 A 
ATOM     14  C   UNL d   1      32.034  21.270 -20.589  0.00  0.00     0.002 A 
ATOM     15  C   UNL d   1      32.043  22.059 -20.832  0.00  0.00     0.000 A 
ATOM     16  C   UNL d   1      32.449  22.269 -21.508  0.00  0.00     0.002 A 
ATOM     17  C   UNL d   1      32.849  21.705 -21.951  0.00  0.00     0.019 A 
ENDBRANCH  10  12
ENDBRANCH   1   8
BRANCH   2  18
ATOM     18  C   UNL d   1      31.537  17.023 -23.587  0.00  0.00     0.296 C 
ATOM     19  O   UNL d   1      31.918  16.451 -23.129  0.00  0.00    -0.259 OA
BRANCH  18  20
ATOM     20  O   UNL d   1      30.735  16.947 -23.760  0.00  0.00    -0.296 OA
ATOM     21  C   UNL d   1      30.361  16.216 -23.676  0.00  0.00     0.185 C 
ENDBRANCH  18  20
ENDBRANCH   2  18
TORSDOF 4
ENDMDL
MODEL 3
REMARK VINA RESULT:      -2.1      2.034      3.363
REMARK  4 active torsions:
REMARK  status: ('A' for Active; 'I' for Inactive)
REMARK       I    between atoms: N_3  and  C_1 
REMARK       I    between atoms: N_7  and  C_1 
REMARK    1  A    between atoms: C_2  and  N_3 
REMARK    2  A    between atoms: C_4  and  C_5 
REMARK    3  A    between atoms: O_13  and  C_4 
REMARK    4  A    between atoms: C_15  and  N_7 
ROOT
ATOM      1  C   UNL d   1      32.932  20.930 -21.722  0.00  0.00     0.097 A 
ATOM      2  C   UNL d   1      32.794  22.326 -21.980  0.00  0.00     0.065 A 
ATOM      3  C   UNL d   1      33.101  21.589 -22.186  0.00  0.00     0.025 A 
ATOM      4  C   UNL d   1      32.455  21.006 -21.052  0.00  0.00     0.075 A 
ATOM      5  C   UNL d   1      32.312  22.404 -21.303  0.00  0.00     0.006 A 
ATOM      6  C   UNL d   1      32.148  21.742 -20.846  0.00  0.00     0.013 A 
ATOM      7 CL   UNL d   1      32.286  20.342 -20.587  0.00  0.00    -0.081 Cl
ENDROOT
BRANCH   1   8
ATOM      8  N   UNL d   1      33.240  20.193 -21.928  0.00  0.00    -0.190 NA
ATOM      9  C   UNL d   1      32.899  19.763 -22.543  0.00  0.00     0.369 C 
ATOM     10  N   UNL d   1      33.210  19.025 -22.748  0.00  0.00    -0.191 NA
ATOM     11  O   UNL d   1      32.251  20.070 -22.954  0.00  0.00    -0.242 OA
BRANCH  10  12
ATOM     12  C   UNL d   1      32.870  18.592 -23.365  0.00  0.00     0.086 A 
ATOM     13  C   UNL d   1      32.990  18.836 -24.149  0.00  0.00     0.019 A 
ATOM     14  C   UNL d   1      32.646  18.397 -24.757  0.00  0.00     0.002 A 
ATOM     15  C   UNL d   1      32.190  17.729 -24.590  0.00  0.00     0.000 A 
ATOM     16  C   UNL d   1      32.079  17.499 -23.815  0.00  0.00     0.002 A 
ATOM     17  C   UNL d   1      32.414  17.924 -23.198  0.00  0.00     0.019 A 
ENDBRANCH  10  12
ENDBRANCH   1   8
BRANCH   2  18
ATOM     18  C   UNL d   1      32.962  22.995 -22.445  0.00  0.00     0.296 C 
ATOM     19  O   UNL d   1      33.237  23.686 -22.086  0.00  0.00    -0.259 OA
BRANCH  18  20
ATOM     20  O   UNL d   1      32.855  22.968 -23.262  0.00  0.00    -0.296 OA
ATOM     21  C   UNL d   1      32.995  23.641 -23.720  0.00  0.00     0.185 C 
ENDBRANCH  18  20
ENDBRANCH   2  18
TORSDOF 4
ENDMDL
MODEL 4
REMARK VINA RESULT:      -1.9      1.020      1.505
REMARK  4 active torsions:
REMARK  status: ('A' for Active; 'I' for Inactive)
REMARK       I    between atoms: N_3  and  C_1 
REMARK       I    between atoms: N_7  and  C_1 
REMARK    1  A    between atoms: C_2  and  N_3 
REMARK    2  A    between atoms: C_4  and  C_5 
REMARK    3  A    between atoms: O_13  and  C_4 
REMARK    4  A    between atoms: C_15  and  N_7 
ROOT
ATOM      1  C   UNL d   1      33.212  19.957 -23.331  0.00  0.00     0.097 A 
ATOM      2  C   UNL d   1      33.155  20.699 -22.114  0.00  0.00     0.065 A 
ATOM      3  C   UNL d   1      33.183  19.975 -22.508  0.00  0.00     0.025 A 
ATOM      4  C   UNL d   1      33.212  20.662 -23.761  0.00  0.00     0.075 A 
ATOM      5  C   UNL d   1      33.155  21.411 -22.548  0.00  0.00     0.006 A 
ATOM      6  C   UNL d   1      33.183  21.386 -23.368  0.00  0.00     0.013 A 
ATOM      7 CL   UNL d   1      33.241  20.641 -24.589  0.00  0.00    -0.081 Cl
ENDROOT
BRANCH   1   8
ATOM      8  N   UNL d   1      33.241  19.233 -23.725  0.00  0.00    -0.190 NA
ATOM      9  C   UNL d   1      32.585  18.734 -23.716  0.00  0.00     0.369 C 
ATOM     10  N   UNL d   1      32.617  18.009 -24.112  0.00  0.00    -0.191 NA
ATOM     11  O   UNL d   1      31.900  18.959 -23.313  0.00  0.00    -0.242 OA
BRANCH  10  12
ATOM     12  C   UNL d   1      31.959  17.507 -24.104  0.00  0.00     0.086 A 
ATOM     13  C   UNL d   1      31.363  17.606 -24.672  0.00  0.00     0.019 A 
ATOM     14  C   UNL d   1      30.712  17.100 -24.655  0.00  0.00     0.002 A 
ATOM     15  C   UNL d   1      30.653  16.506 -24.083  0.00  0.00     0.000 A 
ATOM     16  C   UNL d   1      31.246  16.419 -23.529  0.00  0.00     0.002 A 
ATOM     17  C   UNL d   1      31.900  16.914 -23.532  0.00  0.00     0.019 A 
ENDBRANCH  10  12
ENDBRANCH   1   8
BRANCH   2  18
ATOM     18  C   UNL d   1      33.126  20.722 -21.283  0.00  0.00     0.296 C 
ATOM     19  O   UNL d   1      33.096  20.017 -20.854  0.00  0.00    -0.259 OA
BRANCH  18  20
ATOM     20  O   UNL d   1      33.127  21.445 -20.888  0.00  0.00    -0.296 OA
ATOM     21  C   UNL d   1      33.182  21.468 -20.065  0.00  0.00     0.185 C 
ENDBRANCH  18  20
ENDBRANCH   2  18
TORSDOF 4
ENDMDL
MODEL 5
REMARK VINA RESULT:      -1.8      2.674      4.246
REMARK  4 active torsions:
REMARK  status: ('A' for Active; 'I' for Inactive)
REMARK       I    between atoms: N_3  and  C_1 
REMARK       I    between atoms: N_7  and  C_1 
REMARK    1  A    between atoms: C_2  and  N_3 
REMARK    2  A    between atoms: C_4  and  C_5 
REMARK    3  A    between atoms: O_13  and  C_4 
REMARK    4  A    between atoms: C_15  and  N_7 
ROOT
ATOM      1  C   UNL d   1      32.848  22.477 -21.828  0.00  0.00     0.097 A 
ATOM      2  C   UNL d   1      32.731  22.820 -20.448  0.00  0.00     0.065 A 
ATOM      3  C   UNL d   1      33.037  22.333 -21.039  0.00  0.00     0.025 A 
ATOM      4  C   UNL d   1      32.353  23.108 -22.027  0.00  0.00     0.075 A 
ATOM      5  C   UNL d   1      32.231  23.457 -20.648  0.00  0.00     0.006 A 
ATOM      6  C   UNL d   1      32.047  23.595 -21.436  0.00  0.00     0.013 A 
ATOM      7 CL   UNL d   1      32.165  23.251 -22.821  0.00  0.00    -0.081 Cl
ENDROOT
BRANCH   1   8
ATOM      8  N   UNL d   1      33.154  21.991 -22.420  0.00  0.00    -0.190 NA
ATOM      9  C   UNL d   1      32.932  21.198 -22.455  0.00  0.00     0.369 C 
ATOM     10  N   UNL d   1      33.240  20.713 -23.049  0.00  0.00    -0.191 NA
ATOM     11  O   UNL d   1      32.403  20.891 -21.900  0.00  0.00    -0.242 OA
BRANCH  10  12
ATOM     12  C   UNL d   1      33.018  19.917 -23.087  0.00  0.00     0.086 A 
ATOM     13  C   UNL d   1      33.238  19.403 -22.474  0.00  0.00     0.019 A 
ATOM     14  C   UNL d   1      33.010  18.611 -22.522  0.00  0.00     0.002 A 
ATOM     15  C   UNL d   1      32.573  18.335 -23.165  0.00  0.00     0.000 A 
ATOM     16  C   UNL d   1      32.363  18.850 -23.762  0.00  0.00     0.002 A 
ATOM     17  C   UNL d   1      32.580  19.641 -23.731  0.00  0.00     0.019 A 
ENDBRANCH  10  12
ENDBRANCH   1   8
BRANCH   2  18
ATOM     18  C   UNL d   1      32.919  22.677 -19.650  0.00  0.00     0.296 C 
ATOM     19  O   UNL d   1      33.135  21.917 -19.409  0.00  0.00    -0.259 OA
BRANCH  18  20
ATOM     20  O   UNL d   1      32.890  23.292 -19.102  0.00  0.00    -0.296 OA
ATOM     21  C   UNL d   1      33.114  23.159 -18.319  0.00  0.00     0.185 C 
ENDBRANCH  18  20
ENDBRANCH   2  18
TORSDOF 4
ENDMDL
