MODEL 1
REMARK VINA RESULT:      57.4      0.000      0.000
REMARK  6 active torsions:
REMARK  status: ('A' for Active; 'I' for Inactive)
REMARK    1  A    between atoms: C_2  and  C_1 
REMARK       I    between atoms: N_10  and  C_1 
REMARK    2  A    between atoms: C_3  and  C_4 
REMARK    3  A    between atoms: C_16  and  N_10 
REMARK    4  A    between atoms: C_11  and  O_12 
REMARK    5  A    between atoms: O_12  and  C_17 
REMARK    6  A    between atoms: C_17  and  C_16 
ROOT
ATOM      1  C   UNL d   1      60.995  48.307  50.593  0.00  0.00     0.279 C 
ATOM      2  O   UNL d   1      61.589  48.794  50.892  0.00  0.00    -0.265 OA
ATOM      3  N   UNL d   1      60.226  48.597  50.510  0.00  0.00    -0.204 NA
ENDROOT
BRANCH   1   4
ATOM      4  C   UNL d   1      61.166  47.533  50.376  0.00  0.00     0.058 A 
ATOM      5  C   UNL d   1      61.091  46.923  50.927  0.00  0.00     0.004 A 
ATOM      6  C   UNL d   1      61.262  46.152  50.715  0.00  0.00    -0.004 A 
ATOM      7  C   UNL d   1      61.512  45.979  49.939  0.00  0.00    -0.023 A 
ATOM      8  C   UNL d   1      61.587  46.589  49.388  0.00  0.00    -0.004 A 
ATOM      9  C   UNL d   1      61.414  47.365  49.607  0.00  0.00     0.004 A 
BRANCH   7  10
ATOM     10  C   UNL d   1      61.686  45.199  49.717  0.00  0.00     0.019 C 
ATOM     11  C   UNL d   1      61.867  44.413  49.491  0.00  0.00     0.004 C 
ATOM     12  C   UNL d   1      61.020  44.924  50.142  0.00  0.00     0.004 C 
ATOM     13  C   UNL d   1      62.348  45.467  49.295  0.00  0.00     0.004 C 
ENDBRANCH   7  10
ENDBRANCH   1   4
BRANCH   3  14
ATOM     14  C   UNL d   1      60.052  49.374  50.727  0.00  0.00     0.129 C 
BRANCH  14  15
ATOM     15  C   UNL d   1      59.325  49.707  50.523  0.00  0.00     0.143 C 
BRANCH  15  16
ATOM     16  O   UNL d   1      58.624  49.371  50.800  0.00  0.00    -0.303 OA
BRANCH  16  17
ATOM     17  C   UNL d   1      57.912  49.456  50.368  0.00  0.00     0.100 A 
ATOM     18  C   UNL d   1      57.191  49.404  50.749  0.00  0.00     0.025 A 
ATOM     19  C   UNL d   1      56.497  49.489  50.318  0.00  0.00     0.002 A 
ATOM     20  C   UNL d   1      56.529  49.624  49.505  0.00  0.00     0.000 A 
ATOM     21  C   UNL d   1      57.255  49.675  49.123  0.00  0.00     0.002 A 
ATOM     22  C   UNL d   1      57.944  49.591  49.555  0.00  0.00     0.025 A 
ENDBRANCH  16  17
ENDBRANCH  15  16
ENDBRANCH  14  15
ENDBRANCH   3  14
TORSDOF 6
ENDMDL
