MODEL 1
REMARK VINA RESULT:      -5.3      0.000      0.000
REMARK  3 active torsions:
REMARK  status: ('A' for Active; 'I' for Inactive)
REMARK       I    between atoms: N_2  and  C_1 
REMARK    1  A    between atoms: C_9  and  C_1 
REMARK    2  A    between atoms: C_6  and  N_5 
REMARK    3  A    between atoms: N_8  and  C_7 
ROOT
ATOM      1  C   UNL d   1      58.850  -1.201  29.015  0.00  0.00     0.265 C 
ATOM      2  N   UNL d   1      58.392  -0.991  29.667  0.00  0.00    -0.269 N 
ATOM      3  N   UNL d   1      57.477  -0.576  30.972  0.00  0.00    -0.285 N 
ATOM      4  C   UNL d   1      58.166  -1.576  30.212  0.00  0.00     0.102 A 
ATOM      5  C   UNL d   1      58.161  -0.209  29.777  0.00  0.00     0.102 A 
ATOM      6  C   UNL d   1      57.705  -1.365  30.868  0.00  0.00     0.101 A 
ATOM      7  C   UNL d   1      57.703   0.009  30.426  0.00  0.00     0.101 A 
ATOM      8  O   UNL d   1      59.081  -0.623  28.464  0.00  0.00    -0.267 OA
ENDROOT
BRANCH   3   9
ATOM      9  C   UNL d   1      57.017  -0.365  31.627  0.00  0.00     0.170 A 
ATOM     10  N   UNL d   1      56.944   0.425  31.838  0.00  0.00    -0.129 NA
ATOM     11  N   UNL d   1      56.487   0.635  32.490  0.00  0.00    -0.129 NA
ATOM     12  C   UNL d   1      56.096   0.053  32.938  0.00  0.00     0.170 A 
ATOM     13  C   UNL d   1      56.175  -0.739  32.717  0.00  0.00     0.042 A 
ATOM     14  C   UNL d   1      56.633  -0.949  32.065  0.00  0.00     0.042 A 
BRANCH  12  15
ATOM     15  N   UNL d   1      55.639   0.262  33.589  0.00  0.00    -0.284 N 
ATOM     16  C   UNL d   1      54.837   0.430  33.498  0.00  0.00     0.108 A 
ATOM     17  C   UNL d   1      54.379   0.640  34.149  0.00  0.00     0.142 A 
ATOM     18  O   UNL d   1      54.726   0.681  34.890  0.00  0.00    -0.300 OA
ATOM     19  C   UNL d   1      55.522   0.515  34.988  0.00  0.00     0.142 A 
ATOM     20  C   UNL d   1      55.992   0.303  34.341  0.00  0.00     0.108 A 
ENDBRANCH  12  15
ENDBRANCH   3   9
BRANCH   1  21
ATOM     21  C   UNL d   1      59.085  -1.986  28.899  0.00  0.00     0.057 A 
ATOM     22  C   UNL d   1      59.856  -2.228  29.083  0.00  0.00     0.005 A 
ATOM     23  C   UNL d   1      60.085  -3.006  28.966  0.00  0.00     0.000 A 
ATOM     24  C   UNL d   1      60.854  -3.236  29.153  0.00  0.00     0.000 C 
ATOM     25  C   UNL d   1      59.537  -3.544  28.663  0.00  0.00     0.000 A 
ATOM     26  C   UNL d   1      58.765  -3.311  28.477  0.00  0.00     0.000 A 
ATOM     27  C   UNL d   1      58.548  -2.532  28.597  0.00  0.00     0.005 A 
ENDBRANCH   1  21
TORSDOF 3
ENDMDL
