MODEL 1
REMARK VINA RESULT:     129.4      0.000      0.000
REMARK  6 active torsions:
REMARK  status: ('A' for Active; 'I' for Inactive)
REMARK    1  A    between atoms: N_3  and  C_1 
REMARK    2  A    between atoms: S_2  and  C_10 
REMARK    3  A    between atoms: N_8  and  S_2 
REMARK       I    between atoms: C_9  and  N_3 
REMARK    4  A    between atoms: C_23  and  N_4 
REMARK    5  A    between atoms: C_13  and  C_9 
REMARK    6  A    between atoms: O_25  and  C_14 
ROOT
ATOM      1  N   UNL d   1      61.388  46.258  50.559  0.00  0.00    -0.184 NA
ATOM      2  C   UNL d   1      61.676  45.893  49.867  0.00  0.00     0.281 C 
ATOM      3  O   UNL d   1      61.752  46.335  49.173  0.00  0.00    -0.265 OA
ENDROOT
BRANCH   2   4
ATOM      4  C   UNL d   1      61.883  45.092  49.877  0.00  0.00     0.058 A 
ATOM      5  C   UNL d   1      62.477  44.820  49.376  0.00  0.00     0.005 A 
ATOM      6  C   UNL d   1      62.685  44.021  49.385  0.00  0.00     0.013 A 
ATOM      7  C   UNL d   1      62.298  43.495  49.894  0.00  0.00     0.104 A 
ATOM      8  C   UNL d   1      61.697  43.779  50.398  0.00  0.00     0.013 A 
ATOM      9  C   UNL d   1      61.487  44.578  50.392  0.00  0.00     0.005 A 
BRANCH   7  10
ATOM     10  S   UNL d   1      62.505  42.696  49.904  0.00  0.00     0.272 S 
ATOM     11  O   UNL d   1      62.762  42.810  50.690  0.00  0.00    -0.200 OA
ATOM     12  O   UNL d   1      62.252  42.588  49.131  0.00  0.00    -0.200 OA
BRANCH  10  13
ATOM     13  N   UNL d   1      62.712  41.899  49.916  0.00  0.00    -0.225 N 
ATOM     14  C   UNL d   1      62.691  41.467  49.220  0.00  0.00     0.118 A 
ATOM     15  C   UNL d   1      62.898  40.668  49.229  0.00  0.00     0.142 A 
ATOM     16  O   UNL d   1      63.125  40.307  49.935  0.00  0.00    -0.300 OA
ATOM     17  C   UNL d   1      63.145  40.747  50.632  0.00  0.00     0.142 A 
ATOM     18  C   UNL d   1      62.937  41.546  50.623  0.00  0.00     0.118 A 
ENDBRANCH  10  13
ENDBRANCH   7  10
ENDBRANCH   2   4
BRANCH   1  19
ATOM     19  C   UNL d   1      61.181  47.067  50.543  0.00  0.00     0.182 A 
ATOM     20  N   UNL d   1      61.156  47.564  51.192  0.00  0.00    -0.283 N 
ATOM     21  C   UNL d   1      60.926  48.316  50.941  0.00  0.00     0.094 A 
ATOM     22  C   UNL d   1      60.808  49.036  51.354  0.00  0.00     0.111 A 
ATOM     23  C   UNL d   1      60.806  48.287  50.131  0.00  0.00     0.050 A 
ATOM     24  C   UNL d   1      60.574  49.703  50.938  0.00  0.00     0.026 A 
ATOM     25  C   UNL d   1      60.452  49.682  50.125  0.00  0.00     0.003 A 
ATOM     26  C   UNL d   1      60.569  48.970  49.719  0.00  0.00     0.008 A 
ATOM     27  S   UNL d   1      60.961  47.518  49.875  0.00  0.00    -0.048 SA
BRANCH  20  28
ATOM     28  C   UNL d   1      61.331  47.357  51.972  0.00  0.00     0.082 C 
ATOM     29  C   UNL d   1      60.772  47.187  52.554  0.00  0.00     0.021 C 
ENDBRANCH  20  28
BRANCH  22  30
ATOM     30  O   UNL d   1      60.926  49.067  52.159  0.00  0.00    -0.327 OA
ATOM     31  C   UNL d   1      60.567  49.651  52.606  0.00  0.00     0.181 C 
ENDBRANCH  22  30
ENDBRANCH   1  19
TORSDOF 6
ENDMDL
