MODEL 1
REMARK VINA RESULT:      -7.8      0.000      0.000
REMARK  6 active torsions:
REMARK  status: ('A' for Active; 'I' for Inactive)
REMARK    1  A    between atoms: C_2  and  S_1 
REMARK    2  A    between atoms: N_3  and  S_1 
REMARK    3  A    between atoms: C_11  and  N_3 
REMARK    4  A    between atoms: O_13  and  C_5 
REMARK    5  A    between atoms: C_14  and  C_11 
REMARK    6  A    between atoms: C_15  and  O_13 
ROOT
ATOM      1  S   UNL d   1      52.248  34.123  53.493  0.00  0.00     0.285 S 
ATOM      2  O   UNL d   1      52.730  34.464  52.916  0.00  0.00    -0.198 OA
ATOM      3  O   UNL d   1      51.766  33.783  54.070  0.00  0.00    -0.198 OA
ENDROOT
BRANCH   1   4
ATOM      4  C   UNL d   1      52.912  33.790  53.851  0.00  0.00     0.107 A 
ATOM      5  C   UNL d   1      53.167  33.038  53.630  0.00  0.00     0.040 A 
ATOM      6  C   UNL d   1      53.832  32.705  53.988  0.00  0.00     0.128 A 
ATOM      7  C   UNL d   1      54.241  33.123  54.567  0.00  0.00     0.163 A 
ATOM      8  C   UNL d   1      53.986  33.873  54.789  0.00  0.00     0.032 A 
ATOM      9  F   UNL d   1      54.905  32.789  54.925  0.00  0.00    -0.202 F 
ATOM     10  C   UNL d   1      53.322  34.207  54.431  0.00  0.00     0.015 A 
BRANCH   6  11
ATOM     11  O   UNL d   1      54.086  31.954  53.766  0.00  0.00    -0.303 OA
BRANCH  11  12
ATOM     12  C   UNL d   1      53.543  31.338  53.705  0.00  0.00     0.123 C 
ATOM     13  C   UNL d   1      53.784  30.596  53.421  0.00  0.00     0.029 C 
ENDBRANCH  11  12
ENDBRANCH   6  11
ENDBRANCH   1   4
BRANCH   1  14
ATOM     14  N   UNL d   1      51.584  34.457  53.135  0.00  0.00    -0.157 NA
BRANCH  14  15
ATOM     15  C   UNL d   1      50.920  33.989  52.982  0.00  0.00     0.112 C 
BRANCH  15  16
ATOM     16  C   UNL d   1      50.265  34.316  52.601  0.00  0.00     0.020 A 
ATOM     17  C   UNL d   1      50.143  34.162  51.802  0.00  0.00     0.002 A 
ATOM     18  C   UNL d   1      49.491  34.488  51.424  0.00  0.00     0.000 A 
ATOM     19  C   UNL d   1      48.963  34.966  51.840  0.00  0.00     0.000 A 
ATOM     20  C   UNL d   1      49.092  35.117  52.643  0.00  0.00     0.000 A 
ATOM     21  C   UNL d   1      49.747  34.789  53.024  0.00  0.00     0.002 A 
ENDBRANCH  15  16
ENDBRANCH  14  15
ENDBRANCH   1  14
TORSDOF 6
ENDMDL
MODEL 2
REMARK VINA RESULT:      -7.6      1.526      4.131
REMARK  6 active torsions:
REMARK  status: ('A' for Active; 'I' for Inactive)
REMARK    1  A    between atoms: C_2  and  S_1 
REMARK    2  A    between atoms: N_3  and  S_1 
REMARK    3  A    between atoms: C_11  and  N_3 
REMARK    4  A    between atoms: O_13  and  C_5 
REMARK    5  A    between atoms: C_14  and  C_11 
REMARK    6  A    between atoms: C_15  and  O_13 
ROOT
ATOM      1  S   UNL d   1      53.544  32.692  54.024  0.00  0.00     0.285 S 
ATOM      2  O   UNL d   1      53.246  32.608  54.789  0.00  0.00    -0.198 OA
ATOM      3  O   UNL d   1      53.842  32.776  53.259  0.00  0.00    -0.198 OA
ENDROOT
BRANCH   1   4
ATOM      4  C   UNL d   1      53.359  33.496  54.040  0.00  0.00     0.107 A 
ATOM      5  C   UNL d   1      52.672  33.769  53.678  0.00  0.00     0.040 A 
ATOM      6  C   UNL d   1      52.487  34.573  53.694  0.00  0.00     0.128 A 
ATOM      7  C   UNL d   1      52.991  35.104  54.072  0.00  0.00     0.163 A 
ATOM      8  C   UNL d   1      53.677  34.832  54.434  0.00  0.00     0.032 A 
ATOM      9  F   UNL d   1      52.806  35.908  54.088  0.00  0.00    -0.202 F 
ATOM     10  C   UNL d   1      53.862  34.028  54.418  0.00  0.00     0.015 A 
BRANCH   6  11
ATOM     11  O   UNL d   1      51.801  34.846  53.332  0.00  0.00    -0.303 OA
BRANCH  11  12
ATOM     12  C   UNL d   1      51.295  34.314  52.958  0.00  0.00     0.123 C 
ATOM     13  C   UNL d   1      50.531  34.552  52.734  0.00  0.00     0.029 C 
ENDBRANCH  11  12
ENDBRANCH   6  11
ENDBRANCH   1   4
BRANCH   1  14
ATOM     14  N   UNL d   1      53.728  31.888  54.008  0.00  0.00    -0.157 NA
BRANCH  14  15
ATOM     15  C   UNL d   1      53.484  31.422  53.370  0.00  0.00     0.112 C 
BRANCH  15  16
ATOM     16  C   UNL d   1      53.312  30.623  53.487  0.00  0.00     0.020 A 
ATOM     17  C   UNL d   1      52.692  30.278  53.070  0.00  0.00     0.002 A 
ATOM     18  C   UNL d   1      52.522  29.484  53.186  0.00  0.00     0.000 A 
ATOM     19  C   UNL d   1      52.967  29.035  53.716  0.00  0.00     0.000 A 
ATOM     20  C   UNL d   1      53.589  29.388  54.132  0.00  0.00     0.000 A 
ATOM     21  C   UNL d   1      53.760  30.187  54.015  0.00  0.00     0.002 A 
ENDBRANCH  15  16
ENDBRANCH  14  15
ENDBRANCH   1  14
TORSDOF 6
ENDMDL
MODEL 3
REMARK VINA RESULT:      -7.6      1.921      4.778
REMARK  6 active torsions:
REMARK  status: ('A' for Active; 'I' for Inactive)
REMARK    1  A    between atoms: C_2  and  S_1 
REMARK    2  A    between atoms: N_3  and  S_1 
REMARK    3  A    between atoms: C_11  and  N_3 
REMARK    4  A    between atoms: O_13  and  C_5 
REMARK    5  A    between atoms: C_14  and  C_11 
REMARK    6  A    between atoms: C_15  and  O_13 
ROOT
ATOM      1  S   UNL d   1      51.670  34.187  53.244  0.00  0.00     0.285 S 
ATOM      2  O   UNL d   1      51.321  33.527  53.595  0.00  0.00    -0.198 OA
ATOM      3  O   UNL d   1      52.019  34.847  52.893  0.00  0.00    -0.198 OA
ENDROOT
BRANCH   1   4
ATOM      4  C   UNL d   1      51.015  34.270  52.749  0.00  0.00     0.107 A 
ATOM      5  C   UNL d   1      50.302  34.551  53.051  0.00  0.00     0.040 A 
ATOM      6  C   UNL d   1      49.647  34.634  52.556  0.00  0.00     0.128 A 
ATOM      7  C   UNL d   1      49.706  34.435  51.759  0.00  0.00     0.163 A 
ATOM      8  C   UNL d   1      50.417  34.154  51.457  0.00  0.00     0.032 A 
ATOM      9  F   UNL d   1      49.051  34.518  51.264  0.00  0.00    -0.202 F 
ATOM     10  C   UNL d   1      51.072  34.071  51.952  0.00  0.00     0.015 A 
BRANCH   6  11
ATOM     11  O   UNL d   1      48.936  34.915  52.858  0.00  0.00    -0.303 OA
BRANCH  11  12
ATOM     12  C   UNL d   1      48.904  35.658  53.212  0.00  0.00     0.123 C 
ATOM     13  C   UNL d   1      48.181  35.961  53.485  0.00  0.00     0.029 C 
ENDBRANCH  11  12
ENDBRANCH   6  11
ENDBRANCH   1   4
BRANCH   1  14
ATOM     14  N   UNL d   1      52.325  34.105  53.739  0.00  0.00    -0.157 NA
BRANCH  14  15
ATOM     15  C   UNL d   1      52.765  33.404  53.727  0.00  0.00     0.112 C 
BRANCH  15  16
ATOM     16  C   UNL d   1      53.492  33.369  54.115  0.00  0.00     0.020 A 
ATOM     17  C   UNL d   1      54.142  33.048  53.726  0.00  0.00     0.002 A 
ATOM     18  C   UNL d   1      54.866  33.013  54.112  0.00  0.00     0.000 A 
ATOM     19  C   UNL d   1      54.941  33.296  54.883  0.00  0.00     0.000 A 
ATOM     20  C   UNL d   1      54.283  33.617  55.268  0.00  0.00     0.000 A 
ATOM     21  C   UNL d   1      53.556  33.653  54.880  0.00  0.00     0.002 A 
ENDBRANCH  15  16
ENDBRANCH  14  15
ENDBRANCH   1  14
TORSDOF 6
ENDMDL
MODEL 4
REMARK VINA RESULT:      -7.2      2.482      3.454
REMARK  6 active torsions:
REMARK  status: ('A' for Active; 'I' for Inactive)
REMARK    1  A    between atoms: C_2  and  S_1 
REMARK    2  A    between atoms: N_3  and  S_1 
REMARK    3  A    between atoms: C_11  and  N_3 
REMARK    4  A    between atoms: O_13  and  C_5 
REMARK    5  A    between atoms: C_14  and  C_11 
REMARK    6  A    between atoms: C_15  and  O_13 
ROOT
ATOM      1  S   UNL d   1      53.293  32.078  53.497  0.00  0.00     0.285 S 
ATOM      2  O   UNL d   1      54.089  31.925  53.652  0.00  0.00    -0.198 OA
ATOM      3  O   UNL d   1      52.498  32.230  53.341  0.00  0.00    -0.198 OA
ENDROOT
BRANCH   1   4
ATOM      4  C   UNL d   1      53.173  31.279  53.330  0.00  0.00     0.107 A 
ATOM      5  C   UNL d   1      53.420  30.703  53.866  0.00  0.00     0.040 A 
ATOM      6  C   UNL d   1      53.300  29.904  53.700  0.00  0.00     0.128 A 
ATOM      7  C   UNL d   1      52.932  29.681  52.997  0.00  0.00     0.163 A 
ATOM      8  C   UNL d   1      52.686  30.255  52.462  0.00  0.00     0.032 A 
ATOM      9  F   UNL d   1      52.812  28.882  52.831  0.00  0.00    -0.202 F 
ATOM     10  C   UNL d   1      52.806  31.054  52.629  0.00  0.00     0.015 A 
BRANCH   6  11
ATOM     11  O   UNL d   1      53.546  29.330  54.235  0.00  0.00    -0.303 OA
BRANCH  11  12
ATOM     12  C   UNL d   1      53.141  29.229  54.944  0.00  0.00     0.123 C 
ATOM     13  C   UNL d   1      53.412  28.680  55.506  0.00  0.00     0.029 C 
ENDBRANCH  11  12
ENDBRANCH   6  11
ENDBRANCH   1   4
BRANCH   1  14
ATOM     14  N   UNL d   1      53.414  32.877  53.663  0.00  0.00    -0.157 NA
BRANCH  14  15
ATOM     15  C   UNL d   1      52.820  33.313  54.038  0.00  0.00     0.112 C 
BRANCH  15  16
ATOM     16  C   UNL d   1      52.947  34.108  54.220  0.00  0.00     0.020 A 
ATOM     17  C   UNL d   1      52.736  34.686  53.674  0.00  0.00     0.002 A 
ATOM     18  C   UNL d   1      52.863  35.477  53.855  0.00  0.00     0.000 A 
ATOM     19  C   UNL d   1      53.198  35.691  54.578  0.00  0.00     0.000 A 
ATOM     20  C   UNL d   1      53.407  35.103  55.123  0.00  0.00     0.000 A 
ATOM     21  C   UNL d   1      53.280  34.309  54.940  0.00  0.00     0.002 A 
ENDBRANCH  15  16
ENDBRANCH  14  15
ENDBRANCH   1  14
TORSDOF 6
ENDMDL
