MODEL 1
REMARK VINA RESULT:      -3.2      0.000      0.000
REMARK  4 active torsions:
REMARK  status: ('A' for Active; 'I' for Inactive)
REMARK    1  A    between atoms: C_5  and  C_1 
REMARK    2  A    between atoms: C_2  and  C_5 
REMARK    3  A    between atoms: C_12  and  N_3 
REMARK    4  A    between atoms: C_13  and  N_4 
ROOT
ATOM      1  C   UNL d   1      57.993  -0.298  30.581  0.00  0.00     0.133 C 
ATOM      2 CL   UNL d   1      57.498  -0.930  30.813  0.00  0.00    -0.076 Cl
ENDROOT
BRANCH   1   3
ATOM      3  C   UNL d   1      58.481   0.082  31.126  0.00  0.00     0.202 A 
ATOM      4  N   UNL d   1      58.196   0.264  31.860  0.00  0.00    -0.191 N 
ATOM      5  N   UNL d   1      58.794   0.636  32.284  0.00  0.00    -0.039 NA
ATOM      6  N   UNL d   1      59.450   0.682  31.808  0.00  0.00    -0.022 NA
ATOM      7  N   UNL d   1      59.259   0.338  31.088  0.00  0.00    -0.107 NA
BRANCH   4   8
ATOM      8  C   UNL d   1      57.443   0.107  32.136  0.00  0.00     0.086 A 
ATOM      9  C   UNL d   1      57.271  -0.623  32.478  0.00  0.00     0.019 A 
ATOM     10  C   UNL d   1      56.511  -0.779  32.757  0.00  0.00     0.002 A 
ATOM     11  C   UNL d   1      55.925  -0.204  32.692  0.00  0.00     0.000 A 
ATOM     12  C   UNL d   1      56.093   0.530  32.350  0.00  0.00     0.002 A 
ATOM     13  C   UNL d   1      55.147  -0.358  32.975  0.00  0.00     0.000 C 
ATOM     14  C   UNL d   1      56.853   0.682  32.073  0.00  0.00     0.019 A 
ENDBRANCH   4   8
ENDBRANCH   1   3
BRANCH   1  15
ATOM     15  C   UNL d   1      57.993  -0.048  29.789  0.00  0.00     0.202 A 
ATOM     16  N   UNL d   1      58.292  -0.465  29.152  0.00  0.00    -0.191 N 
ATOM     17  N   UNL d   1      58.176  -0.013  28.478  0.00  0.00    -0.039 NA
ATOM     18  N   UNL d   1      57.805   0.682  28.705  0.00  0.00    -0.022 NA
ATOM     19  N   UNL d   1      57.692   0.664  29.503  0.00  0.00    -0.107 NA
BRANCH  16  20
ATOM     20  C   UNL d   1      58.652  -1.208  29.147  0.00  0.00     0.086 A 
ATOM     21  C   UNL d   1      59.480  -1.274  29.131  0.00  0.00     0.019 A 
ATOM     22  C   UNL d   1      59.840  -2.017  29.126  0.00  0.00     0.002 A 
ATOM     23  C   UNL d   1      59.373  -2.696  29.138  0.00  0.00     0.000 A 
ATOM     24  C   UNL d   1      58.559  -2.638  29.154  0.00  0.00     0.002 A 
ATOM     25  C   UNL d   1      59.732  -3.456  29.133  0.00  0.00     0.000 C 
ATOM     26  C   UNL d   1      58.199  -1.895  29.159  0.00  0.00     0.019 A 
ENDBRANCH  16  20
ENDBRANCH   1  15
TORSDOF 4
ENDMDL
