MODEL 1
REMARK VINA RESULT:      -6.9      0.000      0.000
REMARK  6 active torsions:
REMARK  status: ('A' for Active; 'I' for Inactive)
REMARK    1  A    between atoms: C_6  and  C_1 
REMARK    2  A    between atoms: C_10  and  N_3 
REMARK    3  A    between atoms: O_7  and  C_6 
REMARK    4  A    between atoms: C_8  and  O_7 
REMARK    5  A    between atoms: O_11  and  C_9 
REMARK    6  A    between atoms: C_17  and  C_10 
ROOT
ATOM      1  C   UNL d   1     -47.612  13.607  23.161  0.00  0.00     0.173 A 
ATOM      2  N   UNL d   1     -47.070  14.080  22.735  0.00  0.00    -0.225 NA
ATOM      3  N   UNL d   1     -47.232  12.882  23.276  0.00  0.00    -0.287 N 
ATOM      4  C   UNL d   1     -46.490  12.898  22.940  0.00  0.00     0.083 A 
ATOM      5  C   UNL d   1     -46.388  13.655  22.598  0.00  0.00     0.099 A 
ATOM      6  C   UNL d   1     -45.874  12.334  22.888  0.00  0.00     0.019 A 
ATOM      7  C   UNL d   1     -45.675  13.815  22.219  0.00  0.00     0.021 A 
ATOM      8  C   UNL d   1     -45.190  12.527  22.508  0.00  0.00     0.002 A 
ATOM      9  C   UNL d   1     -45.088  13.285  22.165  0.00  0.00     0.002 A 
ENDROOT
BRANCH   1  10
ATOM     10  C   UNL d   1     -48.298  14.012  23.307  0.00  0.00     0.160 C 
BRANCH  10  11
ATOM     11  O   UNL d   1     -48.815  14.219  22.677  0.00  0.00    -0.300 OA
BRANCH  11  12
ATOM     12  C   UNL d   1     -49.536  14.622  22.822  0.00  0.00     0.122 A 
ATOM     13  C   UNL d   1     -50.213  14.416  22.397  0.00  0.00     0.117 A 
ATOM     14  C   UNL d   1     -50.939  14.804  22.526  0.00  0.00     0.026 A 
ATOM     15  C   UNL d   1     -50.955  15.400  23.090  0.00  0.00     0.002 A 
ATOM     16  C   UNL d   1     -50.276  15.608  23.517  0.00  0.00     0.002 A 
ATOM     17  C   UNL d   1     -49.555  15.221  23.389  0.00  0.00     0.027 A 
BRANCH  13  18
ATOM     18  O   UNL d   1     -50.171  13.805  21.827  0.00  0.00    -0.326 OA
ATOM     19  C   UNL d   1     -50.870  13.529  21.436  0.00  0.00     0.181 C 
ENDBRANCH  13  18
ENDBRANCH  11  12
ENDBRANCH  10  11
ENDBRANCH   1  10
BRANCH   3  20
ATOM     20  C   UNL d   1     -47.675  12.353  23.680  0.00  0.00     0.082 C 
BRANCH  20  21
ATOM     21  C   UNL d   1     -47.816  11.589  23.402  0.00  0.00     0.019 C 
ATOM     22  C   UNL d   1     -48.409  11.102  23.698  0.00  0.00     0.002 C 
ENDBRANCH  20  21
ENDBRANCH   3  20
TORSDOF 6
ENDMDL
MODEL 2
REMARK VINA RESULT:      -6.0      1.546      4.277
REMARK  6 active torsions:
REMARK  status: ('A' for Active; 'I' for Inactive)
REMARK    1  A    between atoms: C_6  and  C_1 
REMARK    2  A    between atoms: C_10  and  N_3 
REMARK    3  A    between atoms: O_7  and  C_6 
REMARK    4  A    between atoms: C_8  and  O_7 
REMARK    5  A    between atoms: O_11  and  C_9 
REMARK    6  A    between atoms: C_17  and  C_10 
ROOT
ATOM      1  C   UNL d   1     -47.983  13.082  23.182  0.00  0.00     0.173 A 
ATOM      2  N   UNL d   1     -47.652  13.845  23.097  0.00  0.00    -0.225 NA
ATOM      3  N   UNL d   1     -48.783  13.163  22.992  0.00  0.00    -0.287 N 
ATOM      4  C   UNL d   1     -48.948  13.937  22.798  0.00  0.00     0.083 A 
ATOM      5  C   UNL d   1     -48.233  14.368  22.865  0.00  0.00     0.099 A 
ATOM      6  C   UNL d   1     -49.648  14.331  22.566  0.00  0.00     0.019 A 
ATOM      7  C   UNL d   1     -48.251  15.173  22.696  0.00  0.00     0.021 A 
ATOM      8  C   UNL d   1     -49.626  15.121  22.409  0.00  0.00     0.002 A 
ATOM      9  C   UNL d   1     -48.911  15.552  22.476  0.00  0.00     0.002 A 
ENDROOT
BRANCH   1  10
ATOM     10  C   UNL d   1     -47.420  12.546  23.413  0.00  0.00     0.160 C 
BRANCH  10  11
ATOM     11  O   UNL d   1     -46.622  12.632  23.166  0.00  0.00    -0.300 OA
BRANCH  11  12
ATOM     12  C   UNL d   1     -46.075  11.999  23.235  0.00  0.00     0.122 A 
ATOM     13  C   UNL d   1     -45.325  12.067  22.897  0.00  0.00     0.117 A 
ATOM     14  C   UNL d   1     -44.768  11.450  22.954  0.00  0.00     0.026 A 
ATOM     15  C   UNL d   1     -44.994  10.772  23.359  0.00  0.00     0.002 A 
ATOM     16  C   UNL d   1     -45.747  10.702  23.698  0.00  0.00     0.002 A 
ATOM     17  C   UNL d   1     -46.299  11.317  23.641  0.00  0.00     0.027 A 
BRANCH  13  18
ATOM     18  O   UNL d   1     -45.118  12.767  22.490  0.00  0.00    -0.326 OA
ATOM     19  C   UNL d   1     -44.547  12.753  21.865  0.00  0.00     0.181 C 
ENDBRANCH  13  18
ENDBRANCH  11  12
ENDBRANCH  10  11
ENDBRANCH   1  10
BRANCH   3  20
ATOM     20  C   UNL d   1     -49.192  12.478  23.043  0.00  0.00     0.082 C 
BRANCH  20  21
ATOM     21  C   UNL d   1     -49.658  12.288  23.698  0.00  0.00     0.019 C 
ATOM     22  C   UNL d   1     -50.248  11.715  23.682  0.00  0.00     0.002 C 
ENDBRANCH  20  21
ENDBRANCH   3  20
TORSDOF 6
ENDMDL
MODEL 3
REMARK VINA RESULT:      -5.7      8.171     10.094
REMARK  6 active torsions:
REMARK  status: ('A' for Active; 'I' for Inactive)
REMARK    1  A    between atoms: C_6  and  C_1 
REMARK    2  A    between atoms: C_10  and  N_3 
REMARK    3  A    between atoms: O_7  and  C_6 
REMARK    4  A    between atoms: C_8  and  O_7 
REMARK    5  A    between atoms: O_11  and  C_9 
REMARK    6  A    between atoms: C_17  and  C_10 
ROOT
ATOM      1  C   UNL d   1     -39.799  14.623  17.951  0.00  0.00     0.173 A 
ATOM      2  N   UNL d   1     -39.221  14.023  18.015  0.00  0.00    -0.225 NA
ATOM      3  N   UNL d   1     -39.747  14.902  17.175  0.00  0.00    -0.287 N 
ATOM      4  C   UNL d   1     -39.166  14.499  16.771  0.00  0.00     0.083 A 
ATOM      5  C   UNL d   1     -38.833  13.943  17.302  0.00  0.00     0.099 A 
ATOM      6  C   UNL d   1     -38.876  14.547  15.988  0.00  0.00     0.019 A 
ATOM      7  C   UNL d   1     -38.226  13.460  17.026  0.00  0.00     0.021 A 
ATOM      8  C   UNL d   1     -38.280  14.057  15.754  0.00  0.00     0.002 A 
ATOM      9  C   UNL d   1     -37.948  13.501  16.285  0.00  0.00     0.002 A 
ENDROOT
BRANCH   1  10
ATOM     10  C   UNL d   1     -40.197  14.717  18.651  0.00  0.00     0.160 C 
BRANCH  10  11
ATOM     11  O   UNL d   1     -39.776  14.805  19.373  0.00  0.00    -0.300 OA
BRANCH  11  12
ATOM     12  C   UNL d   1     -40.142  15.135  20.052  0.00  0.00     0.122 A 
ATOM     13  C   UNL d   1     -39.694  15.585  20.581  0.00  0.00     0.117 A 
ATOM     14  C   UNL d   1     -40.039  15.922  21.260  0.00  0.00     0.026 A 
ATOM     15  C   UNL d   1     -40.840  15.790  21.384  0.00  0.00     0.002 A 
ATOM     16  C   UNL d   1     -41.290  15.340  20.854  0.00  0.00     0.002 A 
ATOM     17  C   UNL d   1     -40.946  15.005  20.179  0.00  0.00     0.027 A 
BRANCH  13  18
ATOM     18  O   UNL d   1     -38.880  15.705  20.432  0.00  0.00    -0.326 OA
ATOM     19  C   UNL d   1     -38.352  15.915  21.060  0.00  0.00     0.181 C 
ENDBRANCH  13  18
ENDBRANCH  11  12
ENDBRANCH  10  11
ENDBRANCH   1  10
BRANCH   3  20
ATOM     20  C   UNL d   1     -40.268  15.487  17.013  0.00  0.00     0.082 C 
BRANCH  20  21
ATOM     21  C   UNL d   1     -40.957  15.358  16.577  0.00  0.00     0.019 C 
ATOM     22  C   UNL d   1     -41.549  15.922  16.490  0.00  0.00     0.002 C 
ENDBRANCH  20  21
ENDBRANCH   3  20
TORSDOF 6
ENDMDL
MODEL 4
REMARK VINA RESULT:      -5.3      8.259     10.167
REMARK  6 active torsions:
REMARK  status: ('A' for Active; 'I' for Inactive)
REMARK    1  A    between atoms: C_6  and  C_1 
REMARK    2  A    between atoms: C_10  and  N_3 
REMARK    3  A    between atoms: O_7  and  C_6 
REMARK    4  A    between atoms: C_8  and  O_7 
REMARK    5  A    between atoms: O_11  and  C_9 
REMARK    6  A    between atoms: C_17  and  C_10 
ROOT
ATOM      1  C   UNL d   1     -39.161  14.243  20.225  0.00  0.00     0.173 A 
ATOM      2  N   UNL d   1     -38.467  13.844  20.464  0.00  0.00    -0.225 NA
ATOM      3  N   UNL d   1     -39.622  14.318  20.907  0.00  0.00    -0.287 N 
ATOM      4  C   UNL d   1     -39.238  13.984  21.543  0.00  0.00     0.083 A 
ATOM      5  C   UNL d   1     -38.507  13.684  21.262  0.00  0.00     0.099 A 
ATOM      6  C   UNL d   1     -39.436  13.900  22.351  0.00  0.00     0.019 A 
ATOM      7  C   UNL d   1     -38.009  13.315  21.803  0.00  0.00     0.021 A 
ATOM      8  C   UNL d   1     -38.922  13.532  22.850  0.00  0.00     0.002 A 
ATOM      9  C   UNL d   1     -38.191  13.232  22.570  0.00  0.00     0.002 A 
ENDROOT
BRANCH   1  10
ATOM     10  C   UNL d   1     -39.141  14.411  19.432  0.00  0.00     0.160 C 
BRANCH  10  11
ATOM     11  O   UNL d   1     -39.058  13.796  18.867  0.00  0.00    -0.300 OA
BRANCH  11  12
ATOM     12  C   UNL d   1     -38.981  13.964  18.048  0.00  0.00     0.122 A 
ATOM     13  C   UNL d   1     -38.804  13.356  17.519  0.00  0.00     0.117 A 
ATOM     14  C   UNL d   1     -38.724  13.503  16.703  0.00  0.00     0.026 A 
ATOM     15  C   UNL d   1     -38.828  14.275  16.445  0.00  0.00     0.002 A 
ATOM     16  C   UNL d   1     -39.006  14.887  16.975  0.00  0.00     0.002 A 
ATOM     17  C   UNL d   1     -39.085  14.740  17.786  0.00  0.00     0.027 A 
BRANCH  13  18
ATOM     18  O   UNL d   1     -38.703  12.577  17.806  0.00  0.00    -0.326 OA
ATOM     19  C   UNL d   1     -38.283  11.999  17.352  0.00  0.00     0.181 C 
ENDBRANCH  13  18
ENDBRANCH  11  12
ENDBRANCH  10  11
ENDBRANCH   1  10
BRANCH   3  20
ATOM     20  C   UNL d   1     -40.317  14.692  20.780  0.00  0.00     0.082 C 
BRANCH  20  21
ATOM     21  C   UNL d   1     -40.484  15.436  21.096  0.00  0.00     0.019 C 
ATOM     22  C   UNL d   1     -41.195  15.831  20.974  0.00  0.00     0.002 C 
ENDBRANCH  20  21
ENDBRANCH   3  20
TORSDOF 6
ENDMDL
MODEL 5
REMARK VINA RESULT:      -5.3      9.235     10.194
REMARK  6 active torsions:
REMARK  status: ('A' for Active; 'I' for Inactive)
REMARK    1  A    between atoms: C_6  and  C_1 
REMARK    2  A    between atoms: C_10  and  N_3 
REMARK    3  A    between atoms: O_7  and  C_6 
REMARK    4  A    between atoms: C_8  and  O_7 
REMARK    5  A    between atoms: O_11  and  C_9 
REMARK    6  A    between atoms: C_17  and  C_10 
ROOT
ATOM      1  C   UNL d   1     -39.360  14.164  18.997  0.00  0.00     0.173 A 
ATOM      2  N   UNL d   1     -40.028  14.660  19.071  0.00  0.00    -0.225 NA
ATOM      3  N   UNL d   1     -39.194  14.133  18.187  0.00  0.00    -0.287 N 
ATOM      4  C   UNL d   1     -39.729  14.587  17.774  0.00  0.00     0.083 A 
ATOM      5  C   UNL d   1     -40.257  14.921  18.333  0.00  0.00     0.099 A 
ATOM      6  C   UNL d   1     -39.827  14.757  16.961  0.00  0.00     0.019 A 
ATOM      7  C   UNL d   1     -40.858  15.408  18.053  0.00  0.00     0.021 A 
ATOM      8  C   UNL d   1     -40.428  15.239  16.725  0.00  0.00     0.002 A 
ATOM      9  C   UNL d   1     -40.956  15.573  17.284  0.00  0.00     0.002 A 
ENDROOT
BRANCH   1  10
ATOM     10  C   UNL d   1     -39.117  13.894  19.721  0.00  0.00     0.160 C 
BRANCH  10  11
ATOM     11  O   UNL d   1     -39.181  14.383  20.402  0.00  0.00    -0.300 OA
BRANCH  11  12
ATOM     12  C   UNL d   1     -38.886  14.132  21.146  0.00  0.00     0.122 A 
ATOM     13  C   UNL d   1     -38.954  14.628  21.803  0.00  0.00     0.117 A 
ATOM     14  C   UNL d   1     -38.667  14.397  22.550  0.00  0.00     0.026 A 
ATOM     15  C   UNL d   1     -38.315  13.658  22.609  0.00  0.00     0.002 A 
ATOM     16  C   UNL d   1     -38.245  13.159  21.951  0.00  0.00     0.002 A 
ATOM     17  C   UNL d   1     -38.531  13.390  21.208  0.00  0.00     0.027 A 
BRANCH  13  18
ATOM     18  O   UNL d   1     -39.317  15.376  21.717  0.00  0.00    -0.326 OA
ATOM     19  C   UNL d   1     -39.344  15.921  22.364  0.00  0.00     0.181 C 
ENDBRANCH  13  18
ENDBRANCH  11  12
ENDBRANCH  10  11
ENDBRANCH   1  10
BRANCH   3  20
ATOM     20  C   UNL d   1     -38.562  13.676  18.011  0.00  0.00     0.082 C 
BRANCH  20  21
ATOM     21  C   UNL d   1     -38.631  12.970  17.589  0.00  0.00     0.019 C 
ATOM     22  C   UNL d   1     -37.989  12.488  17.405  0.00  0.00     0.002 C 
ENDBRANCH  20  21
ENDBRANCH   3  20
TORSDOF 6
ENDMDL
MODEL 6
REMARK VINA RESULT:      -4.4      8.354     10.607
REMARK  6 active torsions:
REMARK  status: ('A' for Active; 'I' for Inactive)
REMARK    1  A    between atoms: C_6  and  C_1 
REMARK    2  A    between atoms: C_10  and  N_3 
REMARK    3  A    between atoms: O_7  and  C_6 
REMARK    4  A    between atoms: C_8  and  O_7 
REMARK    5  A    between atoms: O_11  and  C_9 
REMARK    6  A    between atoms: C_17  and  C_10 
ROOT
ATOM      1  C   UNL d   1     -38.345  14.987  18.347  0.00  0.00     0.173 A 
ATOM      2  N   UNL d   1     -38.473  15.677  17.892  0.00  0.00    -0.225 NA
ATOM      3  N   UNL d   1     -38.223  14.379  17.800  0.00  0.00    -0.287 N 
ATOM      4  C   UNL d   1     -38.271  14.671  17.041  0.00  0.00     0.083 A 
ATOM      5  C   UNL d   1     -38.429  15.492  17.099  0.00  0.00     0.099 A 
ATOM      6  C   UNL d   1     -38.195  14.317  16.287  0.00  0.00     0.019 A 
ATOM      7  C   UNL d   1     -38.504  15.921  16.401  0.00  0.00     0.021 A 
ATOM      8  C   UNL d   1     -38.275  14.771  15.625  0.00  0.00     0.002 A 
ATOM      9  C   UNL d   1     -38.433  15.591  15.684  0.00  0.00     0.002 A 
ENDROOT
BRANCH   1  10
ATOM     10  C   UNL d   1     -38.385  15.151  19.139  0.00  0.00     0.160 C 
BRANCH  10  11
ATOM     11  O   UNL d   1     -39.088  15.465  19.476  0.00  0.00    -0.300 OA
BRANCH  11  12
ATOM     12  C   UNL d   1     -39.144  15.618  20.299  0.00  0.00     0.122 A 
ATOM     13  C   UNL d   1     -39.886  15.727  20.645  0.00  0.00     0.117 A 
ATOM     14  C   UNL d   1     -39.964  15.880  21.461  0.00  0.00     0.026 A 
ATOM     15  C   UNL d   1     -39.275  15.918  21.906  0.00  0.00     0.002 A 
ATOM     16  C   UNL d   1     -38.530  15.810  21.560  0.00  0.00     0.002 A 
ATOM     17  C   UNL d   1     -38.454  15.658  20.749  0.00  0.00     0.027 A 
BRANCH  13  18
ATOM     18  O   UNL d   1     -40.573  15.682  20.171  0.00  0.00    -0.326 OA
ATOM     19  C   UNL d   1     -41.326  15.921  20.475  0.00  0.00     0.181 C 
ENDBRANCH  13  18
ENDBRANCH  11  12
ENDBRANCH  10  11
ENDBRANCH   1  10
BRANCH   3  20
ATOM     20  C   UNL d   1     -38.090  13.669  18.141  0.00  0.00     0.082 C 
BRANCH  20  21
ATOM     21  C   UNL d   1     -38.371  12.963  17.819  0.00  0.00     0.019 C 
ATOM     22  C   UNL d   1     -38.272  12.230  18.179  0.00  0.00     0.002 C 
ENDBRANCH  20  21
ENDBRANCH   3  20
TORSDOF 6
ENDMDL
MODEL 7
REMARK VINA RESULT:      -4.1      7.639     10.325
REMARK  6 active torsions:
REMARK  status: ('A' for Active; 'I' for Inactive)
REMARK    1  A    between atoms: C_6  and  C_1 
REMARK    2  A    between atoms: C_10  and  N_3 
REMARK    3  A    between atoms: O_7  and  C_6 
REMARK    4  A    between atoms: C_8  and  O_7 
REMARK    5  A    between atoms: O_11  and  C_9 
REMARK    6  A    between atoms: C_17  and  C_10 
ROOT
ATOM      1  C   UNL d   1     -39.968  14.913  19.147  0.00  0.00     0.173 A 
ATOM      2  N   UNL d   1     -40.622  14.393  19.115  0.00  0.00    -0.225 NA
ATOM      3  N   UNL d   1     -39.874  15.105  19.946  0.00  0.00    -0.287 N 
ATOM      4  C   UNL d   1     -40.439  14.725  20.394  0.00  0.00     0.083 A 
ATOM      5  C   UNL d   1     -40.912  14.274  19.868  0.00  0.00     0.099 A 
ATOM      6  C   UNL d   1     -40.607  14.713  21.213  0.00  0.00     0.019 A 
ATOM      7  C   UNL d   1     -41.530  13.833  20.186  0.00  0.00     0.021 A 
ATOM      8  C   UNL d   1     -41.220  14.269  21.487  0.00  0.00     0.002 A 
ATOM      9  C   UNL d   1     -41.693  13.818  20.962  0.00  0.00     0.002 A 
ENDROOT
BRANCH   1  10
ATOM     10  C   UNL d   1     -39.665  15.043  18.407  0.00  0.00     0.160 C 
BRANCH  10  11
ATOM     11  O   UNL d   1     -39.477  14.398  17.903  0.00  0.00    -0.300 OA
BRANCH  11  12
ATOM     12  C   UNL d   1     -39.013  14.507  17.213  0.00  0.00     0.122 A 
ATOM     13  C   UNL d   1     -38.567  13.879  16.915  0.00  0.00     0.117 A 
ATOM     14  C   UNL d   1     -38.099  13.967  16.231  0.00  0.00     0.026 A 
ATOM     15  C   UNL d   1     -38.099  14.702  15.865  0.00  0.00     0.002 A 
ATOM     16  C   UNL d   1     -38.546  15.333  16.162  0.00  0.00     0.002 A 
ATOM     17  C   UNL d   1     -39.011  15.244  16.842  0.00  0.00     0.027 A 
BRANCH  13  18
ATOM     18  O   UNL d   1     -38.584  13.141  17.307  0.00  0.00    -0.326 OA
ATOM     19  C   UNL d   1     -38.034  12.530  17.104  0.00  0.00     0.181 C 
ENDBRANCH  13  18
ENDBRANCH  11  12
ENDBRANCH  10  11
ENDBRANCH   1  10
BRANCH   3  20
ATOM     20  C   UNL d   1     -39.266  15.605  20.082  0.00  0.00     0.082 C 
BRANCH  20  21
ATOM     21  C   UNL d   1     -38.614  15.395  20.543  0.00  0.00     0.019 C 
ATOM     22  C   UNL d   1     -37.956  15.877  20.642  0.00  0.00     0.002 C 
ENDBRANCH  20  21
ENDBRANCH   3  20
TORSDOF 6
ENDMDL
