MODEL 1
REMARK VINA RESULT:      -4.7      0.000      0.000
REMARK  3 active torsions:
REMARK  status: ('A' for Active; 'I' for Inactive)
REMARK    1  A    between atoms: C_6  and  C_3 
REMARK    2  A    between atoms: C_9  and  C_6 
REMARK    3  A    between atoms: O_15  and  C_10 
ROOT
ATOM      1  C   UNL d   1      56.421   0.129  33.074  0.00  0.00     0.001 A 
ATOM      2  C   UNL d   1      56.820  -0.829  31.783  0.00  0.00     0.094 A 
ATOM      3  C   UNL d   1      56.778   0.469  32.414  0.00  0.00     0.002 A 
ATOM      4  C   UNL d   1      56.262  -0.680  33.096  0.00  0.00     0.002 A 
ATOM      5  C   UNL d   1      56.979  -0.020  31.761  0.00  0.00     0.024 A 
ATOM      6  C   UNL d   1      56.452  -1.153  32.475  0.00  0.00     0.024 A 
ENDROOT
BRANCH   1   7
ATOM      7  C   UNL d   1      56.241   0.647  33.691  0.00  0.00     0.011 C 
BRANCH   7   8
ATOM      8  C   UNL d   1      55.508   0.658  34.095  0.00  0.00     0.092 A 
ATOM      9  C   UNL d   1      55.372   0.672  34.881  0.00  0.00     0.288 A 
ATOM     10  N   UNL d   1      54.583   0.679  35.009  0.00  0.00    -0.163 NA
ATOM     11  O   UNL d   1      55.991   0.680  35.482  0.00  0.00    -0.265 OA
ATOM     12  C   UNL d   1      54.230   0.667  34.245  0.00  0.00     0.313 A 
ATOM     13  S   UNL d   1      54.831   0.655  33.711  0.00  0.00    -0.021 SA
ATOM     14  O   UNL d   1      53.399   0.669  34.096  0.00  0.00    -0.258 OA
ENDBRANCH   7   8
ENDBRANCH   1   7
BRANCH   2  15
ATOM     15  O   UNL d   1      57.022  -1.300  31.134  0.00  0.00    -0.328 OA
ATOM     16  C   UNL d   1      57.687  -1.133  30.706  0.00  0.00     0.181 C 
ENDBRANCH   2  15
TORSDOF 3
ENDMDL
MODEL 2
REMARK VINA RESULT:      -4.6      1.687      2.305
REMARK  3 active torsions:
REMARK  status: ('A' for Active; 'I' for Inactive)
REMARK    1  A    between atoms: C_6  and  C_3 
REMARK    2  A    between atoms: C_9  and  C_6 
REMARK    3  A    between atoms: O_15  and  C_10 
ROOT
ATOM      1  C   UNL d   1      57.119   0.620  31.838  0.00  0.00     0.001 A 
ATOM      2  C   UNL d   1      58.497   0.570  30.919  0.00  0.00     0.094 A 
ATOM      3  C   UNL d   1      57.056   0.534  31.020  0.00  0.00     0.002 A 
ATOM      4  C   UNL d   1      57.857   0.681  32.199  0.00  0.00     0.002 A 
ATOM      5  C   UNL d   1      57.758   0.509  30.558  0.00  0.00     0.024 A 
ATOM      6  C   UNL d   1      58.531   0.658  31.762  0.00  0.00     0.024 A 
ENDROOT
BRANCH   1   7
ATOM      7  C   UNL d   1      56.404   0.639  32.251  0.00  0.00     0.011 C 
BRANCH   7   8
ATOM      8  C   UNL d   1      56.078  -0.019  32.653  0.00  0.00     0.092 A 
ATOM      9  C   UNL d   1      55.546  -0.026  33.248  0.00  0.00     0.288 A 
ATOM     10  N   UNL d   1      55.399  -0.783  33.456  0.00  0.00    -0.163 NA
ATOM     11  O   UNL d   1      55.198   0.682  33.598  0.00  0.00    -0.265 OA
ATOM     12  C   UNL d   1      55.876  -1.254  32.949  0.00  0.00     0.313 A 
ATOM     13  S   UNL d   1      56.278  -0.748  32.470  0.00  0.00    -0.021 SA
ATOM     14  O   UNL d   1      55.909  -2.098  32.960  0.00  0.00    -0.258 OA
ENDBRANCH   7   8
ENDBRANCH   1   7
BRANCH   2  15
ATOM     15  O   UNL d   1      59.180   0.544  30.454  0.00  0.00    -0.328 OA
ATOM     16  C   UNL d   1      59.204   0.072  29.799  0.00  0.00     0.181 C 
ENDBRANCH   2  15
TORSDOF 3
ENDMDL
MODEL 3
REMARK VINA RESULT:      -4.5      2.676      4.374
REMARK  3 active torsions:
REMARK  status: ('A' for Active; 'I' for Inactive)
REMARK    1  A    between atoms: C_6  and  C_3 
REMARK    2  A    between atoms: C_9  and  C_6 
REMARK    3  A    between atoms: O_15  and  C_10 
ROOT
ATOM      1  C   UNL d   1      57.022   0.203  31.403  0.00  0.00     0.001 A 
ATOM      2  C   UNL d   1      56.311  -0.498  32.725  0.00  0.00     0.094 A 
ATOM      3  C   UNL d   1      56.751   0.682  32.016  0.00  0.00     0.002 A 
ATOM      4  C   UNL d   1      56.943  -0.617  31.442  0.00  0.00     0.002 A 
ATOM      5  C   UNL d   1      56.391   0.322  32.685  0.00  0.00     0.024 A 
ATOM      6  C   UNL d   1      56.599  -0.965  32.079  0.00  0.00     0.024 A 
ENDROOT
BRANCH   1   7
ATOM      7  C   UNL d   1      57.369   0.600  30.766  0.00  0.00     0.011 C 
BRANCH   7   8
ATOM      8  C   UNL d   1      58.177   0.536  30.560  0.00  0.00     0.092 A 
ATOM      9  C   UNL d   1      58.498   0.331  29.858  0.00  0.00     0.288 A 
ATOM     10  N   UNL d   1      59.294   0.345  29.922  0.00  0.00    -0.163 NA
ATOM     11  O   UNL d   1      58.041   0.130  29.154  0.00  0.00    -0.265 OA
ATOM     12  C   UNL d   1      59.454   0.574  30.715  0.00  0.00     0.313 A 
ATOM     13  S   UNL d   1      58.742   0.681  31.074  0.00  0.00    -0.021 SA
ATOM     14  O   UNL d   1      60.225   0.666  31.047  0.00  0.00    -0.258 OA
ENDBRANCH   7   8
ENDBRANCH   1   7
BRANCH   2  15
ATOM     15  O   UNL d   1      55.955  -0.840  33.388  0.00  0.00    -0.328 OA
ATOM     16  C   UNL d   1      55.273  -0.525  33.687  0.00  0.00     0.181 C 
ENDBRANCH   2  15
TORSDOF 3
ENDMDL
MODEL 4
REMARK VINA RESULT:      -4.0      8.792      9.613
REMARK  3 active torsions:
REMARK  status: ('A' for Active; 'I' for Inactive)
REMARK    1  A    between atoms: C_6  and  C_3 
REMARK    2  A    between atoms: C_9  and  C_6 
REMARK    3  A    between atoms: O_15  and  C_10 
ROOT
ATOM      1  C   UNL d   1      60.168  -8.943  34.800  0.00  0.00     0.001 A 
ATOM      2  C   UNL d   1      60.406  -9.457  33.243  0.00  0.00     0.094 A 
ATOM      3  C   UNL d   1      59.523  -9.198  34.356  0.00  0.00     0.002 A 
ATOM      4  C   UNL d   1      60.927  -8.941  34.476  0.00  0.00     0.002 A 
ATOM      5  C   UNL d   1      59.648  -9.458  33.566  0.00  0.00     0.024 A 
ATOM      6  C   UNL d   1      61.052  -9.189  33.722  0.00  0.00     0.024 A 
ENDROOT
BRANCH   1   7
ATOM      7  C   UNL d   1      59.998  -8.697  35.570  0.00  0.00     0.011 C 
BRANCH   7   8
ATOM      8  C   UNL d   1      59.908  -7.896  35.795  0.00  0.00     0.092 A 
ATOM      9  C   UNL d   1      59.276  -7.541  36.131  0.00  0.00     0.288 A 
ATOM     10  N   UNL d   1      59.444  -6.768  36.247  0.00  0.00    -0.163 NA
ATOM     11  O   UNL d   1      58.540  -7.944  36.330  0.00  0.00    -0.265 OA
ATOM     12  C   UNL d   1      60.227  -6.660  35.959  0.00  0.00     0.313 A 
ATOM     13  S   UNL d   1      60.477  -7.376  35.690  0.00  0.00    -0.021 SA
ATOM     14  O   UNL d   1      60.648  -5.928  35.964  0.00  0.00    -0.258 OA
ENDBRANCH   7   8
ENDBRANCH   1   7
BRANCH   2  15
ATOM     15  O   UNL d   1      60.517  -9.715  32.465  0.00  0.00    -0.328 OA
ATOM     16  C   UNL d   1      61.132  -9.425  32.028  0.00  0.00     0.181 C 
ENDBRANCH   2  15
TORSDOF 3
ENDMDL
MODEL 5
REMARK VINA RESULT:      -3.1      1.607      3.673
REMARK  3 active torsions:
REMARK  status: ('A' for Active; 'I' for Inactive)
REMARK    1  A    between atoms: C_6  and  C_3 
REMARK    2  A    between atoms: C_9  and  C_6 
REMARK    3  A    between atoms: O_15  and  C_10 
ROOT
ATOM      1  C   UNL d   1      55.986   0.680  33.267  0.00  0.00     0.001 A 
ATOM      2  C   UNL d   1      55.034   0.680  34.623  0.00  0.00     0.094 A 
ATOM      3  C   UNL d   1      55.166   0.677  33.184  0.00  0.00     0.002 A 
ATOM      4  C   UNL d   1      56.334   0.682  34.015  0.00  0.00     0.002 A 
ATOM      5  C   UNL d   1      54.687   0.677  33.874  0.00  0.00     0.024 A 
ATOM      6  C   UNL d   1      55.880   0.682  34.678  0.00  0.00     0.024 A 
ENDROOT
BRANCH   1   7
ATOM      7  C   UNL d   1      56.417   0.679  32.562  0.00  0.00     0.011 C 
BRANCH   7   8
ATOM      8  C   UNL d   1      56.626  -0.014  32.142  0.00  0.00     0.092 A 
ATOM      9  C   UNL d   1      57.039  -0.079  31.462  0.00  0.00     0.288 A 
ATOM     10  N   UNL d   1      57.102  -0.852  31.269  0.00  0.00    -0.163 NA
ATOM     11  O   UNL d   1      57.359   0.590  31.021  0.00  0.00    -0.265 OA
ATOM     12  C   UNL d   1      56.698  -1.270  31.877  0.00  0.00     0.313 A 
ATOM     13  S   UNL d   1      56.420  -0.720  32.393  0.00  0.00    -0.021 SA
ATOM     14  O   UNL d   1      56.615  -2.110  31.913  0.00  0.00    -0.258 OA
ENDBRANCH   7   8
ENDBRANCH   1   7
BRANCH   2  15
ATOM     15  O   UNL d   1      54.551   0.679  35.294  0.00  0.00    -0.328 OA
ATOM     16  C   UNL d   1      54.877   0.562  36.024  0.00  0.00     0.181 C 
ENDBRANCH   2  15
TORSDOF 3
ENDMDL
MODEL 6
REMARK VINA RESULT:      -3.0      9.278     10.167
REMARK  3 active torsions:
REMARK  status: ('A' for Active; 'I' for Inactive)
REMARK    1  A    between atoms: C_6  and  C_3 
REMARK    2  A    between atoms: C_9  and  C_6 
REMARK    3  A    between atoms: O_15  and  C_10 
ROOT
ATOM      1  C   UNL d   1      59.357  -9.817  33.921  0.00  0.00     0.001 A 
ATOM      2  C   UNL d   1      58.965  -9.816  32.311  0.00  0.00     0.094 A 
ATOM      3  C   UNL d   1      58.564  -9.816  33.699  0.00  0.00     0.002 A 
ATOM      4  C   UNL d   1      59.953  -9.817  33.351  0.00  0.00     0.002 A 
ATOM      5  C   UNL d   1      58.369  -9.816  32.881  0.00  0.00     0.024 A 
ATOM      6  C   UNL d   1      59.772  -9.816  32.568  0.00  0.00     0.024 A 
ENDROOT
BRANCH   1   7
ATOM      7  C   UNL d   1      59.502  -9.817  34.734  0.00  0.00     0.011 C 
BRANCH   7   8
ATOM      8  C   UNL d   1      59.748  -9.143  35.166  0.00  0.00     0.092 A 
ATOM      9  C   UNL d   1      60.279  -9.098  35.759  0.00  0.00     0.288 A 
ATOM     10  N   UNL d   1      60.334  -8.339  36.002  0.00  0.00    -0.163 NA
ATOM     11  O   UNL d   1      60.715  -9.773  36.074  0.00  0.00    -0.265 OA
ATOM     12  C   UNL d   1      59.798  -7.907  35.519  0.00  0.00     0.313 A 
ATOM     13  S   UNL d   1      59.458  -8.437  35.018  0.00  0.00    -0.021 SA
ATOM     14  O   UNL d   1      59.662  -7.075  35.570  0.00  0.00    -0.258 OA
ENDBRANCH   7   8
ENDBRANCH   1   7
BRANCH   2  15
ATOM     15  O   UNL d   1      58.760  -9.816  31.510  0.00  0.00    -0.328 OA
ATOM     16  C   UNL d   1      57.989  -9.713  31.291  0.00  0.00     0.181 C 
ENDBRANCH   2  15
TORSDOF 3
ENDMDL
