MODEL 1
REMARK VINA RESULT:      29.3      0.000      0.000
REMARK  2 active torsions:
REMARK  status: ('A' for Active; 'I' for Inactive)
REMARK    1  A    between atoms: C_8  and  N_1 
REMARK    2  A    between atoms: N_5  and  C_9 
ROOT
ATOM      1  N   UNL d   1     -51.851  25.306  33.361  0.00  0.00    -0.192 N 
ATOM      2  C   UNL d   1     -52.679  25.324  33.339  0.00  0.00     0.281 A 
ATOM      3  N   UNL d   1     -51.468  24.606  33.382  0.00  0.00    -0.120 NA
ATOM      4  C   UNL d   1     -51.888  23.894  33.381  0.00  0.00     0.296 A 
ATOM      5  C   UNL d   1     -53.114  24.623  33.338  0.00  0.00     0.063 A 
ATOM      6  C   UNL d   1     -52.700  23.869  33.360  0.00  0.00     0.064 A 
ATOM      7  O   UNL d   1     -53.089  26.044  33.317  0.00  0.00    -0.265 OA
ATOM      8  O   UNL d   1     -51.489  23.190  33.403  0.00  0.00    -0.264 OA
ATOM      9  C   UNL d   1     -53.934  24.625  33.316  0.00  0.00     0.005 A 
ATOM     10  C   UNL d   1     -53.143  23.189  33.359  0.00  0.00     0.005 A 
ATOM     11  C   UNL d   1     -54.356  23.906  33.315  0.00  0.00     0.000 A 
ATOM     12  C   UNL d   1     -53.976  23.201  33.336  0.00  0.00     0.000 A 
ENDROOT
BRANCH   1  13
ATOM     13  C   UNL d   1     -51.422  25.987  33.362  0.00  0.00     0.086 A 
ATOM     14  C   UNL d   1     -51.800  26.720  33.316  0.00  0.00     0.021 A 
ATOM     15  C   UNL d   1     -51.333  27.420  33.319  0.00  0.00     0.025 A 
ATOM     16  C   UNL d   1     -50.499  27.359  33.367  0.00  0.00     0.127 A 
ATOM     17  C   UNL d   1     -50.168  26.625  33.411  0.00  0.00     0.025 A 
ATOM     18  C   UNL d   1     -50.591  25.935  33.410  0.00  0.00     0.021 A 
BRANCH  16  19
ATOM     19  N   UNL d   1     -50.038  28.059  33.370  0.00  0.00    -0.114 N 
ATOM     20  O   UNL d   1     -49.232  27.987  33.430  0.00  0.00    -0.532 OA
ATOM     21  O   UNL d   1     -50.360  28.824  33.314  0.00  0.00    -0.532 OA
ENDBRANCH  16  19
ENDBRANCH   1  13
TORSDOF 2
ENDMDL
