MODEL 1
REMARK VINA RESULT:      26.2      0.000      0.000
REMARK  2 active torsions:
REMARK  status: ('A' for Active; 'I' for Inactive)
REMARK    1  A    between atoms: N_2  and  S_1 
REMARK    2  A    between atoms: C_4  and  S_1 
ROOT
ATOM      1  N   UNL d   1      14.574  12.487  -1.490  0.00  0.00    -0.231 N 
ATOM      2  C   UNL d   1      14.714  13.250  -1.192  0.00  0.00     0.075 A 
ATOM      3  C   UNL d   1      15.070  13.347  -0.462  0.00  0.00     0.017 A 
ATOM      4  C   UNL d   1      14.797  11.824  -1.042  0.00  0.00     0.092 A 
ATOM      5  C   UNL d   1      14.491  13.913  -1.640  0.00  0.00     0.018 A 
ATOM      6  C   UNL d   1      15.152  11.922  -0.312  0.00  0.00     0.020 A 
ATOM      7  C   UNL d   1      15.293  12.684  -0.014  0.00  0.00     0.003 A 
ATOM      8  C   UNL d   1      15.210  14.110  -0.164  0.00  0.00     0.002 A 
ATOM      9  C   UNL d   1      14.632  14.664  -1.341  0.00  0.00     0.002 A 
ATOM     10  C   UNL d   1      14.987  14.761  -0.611  0.00  0.00     0.000 A 
ENDROOT
BRANCH   1  11
ATOM     11  S   UNL d   1      14.217  12.390  -2.221  0.00  0.00     0.271 S 
ATOM     12  O   UNL d   1      13.274  12.309  -1.750  0.00  0.00    -0.200 OA
ATOM     13  O   UNL d   1      15.022  12.458  -2.622  0.00  0.00    -0.200 OA
BRANCH  11  14
ATOM     14  C   UNL d   1      13.857  12.291  -2.960  0.00  0.00     0.104 A 
ATOM     15  C   UNL d   1      13.140  11.886  -3.012  0.00  0.00     0.014 A 
ATOM     16  C   UNL d   1      12.780  11.786  -3.740  0.00  0.00     0.012 A 
ATOM     17  C   UNL d   1      13.130  12.087  -4.419  0.00  0.00     0.058 A 
ATOM     18  C   UNL d   1      13.848  12.492  -4.367  0.00  0.00     0.012 A 
ATOM     19 CL   UNL d   1      12.770  11.988  -5.159  0.00  0.00    -0.082 Cl
ATOM     20  C   UNL d   1      14.208  12.591  -3.627  0.00  0.00     0.014 A 
ENDBRANCH  11  14
ENDBRANCH   1  11
TORSDOF 2
ENDMDL
MODEL 2
REMARK VINA RESULT:      28.2      1.855      3.559
REMARK  2 active torsions:
REMARK  status: ('A' for Active; 'I' for Inactive)
REMARK    1  A    between atoms: N_2  and  S_1 
REMARK    2  A    between atoms: C_4  and  S_1 
ROOT
ATOM      1  N   UNL d   1      13.486  12.612  -3.670  0.00  0.00    -0.231 N 
ATOM      2  C   UNL d   1      13.387  13.385  -3.957  0.00  0.00     0.075 A 
ATOM      3  C   UNL d   1      13.034  13.512  -4.684  0.00  0.00     0.017 A 
ATOM      4  C   UNL d   1      13.224  11.969  -4.124  0.00  0.00     0.092 A 
ATOM      5  C   UNL d   1      13.649  14.029  -3.503  0.00  0.00     0.018 A 
ATOM      6  C   UNL d   1      12.870  12.095  -4.851  0.00  0.00     0.020 A 
ATOM      7  C   UNL d   1      12.771  12.868  -5.139  0.00  0.00     0.003 A 
ATOM      8  C   UNL d   1      12.935  14.285  -4.971  0.00  0.00     0.002 A 
ATOM      9  C   UNL d   1      13.549  14.790  -3.791  0.00  0.00     0.002 A 
ATOM     10  C   UNL d   1      13.196  14.917  -4.518  0.00  0.00     0.000 A 
ENDROOT
BRANCH   1  11
ATOM     11  S   UNL d   1      13.840  12.486  -2.942  0.00  0.00     0.271 S 
ATOM     12  O   UNL d   1      13.004  11.916  -2.635  0.00  0.00    -0.200 OA
ATOM     13  O   UNL d   1      14.553  12.972  -3.204  0.00  0.00    -0.200 OA
BRANCH  11  14
ATOM     14  C   UNL d   1      14.198  12.358  -2.206  0.00  0.00     0.104 A 
ATOM     15  C   UNL d   1      14.939  12.685  -2.052  0.00  0.00     0.014 A 
ATOM     16  C   UNL d   1      15.296  12.562  -1.327  0.00  0.00     0.012 A 
ATOM     17  C   UNL d   1      14.920  12.112  -0.751  0.00  0.00     0.058 A 
ATOM     18  C   UNL d   1      14.178  11.784  -0.906  0.00  0.00     0.012 A 
ATOM     19 CL   UNL d   1      15.278  11.984  -0.015  0.00  0.00    -0.082 Cl
ATOM     20  C   UNL d   1      13.820  11.913  -1.643  0.00  0.00     0.014 A 
ENDBRANCH  11  14
ENDBRANCH   1  11
TORSDOF 2
ENDMDL
