MODEL 1
REMARK VINA RESULT:      18.7      0.000      0.000
REMARK  1 active torsions:
REMARK  status: ('A' for Active; 'I' for Inactive)
REMARK    1  A    between atoms: C_6  and  C_1 
ROOT
ATOM      1  C   UNL d   1     -58.017 -98.786 -44.839  0.00  0.00     0.148 A 
ATOM      2  N   UNL d   1     -58.538 -98.777 -44.197  0.00  0.00    -0.289 N 
ATOM      3  N   UNL d   1     -58.448 -98.790 -45.534  0.00  0.00    -0.225 NA
ATOM      4  C   UNL d   1     -59.290 -98.775 -44.495  0.00  0.00     0.085 A 
ATOM      5  C   UNL d   1     -59.237 -98.783 -45.321  0.00  0.00     0.118 A 
ATOM      6  C   UNL d   1     -58.394 -98.771 -43.386  0.00  0.00     0.082 A 
ATOM      7  C   UNL d   1     -59.955 -98.766 -44.002  0.00  0.00     0.019 A 
ATOM      8  C   UNL d   1     -59.065 -98.762 -42.864  0.00  0.00     0.019 A 
ATOM      9  C   UNL d   1     -59.817 -98.759 -43.161  0.00  0.00     0.003 A 
ENDROOT
BRANCH   1  10
ATOM     10  C   UNL d   1     -57.203 -98.791 -44.697  0.00  0.00     0.035 A 
ATOM     11  C   UNL d   1     -56.878 -98.827 -43.914  0.00  0.00     0.004 A 
ATOM     12  C   UNL d   1     -56.073 -98.830 -43.782  0.00  0.00     0.011 A 
ATOM     13  C   UNL d   1     -55.578 -98.798 -44.422  0.00  0.00     0.058 A 
ATOM     14  C   UNL d   1     -55.866 -98.763 -45.191  0.00  0.00     0.011 A 
ATOM     15 CL   UNL d   1     -54.732 -98.803 -44.267  0.00  0.00    -0.082 Cl
ATOM     16  C   UNL d   1     -56.674 -98.759 -45.330  0.00  0.00     0.004 A 
ENDBRANCH   1  10
TORSDOF 1
ENDMDL
