MODEL 1
REMARK VINA RESULT:      55.6      0.000      0.000
REMARK  8 active torsions:
REMARK  status: ('A' for Active; 'I' for Inactive)
REMARK    1  A    between atoms: C_3  and  C_1 
REMARK    2  A    between atoms: N_5  and  C_2 
REMARK    3  A    between atoms: N_4  and  C_3 
REMARK    4  A    between atoms: C_10  and  C_3 
REMARK    5  A    between atoms: C_13  and  N_4 
REMARK       I    between atoms: C_6  and  N_5 
REMARK    6  A    between atoms: C_8  and  C_13 
REMARK    7  A    between atoms: O_16  and  C_8 
REMARK    8  A    between atoms: C_21  and  O_16 
ROOT
ATOM      1  C   UNL d   1     -51.568  25.627  34.344  0.00  0.00     0.083 C 
ENDROOT
BRANCH   1   2
ATOM      2  C   UNL d   1     -51.429  24.886  34.009  0.00  0.00     0.036 A 
ATOM      3  C   UNL d   1     -52.033  24.456  33.676  0.00  0.00     0.086 A 
ATOM      4  C   UNL d   1     -51.894  23.714  33.342  0.00  0.00     0.020 A 
ATOM      5  C   UNL d   1     -51.152  23.403  33.340  0.00  0.00     0.008 A 
ATOM      6  C   UNL d   1     -50.512  23.840  33.683  0.00  0.00     0.035 A 
ATOM      7  C   UNL d   1     -50.669  24.580  34.014  0.00  0.00     0.010 A 
ATOM      8 BR   UNL d   1     -49.733  23.528  33.689  0.00  0.00    -0.049 Br
BRANCH   3   9
ATOM      9  N   UNL d   1     -52.814  24.777  33.675  0.00  0.00    -0.208 NA
ATOM     10  C   UNL d   1     -53.466  24.274  33.583  0.00  0.00     0.279 C 
ATOM     11  O   UNL d   1     -54.211  24.581  33.582  0.00  0.00    -0.265 OA
ATOM     12  C   UNL d   1     -53.369  23.468  33.493  0.00  0.00     0.068 C 
ENDBRANCH   3   9
ENDBRANCH   1   2
BRANCH   1  13
ATOM     13  N   UNL d   1     -52.044  25.714  35.000  0.00  0.00    -0.238 NA
BRANCH  13  14
ATOM     14  C   UNL d   1     -51.820  26.271  35.573  0.00  0.00     0.167 C 
BRANCH  14  15
ATOM     15  C   UNL d   1     -51.989  26.096  36.379  0.00  0.00     0.320 C 
ATOM     16  O   UNL d   1     -52.761  25.812  36.577  0.00  0.00    -0.257 OA
BRANCH  15  17
ATOM     17  O   UNL d   1     -51.421  26.196  36.969  0.00  0.00    -0.270 OA
BRANCH  17  18
ATOM     18  C   UNL d   1     -51.502  25.823  37.671  0.00  0.00     0.126 C 
ATOM     19  C   UNL d   1     -52.020  26.091  38.257  0.00  0.00     0.029 C 
ENDBRANCH  17  18
ENDBRANCH  15  17
ENDBRANCH  14  15
ENDBRANCH  13  14
ENDBRANCH   1  13
BRANCH   1  20
ATOM     20  C   UNL d   1     -51.220  26.293  34.013  0.00  0.00     0.018 A 
ATOM     21  C   UNL d   1     -50.402  26.399  34.034  0.00  0.00     0.002 A 
ATOM     22  C   UNL d   1     -50.039  27.053  33.711  0.00  0.00     0.000 A 
ATOM     23  C   UNL d   1     -50.535  27.643  33.338  0.00  0.00     0.000 A 
ATOM     24  C   UNL d   1     -51.354  27.543  33.313  0.00  0.00     0.000 A 
ATOM     25  C   UNL d   1     -51.697  26.872  33.648  0.00  0.00     0.002 A 
ENDBRANCH   1  20
TORSDOF 8
ENDMDL
