MODEL 1
REMARK VINA RESULT:      65.7      0.000      0.000
REMARK  5 active torsions:
REMARK  status: ('A' for Active; 'I' for Inactive)
REMARK    1  A    between atoms: C_7  and  N_1 
REMARK    2  A    between atoms: C_8  and  N_6 
REMARK    3  A    between atoms: C_15  and  C_7 
REMARK    4  A    between atoms: N_9  and  C_15 
REMARK    5  A    between atoms: O_20  and  C_14 
ROOT
ATOM      1  N   UNL d   1     -48.049  28.887  35.171  0.00  0.00    -0.300 N 
ATOM      2  N   UNL d   1     -48.772  27.562  34.502  0.00  0.00    -0.299 N 
ATOM      3  C   UNL d   1     -48.854  28.745  35.298  0.00  0.00     0.100 A 
ATOM      4  C   UNL d   1     -47.606  28.366  34.710  0.00  0.00     0.100 A 
ATOM      5  C   UNL d   1     -49.215  28.083  34.963  0.00  0.00     0.100 A 
ATOM      6  C   UNL d   1     -47.967  27.704  34.375  0.00  0.00     0.100 A 
ENDROOT
BRANCH   2   7
ATOM      7  C   UNL d   1     -49.133  26.900  34.168  0.00  0.00     0.100 C 
BRANCH   7   8
ATOM      8  C   UNL d   1     -49.772  26.994  33.651  0.00  0.00     0.105 C 
BRANCH   8   9
ATOM      9  N   UNL d   1     -50.339  26.394  33.570  0.00  0.00    -0.239 N 
ATOM     10  C   UNL d   1     -51.155  26.493  33.523  0.00  0.00     0.267 A 
ATOM     11  C   UNL d   1     -51.499  25.744  33.445  0.00  0.00     0.061 A 
ATOM     12  O   UNL d   1     -51.557  27.213  33.548  0.00  0.00    -0.267 OA
ATOM     13  C   UNL d   1     -52.283  25.511  33.376  0.00  0.00     0.005 A 
ATOM     14  C   UNL d   1     -50.895  25.182  33.445  0.00  0.00     0.061 A 
ATOM     15  C   UNL d   1     -52.465  24.707  33.306  0.00  0.00     0.000 A 
ATOM     16  C   UNL d   1     -51.853  24.143  33.306  0.00  0.00     0.000 A 
ATOM     17  C   UNL d   1     -51.075  24.387  33.375  0.00  0.00     0.005 A 
ATOM     18  C   UNL d   1     -50.177  25.580  33.522  0.00  0.00     0.267 A 
ATOM     19  O   UNL d   1     -49.427  25.228  33.547  0.00  0.00    -0.267 OA
ENDBRANCH   8   9
ENDBRANCH   7   8
ENDBRANCH   2   7
BRANCH   1  20
ATOM     20  C   UNL d   1     -47.689  29.552  35.507  0.00  0.00     0.086 A 
ATOM     21  C   UNL d   1     -47.746  30.286  35.132  0.00  0.00     0.110 A 
ATOM     22  C   UNL d   1     -47.383  30.953  35.471  0.00  0.00     0.026 A 
ATOM     23  C   UNL d   1     -46.968  30.884  36.180  0.00  0.00     0.002 A 
ATOM     24  C   UNL d   1     -46.911  30.149  36.556  0.00  0.00     0.002 A 
ATOM     25  C   UNL d   1     -47.269  29.485  36.223  0.00  0.00     0.019 A 
BRANCH  21  26
ATOM     26  O   UNL d   1     -48.157  30.372  34.423  0.00  0.00    -0.327 OA
ATOM     27  C   UNL d   1     -48.289  31.118  34.092  0.00  0.00     0.181 C 
ENDBRANCH  21  26
ENDBRANCH   1  20
TORSDOF 5
ENDMDL
MODEL 2
REMARK VINA RESULT:      66.2      0.718      1.549
REMARK  5 active torsions:
REMARK  status: ('A' for Active; 'I' for Inactive)
REMARK    1  A    between atoms: C_7  and  N_1 
REMARK    2  A    between atoms: C_8  and  N_6 
REMARK    3  A    between atoms: C_15  and  C_7 
REMARK    4  A    between atoms: N_9  and  C_15 
REMARK    5  A    between atoms: O_20  and  C_14 
ROOT
ATOM      1  N   UNL d   1     -48.141  29.585  34.888  0.00  0.00    -0.300 N 
ATOM      2  N   UNL d   1     -48.867  28.154  34.503  0.00  0.00    -0.299 N 
ATOM      3  C   UNL d   1     -48.889  29.581  34.534  0.00  0.00     0.100 A 
ATOM      4  C   UNL d   1     -47.757  28.873  35.049  0.00  0.00     0.100 A 
ATOM      5  C   UNL d   1     -49.251  28.866  34.342  0.00  0.00     0.100 A 
ATOM      6  C   UNL d   1     -48.119  28.157  34.856  0.00  0.00     0.100 A 
ENDROOT
BRANCH   2   7
ATOM      7  C   UNL d   1     -49.229  27.438  34.311  0.00  0.00     0.100 C 
BRANCH   7   8
ATOM      8  C   UNL d   1     -49.769  27.402  33.685  0.00  0.00     0.105 C 
BRANCH   8   9
ATOM      9  N   UNL d   1     -50.267  26.746  33.596  0.00  0.00    -0.239 N 
ATOM     10  C   UNL d   1     -50.035  25.957  33.543  0.00  0.00     0.267 A 
ATOM     11  C   UNL d   1     -50.717  25.495  33.459  0.00  0.00     0.061 A 
ATOM     12  O   UNL d   1     -49.260  25.679  33.570  0.00  0.00    -0.267 OA
ATOM     13  C   UNL d   1     -50.818  24.684  33.382  0.00  0.00     0.005 A 
ATOM     14  C   UNL d   1     -51.371  25.998  33.460  0.00  0.00     0.061 A 
ATOM     15  C   UNL d   1     -51.581  24.374  33.306  0.00  0.00     0.000 A 
ATOM     16  C   UNL d   1     -52.238  24.884  33.307  0.00  0.00     0.000 A 
ATOM     17  C   UNL d   1     -52.125  25.691  33.384  0.00  0.00     0.005 A 
ATOM     18  C   UNL d   1     -51.097  26.772  33.545  0.00  0.00     0.267 A 
ATOM     19  O   UNL d   1     -51.567  27.454  33.573  0.00  0.00    -0.267 OA
ENDBRANCH   8   9
ENDBRANCH   7   8
ENDBRANCH   2   7
BRANCH   1  20
ATOM     20  C   UNL d   1     -47.779  30.304  35.080  0.00  0.00     0.086 A 
ATOM     21  C   UNL d   1     -47.532  30.447  35.856  0.00  0.00     0.110 A 
ATOM     22  C   UNL d   1     -47.168  31.170  36.047  0.00  0.00     0.026 A 
ATOM     23  C   UNL d   1     -47.053  31.744  35.465  0.00  0.00     0.002 A 
ATOM     24  C   UNL d   1     -47.300  31.601  34.689  0.00  0.00     0.002 A 
ATOM     25  C   UNL d   1     -47.661  30.885  34.496  0.00  0.00     0.019 A 
BRANCH  21  26
ATOM     26  O   UNL d   1     -47.640  29.885  36.448  0.00  0.00    -0.327 OA
ATOM     27  C   UNL d   1     -47.359  30.012  37.215  0.00  0.00     0.181 C 
ENDBRANCH  21  26
ENDBRANCH   1  20
TORSDOF 5
ENDMDL
MODEL 3
REMARK VINA RESULT:      67.3      0.914      5.847
REMARK  5 active torsions:
REMARK  status: ('A' for Active; 'I' for Inactive)
REMARK    1  A    between atoms: C_7  and  N_1 
REMARK    2  A    between atoms: C_8  and  N_6 
REMARK    3  A    between atoms: C_15  and  C_7 
REMARK    4  A    between atoms: N_9  and  C_15 
REMARK    5  A    between atoms: O_20  and  C_14 
ROOT
ATOM      1  N   UNL d   1     -50.563  26.771  33.596  0.00  0.00    -0.300 N 
ATOM      2  N   UNL d   1     -49.608  28.103  33.783  0.00  0.00    -0.299 N 
ATOM      3  C   UNL d   1     -50.823  27.508  33.325  0.00  0.00     0.100 A 
ATOM      4  C   UNL d   1     -49.826  26.700  33.960  0.00  0.00     0.100 A 
ATOM      5  C   UNL d   1     -50.345  28.174  33.419  0.00  0.00     0.100 A 
ATOM      6  C   UNL d   1     -49.348  27.366  34.053  0.00  0.00     0.100 A 
ENDROOT
BRANCH   2   7
ATOM      7  C   UNL d   1     -49.130  28.769  33.876  0.00  0.00     0.100 C 
BRANCH   7   8
ATOM      8  C   UNL d   1     -48.799  28.941  34.614  0.00  0.00     0.105 C 
BRANCH   8   9
ATOM      9  N   UNL d   1     -48.412  29.662  34.744  0.00  0.00    -0.239 N 
ATOM     10  C   UNL d   1     -47.799  29.801  35.277  0.00  0.00     0.267 A 
ATOM     11  C   UNL d   1     -47.586  30.599  35.218  0.00  0.00     0.061 A 
ATOM     12  O   UNL d   1     -47.460  29.243  35.780  0.00  0.00    -0.267 OA
ATOM     13  C   UNL d   1     -47.016  31.040  35.612  0.00  0.00     0.005 A 
ATOM     14  C   UNL d   1     -48.066  30.953  34.649  0.00  0.00     0.061 A 
ATOM     15  C   UNL d   1     -46.927  31.842  35.435  0.00  0.00     0.000 A 
ATOM     16  C   UNL d   1     -47.413  32.196  34.859  0.00  0.00     0.000 A 
ATOM     17  C   UNL d   1     -47.978  31.747  34.473  0.00  0.00     0.005 A 
ATOM     18  C   UNL d   1     -48.578  30.377  34.353  0.00  0.00     0.267 A 
ATOM     19  O   UNL d   1     -49.155  30.493  33.770  0.00  0.00    -0.267 OA
ENDBRANCH   8   9
ENDBRANCH   7   8
ENDBRANCH   2   7
BRANCH   1  20
ATOM     20  C   UNL d   1     -51.044  26.103  33.501  0.00  0.00     0.086 A 
ATOM     21  C   UNL d   1     -50.706  25.348  33.503  0.00  0.00     0.110 A 
ATOM     22  C   UNL d   1     -51.191  24.679  33.407  0.00  0.00     0.026 A 
ATOM     23  C   UNL d   1     -52.006  24.767  33.312  0.00  0.00     0.002 A 
ATOM     24  C   UNL d   1     -52.343  25.522  33.311  0.00  0.00     0.002 A 
ATOM     25  C   UNL d   1     -51.866  26.188  33.405  0.00  0.00     0.019 A 
BRANCH  21  26
ATOM     26  O   UNL d   1     -49.895  25.244  33.597  0.00  0.00    -0.327 OA
ATOM     27  C   UNL d   1     -49.513  24.571  33.306  0.00  0.00     0.181 C 
ENDBRANCH  21  26
ENDBRANCH   1  20
TORSDOF 5
ENDMDL
