MODEL 1
REMARK VINA RESULT:      46.8      0.000      0.000
REMARK  5 active torsions:
REMARK  status: ('A' for Active; 'I' for Inactive)
REMARK    1  A    between atoms: N_2  and  C_1 
REMARK    2  A    between atoms: N_11  and  C_6 
REMARK    3  A    between atoms: C_13  and  N_11 
REMARK    4  A    between atoms: O_20  and  C_14 
REMARK    5  A    between atoms: C_23  and  O_20 
ROOT
ATOM      1  C   UNL d   1      14.736  14.537  -1.502  0.00  0.00     0.752 A 
ATOM      2  N   UNL d   1      14.335  14.588  -2.225  0.00  0.00    -0.040 NA
ATOM      3  C   UNL d   1      14.289  15.306  -2.623  0.00  0.00     0.182 A 
ATOM      4  N   UNL d   1      15.090  15.213  -1.182  0.00  0.00    -0.059 NA
ATOM      5  C   UNL d   1      14.644  15.982  -2.304  0.00  0.00     0.059 A 
ATOM      6  C   UNL d   1      15.046  15.936  -1.581  0.00  0.00     0.103 A 
ATOM      7  C   UNL d   1      15.401  16.613  -1.261  0.00  0.00     0.021 C 
ENDROOT
BRANCH   3   8
ATOM      8  N   UNL d   1      13.890  15.357  -3.343  0.00  0.00    -0.226 NA
BRANCH   8   9
ATOM      9  C   UNL d   1      13.624  14.670  -3.726  0.00  0.00     0.083 A 
ATOM     10  C   UNL d   1      13.034  14.210  -3.363  0.00  0.00     0.021 A 
ATOM     11  C   UNL d   1      12.769  13.523  -3.751  0.00  0.00     0.026 A 
ATOM     12  C   UNL d   1      13.087  13.305  -4.480  0.00  0.00     0.100 A 
ATOM     13  C   UNL d   1      13.674  13.772  -4.831  0.00  0.00     0.026 A 
ATOM     14  C   UNL d   1      13.944  14.456  -4.455  0.00  0.00     0.021 A 
BRANCH  12  15
ATOM     15  O   UNL d   1      12.819  12.620  -4.860  0.00  0.00    -0.305 OA
BRANCH  15  16
ATOM     16  C   UNL d   1      12.964  11.885  -4.519  0.00  0.00     0.123 C 
ATOM     17  C   UNL d   1      13.639  11.780  -4.060  0.00  0.00     0.029 C 
ENDBRANCH  15  16
ENDBRANCH  12  15
ENDBRANCH   8   9
ENDBRANCH   3   8
BRANCH   1  18
ATOM     18  N   UNL d   1      14.783  13.894  -1.134  0.00  0.00    -0.058 N 
ATOM     19  N   UNL d   1      14.734  12.593  -1.134  0.00  0.00    -0.151 NA
ATOM     20  C   UNL d   1      14.878  12.592  -0.387  0.00  0.00     0.103 A 
ATOM     21  C   UNL d   1      14.926  11.944  -0.015  0.00  0.00     0.022 C 
ATOM     22  C   UNL d   1      14.970  13.245  -0.036  0.00  0.00     0.041 A 
ATOM     23  C   UNL d   1      14.925  13.894  -0.396  0.00  0.00     0.102 A 
ATOM     24  C   UNL d   1      15.019  14.550  -0.032  0.00  0.00     0.021 C 
ENDBRANCH   1  18
TORSDOF 5
ENDMDL
MODEL 2
REMARK VINA RESULT:      47.2      1.881      3.693
REMARK  5 active torsions:
REMARK  status: ('A' for Active; 'I' for Inactive)
REMARK    1  A    between atoms: N_2  and  C_1 
REMARK    2  A    between atoms: N_11  and  C_6 
REMARK    3  A    between atoms: C_13  and  N_11 
REMARK    4  A    between atoms: O_20  and  C_14 
REMARK    5  A    between atoms: C_23  and  O_20 
ROOT
ATOM      1  C   UNL d   1      14.952  15.950  -1.885  0.00  0.00     0.752 A 
ATOM      2  N   UNL d   1      15.210  15.381  -1.341  0.00  0.00    -0.040 NA
ATOM      3  C   UNL d   1      15.447  15.607  -0.587  0.00  0.00     0.182 A 
ATOM      4  N   UNL d   1      14.933  16.748  -1.665  0.00  0.00    -0.059 NA
ATOM      5  C   UNL d   1      15.428  16.405  -0.367  0.00  0.00     0.059 A 
ATOM      6  C   UNL d   1      15.171  16.977  -0.907  0.00  0.00     0.103 A 
ATOM      7  C   UNL d   1      15.152  17.775  -0.687  0.00  0.00     0.021 C 
ENDROOT
BRANCH   3   8
ATOM      8  N   UNL d   1      15.703  15.041  -0.046  0.00  0.00    -0.226 NA
BRANCH   8   9
ATOM      9  C   UNL d   1      15.374  14.278  -0.045  0.00  0.00     0.083 A 
ATOM     10  C   UNL d   1      14.547  14.197  -0.016  0.00  0.00     0.021 A 
ATOM     11  C   UNL d   1      14.222  13.431  -0.015  0.00  0.00     0.026 A 
ATOM     12  C   UNL d   1      14.710  12.768  -0.042  0.00  0.00     0.100 A 
ATOM     13  C   UNL d   1      15.533  12.863  -0.070  0.00  0.00     0.026 A 
ATOM     14  C   UNL d   1      15.866  13.618  -0.072  0.00  0.00     0.021 A 
BRANCH  12  15
ATOM     15  O   UNL d   1      14.379  12.010  -0.041  0.00  0.00    -0.305 OA
BRANCH  15  16
ATOM     16  C   UNL d   1      13.869  11.790  -0.648  0.00  0.00     0.123 C 
ATOM     17  C   UNL d   1      13.057  11.886  -0.548  0.00  0.00     0.029 C 
ENDBRANCH  15  16
ENDBRANCH  12  15
ENDBRANCH   8   9
ENDBRANCH   3   8
BRANCH   1  18
ATOM     18  N   UNL d   1      14.737  15.756  -2.569  0.00  0.00    -0.058 N 
ATOM     19  N   UNL d   1      14.067  14.962  -3.354  0.00  0.00    -0.151 NA
ATOM     20  C   UNL d   1      14.302  15.367  -3.955  0.00  0.00     0.103 A 
ATOM     21  C   UNL d   1      14.085  15.173  -4.645  0.00  0.00     0.022 C 
ATOM     22  C   UNL d   1      14.748  15.955  -3.843  0.00  0.00     0.041 A 
ATOM     23  C   UNL d   1      14.968  16.156  -3.162  0.00  0.00     0.102 A 
ATOM     24  C   UNL d   1      15.420  16.754  -3.058  0.00  0.00     0.021 C 
ENDBRANCH   1  18
TORSDOF 5
ENDMDL
