MODEL 1
REMARK VINA RESULT:      -4.7      0.000      0.000
REMARK  4 active torsions:
REMARK  status: ('A' for Active; 'I' for Inactive)
REMARK    1  A    between atoms: N_5  and  C_1 
REMARK    2  A    between atoms: C_4  and  N_6 
REMARK    3  A    between atoms: N_11  and  C_4 
REMARK    4  A    between atoms: N_6  and  N_5 
ROOT
ATOM      1  C   UNL d   1     -41.278-122.476 -52.510  0.00  0.00     0.768 A 
ATOM      2  N   UNL d   1     -41.387-123.161 -52.069  0.00  0.00    -0.058 NA
ATOM      3  N   UNL d   1     -41.189-121.747 -52.125  0.00  0.00    -0.058 NA
ATOM      4  C   UNL d   1     -41.409-123.127 -51.244  0.00  0.00     0.102 A 
ATOM      5  C   UNL d   1     -41.211-121.713 -51.300  0.00  0.00     0.102 A 
ATOM      6  C   UNL d   1     -41.320-122.398 -50.859  0.00  0.00     0.040 A 
ATOM      7  C   UNL d   1     -41.123-120.988 -50.915  0.00  0.00     0.021 C 
ATOM      8  C   UNL d   1     -41.519-123.816 -50.803  0.00  0.00     0.021 C 
ENDROOT
BRANCH   1   9
ATOM      9  N   UNL d   1     -41.257-122.511 -53.331  0.00  0.00     0.049 NA
BRANCH   9  10
ATOM     10  N   UNL d   1     -41.914-122.276 -53.767  0.00  0.00    -0.101 NA
BRANCH  10  11
ATOM     11  C   UNL d   1     -41.902-122.335 -54.584  0.00  0.00     0.241 C 
ATOM     12  S   UNL d   1     -41.510-122.957 -54.943  0.00  0.00    -0.035 SA
BRANCH  11  13
ATOM     13  N   UNL d   1     -42.284-121.771 -55.040  0.00  0.00    -0.213 NA
ATOM     14  C   UNL d   1     -42.451-121.925 -55.831  0.00  0.00     0.122 C 
ENDBRANCH  11  13
ENDBRANCH  10  11
ENDBRANCH   9  10
ENDBRANCH   1   9
TORSDOF 4
ENDMDL
MODEL 2
REMARK VINA RESULT:      -4.5      0.177      1.330
REMARK  4 active torsions:
REMARK  status: ('A' for Active; 'I' for Inactive)
REMARK    1  A    between atoms: N_5  and  C_1 
REMARK    2  A    between atoms: C_4  and  N_6 
REMARK    3  A    between atoms: N_11  and  C_4 
REMARK    4  A    between atoms: N_6  and  N_5 
ROOT
ATOM      1  C   UNL d   1     -41.182-122.348 -52.485  0.00  0.00     0.768 A 
ATOM      2  N   UNL d   1     -41.154-121.647 -52.056  0.00  0.00    -0.058 NA
ATOM      3  N   UNL d   1     -41.208-123.074 -52.087  0.00  0.00    -0.058 NA
ATOM      4  C   UNL d   1     -41.151-121.664 -51.230  0.00  0.00     0.102 A 
ATOM      5  C   UNL d   1     -41.205-123.091 -51.260  0.00  0.00     0.102 A 
ATOM      6  C   UNL d   1     -41.176-122.390 -50.832  0.00  0.00     0.040 A 
ATOM      7  C   UNL d   1     -41.230-123.813 -50.862  0.00  0.00     0.021 C 
ATOM      8  C   UNL d   1     -41.123-120.959 -50.801  0.00  0.00     0.021 C 
ENDROOT
BRANCH   1   9
ATOM      9  N   UNL d   1     -41.185-122.330 -53.307  0.00  0.00     0.049 NA
BRANCH   9  10
ATOM     10  N   UNL d   1     -41.893-122.428 -53.715  0.00  0.00    -0.101 NA
BRANCH  10  11
ATOM     11  C   UNL d   1     -41.905-122.363 -54.530  0.00  0.00     0.241 C 
ATOM     12  S   UNL d   1     -41.420-122.841 -54.986  0.00  0.00    -0.035 SA
BRANCH  11  13
ATOM     13  N   UNL d   1     -42.401-121.820 -54.891  0.00  0.00    -0.213 NA
ATOM     14  C   UNL d   1     -42.610-121.913 -55.681  0.00  0.00     0.122 C 
ENDBRANCH  11  13
ENDBRANCH  10  11
ENDBRANCH   9  10
ENDBRANCH   1   9
TORSDOF 4
ENDMDL
MODEL 3
REMARK VINA RESULT:      -3.7      1.040      1.153
REMARK  4 active torsions:
REMARK  status: ('A' for Active; 'I' for Inactive)
REMARK    1  A    between atoms: N_5  and  C_1 
REMARK    2  A    between atoms: C_4  and  N_6 
REMARK    3  A    between atoms: N_11  and  C_4 
REMARK    4  A    between atoms: N_6  and  N_5 
ROOT
ATOM      1  C   UNL d   1     -41.625-122.595 -51.688  0.00  0.00     0.768 A 
ATOM      2  N   UNL d   1     -41.242-123.138 -51.205  0.00  0.00    -0.058 NA
ATOM      3  N   UNL d   1     -42.281-122.177 -51.401  0.00  0.00    -0.058 NA
ATOM      4  C   UNL d   1     -41.508-123.271 -50.434  0.00  0.00     0.102 A 
ATOM      5  C   UNL d   1     -42.547-122.310 -50.630  0.00  0.00     0.102 A 
ATOM      6  C   UNL d   1     -42.164-122.854 -50.147  0.00  0.00     0.040 A 
ATOM      7  C   UNL d   1     -43.200-121.895 -50.343  0.00  0.00     0.021 C 
ATOM      8  C   UNL d   1     -41.123-123.817 -49.950  0.00  0.00     0.021 C 
ENDROOT
BRANCH   1   9
ATOM      9  N   UNL d   1     -41.359-122.464 -52.455  0.00  0.00     0.049 NA
BRANCH   9  10
ATOM     10  N   UNL d   1     -41.899-122.432 -53.075  0.00  0.00    -0.101 NA
BRANCH  10  11
ATOM     11  C   UNL d   1     -41.632-122.451 -53.848  0.00  0.00     0.241 C 
ATOM     12  S   UNL d   1     -41.172-123.078 -54.107  0.00  0.00    -0.035 SA
BRANCH  11  13
ATOM     13  N   UNL d   1     -41.825-121.843 -54.363  0.00  0.00    -0.213 NA
ATOM     14  C   UNL d   1     -42.253-122.004 -55.047  0.00  0.00     0.122 C 
ENDBRANCH  11  13
ENDBRANCH  10  11
ENDBRANCH   9  10
ENDBRANCH   1   9
TORSDOF 4
ENDMDL
MODEL 4
REMARK VINA RESULT:      -3.2      2.530      4.289
REMARK  4 active torsions:
REMARK  status: ('A' for Active; 'I' for Inactive)
REMARK    1  A    between atoms: N_5  and  C_1 
REMARK    2  A    between atoms: C_4  and  N_6 
REMARK    3  A    between atoms: N_11  and  C_4 
REMARK    4  A    between atoms: N_6  and  N_5 
ROOT
ATOM      1  C   UNL d   1     -41.955-122.918 -51.007  0.00  0.00     0.768 A 
ATOM      2  N   UNL d   1     -41.747-122.129 -51.109  0.00  0.00    -0.058 NA
ATOM      3  N   UNL d   1     -41.746-123.477 -51.582  0.00  0.00    -0.058 NA
ATOM      4  C   UNL d   1     -41.331-121.891 -51.782  0.00  0.00     0.102 A 
ATOM      5  C   UNL d   1     -41.331-123.239 -52.256  0.00  0.00     0.102 A 
ATOM      6  C   UNL d   1     -41.123-122.451 -52.357  0.00  0.00     0.040 A 
ATOM      7  C   UNL d   1     -41.123-123.795 -52.829  0.00  0.00     0.021 C 
ATOM      8  C   UNL d   1     -41.123-121.099 -51.883  0.00  0.00     0.021 C 
ENDROOT
BRANCH   1   9
ATOM      9  N   UNL d   1     -42.368-123.153 -50.336  0.00  0.00     0.049 NA
BRANCH   9  10
ATOM     10  N   UNL d   1     -42.086-122.952 -49.591  0.00  0.00    -0.101 NA
BRANCH  10  11
ATOM     11  C   UNL d   1     -42.392-123.320 -48.927  0.00  0.00     0.241 C 
ATOM     12  S   UNL d   1     -43.128-123.677 -48.960  0.00  0.00    -0.035 SA
BRANCH  11  13
ATOM     13  N   UNL d   1     -41.962-123.330 -48.229  0.00  0.00    -0.213 NA
ATOM     14  C   UNL d   1     -42.307-123.609 -47.537  0.00  0.00     0.122 C 
ENDBRANCH  11  13
ENDBRANCH  10  11
ENDBRANCH   9  10
ENDBRANCH   1   9
TORSDOF 4
ENDMDL
MODEL 5
REMARK VINA RESULT:      -2.7      1.416      3.622
REMARK  4 active torsions:
REMARK  status: ('A' for Active; 'I' for Inactive)
REMARK    1  A    between atoms: N_5  and  C_1 
REMARK    2  A    between atoms: C_4  and  N_6 
REMARK    3  A    between atoms: N_11  and  C_4 
REMARK    4  A    between atoms: N_6  and  N_5 
ROOT
ATOM      1  C   UNL d   1     -41.459-122.215 -53.254  0.00  0.00     0.768 A 
ATOM      2  N   UNL d   1     -41.950-121.700 -53.667  0.00  0.00    -0.058 NA
ATOM      3  N   UNL d   1     -41.215-122.924 -53.606  0.00  0.00    -0.058 NA
ATOM      4  C   UNL d   1     -42.200-121.887 -54.433  0.00  0.00     0.102 A 
ATOM      5  C   UNL d   1     -41.466-123.111 -54.371  0.00  0.00     0.102 A 
ATOM      6  C   UNL d   1     -41.956-122.597 -54.785  0.00  0.00     0.040 A 
ATOM      7  C   UNL d   1     -41.224-123.817 -54.723  0.00  0.00     0.021 C 
ATOM      8  C   UNL d   1     -42.692-121.369 -54.846  0.00  0.00     0.021 C 
ENDROOT
BRANCH   1   9
ATOM      9  N   UNL d   1     -41.211-122.028 -52.493  0.00  0.00     0.049 NA
BRANCH   9  10
ATOM     10  N   UNL d   1     -41.258-122.594 -51.897  0.00  0.00    -0.101 NA
BRANCH  10  11
ATOM     11  C   UNL d   1     -41.236-122.361 -51.113  0.00  0.00     0.241 C 
ATOM     12  S   UNL d   1     -41.126-121.572 -50.923  0.00  0.00    -0.035 SA
BRANCH  11  13
ATOM     13  N   UNL d   1     -41.324-122.918 -50.518  0.00  0.00    -0.213 NA
ATOM     14  C   UNL d   1     -41.846-123.546 -50.616  0.00  0.00     0.122 C 
ENDBRANCH  11  13
ENDBRANCH  10  11
ENDBRANCH   9  10
ENDBRANCH   1   9
TORSDOF 4
ENDMDL
