MODEL 1
REMARK VINA RESULT:      16.4      0.000      0.000
REMARK  1 active torsions:
REMARK  status: ('A' for Active; 'I' for Inactive)
REMARK    1  A    between atoms: O_8  and  C_4 
ROOT
ATOM      1  C   UNL d   1      56.981  49.702  50.243  0.00  0.00     0.021 A 
ATOM      2  C   UNL d   1      57.638  49.703  50.742  0.00  0.00     0.024 A 
ATOM      3  C   UNL d   1      57.074  49.702  49.422  0.00  0.00     0.103 A 
ATOM      4  C   UNL d   1      58.394  49.704  50.427  0.00  0.00     0.094 A 
ATOM      5  C   UNL d   1      57.835  49.702  49.100  0.00  0.00     0.023 A 
ATOM      6  C   UNL d   1      58.491  49.703  49.600  0.00  0.00     0.026 A 
ATOM      7  N   UNL d   1      56.407  49.700  48.930  0.00  0.00    -0.148 N 
ATOM      8  C   UNL d   1      56.223  49.701  50.561  0.00  0.00     0.002 A 
ATOM      9  C   UNL d   1      57.532  49.704  51.558  0.00  0.00     0.002 A 
ATOM     10  C   UNL d   1      56.115  49.702  51.380  0.00  0.00     0.000 A 
ATOM     11  C   UNL d   1      56.771  49.703  51.880  0.00  0.00     0.000 A 
ENDROOT
BRANCH   4  12
ATOM     12  O   UNL d   1      59.053  49.705  50.929  0.00  0.00    -0.328 OA
ATOM     13  C   UNL d   1      59.810  49.696  50.614  0.00  0.00     0.181 C 
ENDBRANCH   4  12
TORSDOF 1
ENDMDL
MODEL 2
REMARK VINA RESULT:      19.1      0.895      2.156
REMARK  1 active torsions:
REMARK  status: ('A' for Active; 'I' for Inactive)
REMARK    1  A    between atoms: O_8  and  C_4 
ROOT
ATOM      1  C   UNL d   1      57.462  49.620  50.069  0.00  0.00     0.021 A 
ATOM      2  C   UNL d   1      57.474  49.654  50.893  0.00  0.00     0.024 A 
ATOM      3  C   UNL d   1      56.747  49.603  49.657  0.00  0.00     0.103 A 
ATOM      4  C   UNL d   1      56.771  49.673  51.313  0.00  0.00     0.094 A 
ATOM      5  C   UNL d   1      56.036  49.621  50.076  0.00  0.00     0.023 A 
ATOM      6  C   UNL d   1      56.048  49.656  50.901  0.00  0.00     0.026 A 
ATOM      7  N   UNL d   1      56.748  49.567  48.828  0.00  0.00    -0.148 N 
ATOM      8  C   UNL d   1      58.169  49.601  49.648  0.00  0.00     0.002 A 
ATOM      9  C   UNL d   1      58.193  49.671  51.293  0.00  0.00     0.002 A 
ATOM     10  C   UNL d   1      58.892  49.618  50.049  0.00  0.00     0.000 A 
ATOM     11  C   UNL d   1      58.904  49.653  50.873  0.00  0.00     0.000 A 
ENDROOT
BRANCH   4  12
ATOM     12  O   UNL d   1      56.783  49.708  52.141  0.00  0.00    -0.328 OA
ATOM     13  C   UNL d   1      56.080  49.699  52.563  0.00  0.00     0.181 C 
ENDBRANCH   4  12
TORSDOF 1
ENDMDL
MODEL 3
REMARK VINA RESULT:      19.3      1.670      3.036
REMARK  1 active torsions:
REMARK  status: ('A' for Active; 'I' for Inactive)
REMARK    1  A    between atoms: O_8  and  C_4 
ROOT
ATOM      1  C   UNL d   1      60.254  49.696  50.767  0.00  0.00     0.021 A 
ATOM      2  C   UNL d   1      59.519  49.699  51.142  0.00  0.00     0.024 A 
ATOM      3  C   UNL d   1      60.308  49.692  49.944  0.00  0.00     0.103 A 
ATOM      4  C   UNL d   1      58.831  49.699  50.697  0.00  0.00     0.094 A 
ATOM      5  C   UNL d   1      59.617  49.691  49.491  0.00  0.00     0.023 A 
ATOM      6  C   UNL d   1      58.882  49.695  49.866  0.00  0.00     0.026 A 
ATOM      7  N   UNL d   1      61.052  49.689  49.578  0.00  0.00    -0.148 N 
ATOM      8  C   UNL d   1      60.944  49.697  51.216  0.00  0.00     0.002 A 
ATOM      9  C   UNL d   1      59.478  49.703  51.964  0.00  0.00     0.002 A 
ATOM     10  C   UNL d   1      60.904  49.700  52.041  0.00  0.00     0.000 A 
ATOM     11  C   UNL d   1      60.169  49.704  52.416  0.00  0.00     0.000 A 
ENDROOT
BRANCH   4  12
ATOM     12  O   UNL d   1      58.093  49.702  51.074  0.00  0.00    -0.328 OA
ATOM     13  C   UNL d   1      57.409  49.584  50.639  0.00  0.00     0.181 C 
ENDBRANCH   4  12
TORSDOF 1
ENDMDL
