MODEL 1
REMARK VINA RESULT:      45.6      0.000      0.000
REMARK  5 active torsions:
REMARK  status: ('A' for Active; 'I' for Inactive)
REMARK    1  A    between atoms: C_3  and  C_1 
REMARK    2  A    between atoms: C_6  and  C_9 
REMARK    3  A    between atoms: C_7  and  C_12 
REMARK    4  A    between atoms: C_9  and  C_11 
REMARK       I    between atoms: C_11  and  N_16 
REMARK    5  A    between atoms: N_16  and  C_18 
ROOT
ATOM      1  N   UNL d   1      14.816  11.852  -2.966  0.00  0.00    -0.207 NA
ATOM      2  C   UNL d   1      14.834  11.996  -2.141  0.00  0.00     0.285 A 
ATOM      3  S   UNL d   1      13.492  12.517  -2.208  0.00  0.00    -0.080 SA
ATOM      4  C   UNL d   1      14.176  12.327  -1.764  0.00  0.00     0.092 A 
ATOM      5  C   UNL d   1      14.137  12.043  -3.400  0.00  0.00     0.090 A 
ATOM      6  C   UNL d   1      13.477  12.374  -3.026  0.00  0.00     0.047 A 
ATOM      7  C   UNL d   1      13.446  12.089  -4.647  0.00  0.00     0.073 A 
ATOM      8  C   UNL d   1      14.122  11.900  -4.213  0.00  0.00     0.024 A 
ATOM      9  O   UNL d   1      15.504  11.810  -1.703  0.00  0.00    -0.265 OA
ATOM     10  C   UNL d   1      12.803  12.562  -3.458  0.00  0.00     0.008 A 
ATOM     11  C   UNL d   1      12.787  12.420  -4.270  0.00  0.00     0.004 A 
ENDROOT
BRANCH   4  12
ATOM     12  C   UNL d   1      14.183  12.471  -0.960  0.00  0.00     0.074 C 
BRANCH  12  13
ATOM     13  C   UNL d   1      14.526  13.172  -0.669  0.00  0.00     0.280 C 
ATOM     14  N   UNL d   1      14.757  13.770  -1.192  0.00  0.00    -0.208 NA
ATOM     15  O   UNL d   1      14.605  13.247  -0.118  0.00  0.00    -0.265 OA
BRANCH  14  16
ATOM     16  C   UNL d   1      15.096  14.461  -0.896  0.00  0.00     0.085 A 
ATOM     17  C   UNL d   1      14.849  15.190  -1.182  0.00  0.00     0.024 A 
ATOM     18  C   UNL d   1      15.188  15.881  -0.886  0.00  0.00     0.084 A 
ATOM     19  C   UNL d   1      15.771  15.839  -0.305  0.00  0.00     0.062 A 
ATOM     20  C   UNL d   1      16.014  15.099  -0.021  0.00  0.00     0.013 A 
ATOM     21 CL   UNL d   1      16.103  16.519  -0.014  0.00  0.00    -0.082 Cl
ATOM     22  C   UNL d   1      15.679  14.415  -0.315  0.00  0.00     0.020 A 
BRANCH  18  23
ATOM     23  C   UNL d   1      14.946  16.602  -1.167  0.00  0.00     0.420 C 
ATOM     24  F   UNL d   1      14.721  17.265  -1.422  0.00  0.00    -0.166 F 
ATOM     25  F   UNL d   1      14.457  17.186  -0.794  0.00  0.00    -0.166 F 
ATOM     26  F   UNL d   1      15.113  16.970  -1.910  0.00  0.00    -0.166 F 
ENDBRANCH  18  23
ENDBRANCH  14  16
ENDBRANCH  12  13
ENDBRANCH   4  12
BRANCH   7  27
ATOM     27  C   UNL d   1      13.430  11.949  -5.445  0.00  0.00     0.419 C 
ATOM     28  F   UNL d   1      12.769  11.930  -5.975  0.00  0.00    -0.166 F 
ATOM     29  F   UNL d   1      14.077  11.782  -5.978  0.00  0.00    -0.166 F 
ATOM     30  F   UNL d   1      13.413  11.821  -6.180  0.00  0.00    -0.166 F 
ENDBRANCH   7  27
TORSDOF 5
ENDMDL
