MODEL 1
REMARK VINA RESULT:      -6.7      0.000      0.000
REMARK  6 active torsions:
REMARK  status: ('A' for Active; 'I' for Inactive)
REMARK    1  A    between atoms: C_2  and  S_1 
REMARK    2  A    between atoms: N_3  and  S_1 
REMARK    3  A    between atoms: C_10  and  N_3 
REMARK    4  A    between atoms: C_16  and  C_11 
REMARK    5  A    between atoms: C_17  and  C_16 
REMARK    6  A    between atoms: C_18  and  C_17 
ROOT
ATOM      1  C   UNL d   1     -47.865  13.651  22.580  0.00  0.00     0.094 A 
ATOM      2  C   UNL d   1     -47.147  12.376  23.307  0.00  0.00     0.000 A 
ATOM      3  C   UNL d   1     -47.136  13.748  22.955  0.00  0.00     0.020 A 
ATOM      4  C   UNL d   1     -48.227  12.915  22.574  0.00  0.00     0.020 A 
ATOM      5  C   UNL d   1     -47.875  12.290  22.930  0.00  0.00     0.002 A 
ATOM      6  C   UNL d   1     -46.783  13.123  23.311  0.00  0.00     0.002 A 
ENDROOT
BRANCH   1   7
ATOM      7  N   UNL d   1     -48.245  14.325  22.196  0.00  0.00    -0.158 NA
BRANCH   7   8
ATOM      8  S   UNL d   1     -48.975  14.588  22.469  0.00  0.00     0.291 S 
ATOM      9  O   UNL d   1     -48.542  15.129  22.962  0.00  0.00    -0.198 OA
ATOM     10  O   UNL d   1     -49.352  14.027  21.955  0.00  0.00    -0.198 OA
BRANCH   8  11
ATOM     11  C   UNL d   1     -49.697  14.858  22.748  0.00  0.00     0.135 A 
ATOM     12  S   UNL d   1     -49.921  15.314  23.389  0.00  0.00    -0.073 SA
ATOM     13  C   UNL d   1     -50.743  15.404  23.382  0.00  0.00     0.036 A 
ATOM     14  C   UNL d   1     -51.025  15.015  22.756  0.00  0.00     0.008 A 
ATOM     15  C   UNL d   1     -50.394  14.669  22.348  0.00  0.00     0.020 A 
ENDBRANCH   8  11
ENDBRANCH   7   8
ENDBRANCH   1   7
BRANCH   2  16
ATOM     16  C   UNL d   1     -46.766  11.702  23.691  0.00  0.00     0.000 C 
BRANCH  16  17
ATOM     17  C   UNL d   1     -46.062  11.397  23.386  0.00  0.00     0.000 C 
BRANCH  17  18
ATOM     18  C   UNL d   1     -45.765  10.683  23.672  0.00  0.00     0.000 C 
ATOM     19  C   UNL d   1     -44.956  10.551  23.694  0.00  0.00     0.000 C 
ENDBRANCH  17  18
ENDBRANCH  16  17
ENDBRANCH   2  16
TORSDOF 6
ENDMDL
MODEL 2
REMARK VINA RESULT:      -6.6      1.749      2.123
REMARK  6 active torsions:
REMARK  status: ('A' for Active; 'I' for Inactive)
REMARK    1  A    between atoms: C_2  and  S_1 
REMARK    2  A    between atoms: N_3  and  S_1 
REMARK    3  A    between atoms: C_10  and  N_3 
REMARK    4  A    between atoms: C_16  and  C_11 
REMARK    5  A    between atoms: C_17  and  C_16 
REMARK    6  A    between atoms: C_18  and  C_17 
ROOT
ATOM      1  C   UNL d   1     -47.471  13.319  23.150  0.00  0.00     0.094 A 
ATOM      2  C   UNL d   1     -45.948  13.458  22.576  0.00  0.00     0.000 A 
ATOM      3  C   UNL d   1     -47.174  14.062  22.946  0.00  0.00     0.020 A 
ATOM      4  C   UNL d   1     -47.001  12.653  23.065  0.00  0.00     0.020 A 
ATOM      5  C   UNL d   1     -46.254  12.721  22.783  0.00  0.00     0.002 A 
ATOM      6  C   UNL d   1     -46.427  14.130  22.664  0.00  0.00     0.002 A 
ENDROOT
BRANCH   1   7
ATOM      7  N   UNL d   1     -48.277  13.246  23.454  0.00  0.00    -0.158 NA
BRANCH   7   8
ATOM      8  S   UNL d   1     -48.906  13.196  22.926  0.00  0.00     0.291 S 
ATOM      9  O   UNL d   1     -49.004  14.034  23.038  0.00  0.00    -0.198 OA
ATOM     10  O   UNL d   1     -48.759  12.362  22.856  0.00  0.00    -0.198 OA
BRANCH   8  11
ATOM     11  C   UNL d   1     -49.534  13.157  22.402  0.00  0.00     0.135 A 
ATOM     12  S   UNL d   1     -49.898  13.704  21.915  0.00  0.00    -0.073 SA
ATOM     13  C   UNL d   1     -50.515  13.334  21.507  0.00  0.00     0.036 A 
ATOM     14  C   UNL d   1     -50.535  12.577  21.732  0.00  0.00     0.008 A 
ATOM     15  C   UNL d   1     -49.936  12.446  22.286  0.00  0.00     0.020 A 
ENDBRANCH   8  11
ENDBRANCH   7   8
ENDBRANCH   1   7
BRANCH   2  16
ATOM     16  C   UNL d   1     -45.142  13.531  22.272  0.00  0.00     0.000 C 
BRANCH  16  17
ATOM     17  C   UNL d   1     -44.770  12.879  21.929  0.00  0.00     0.000 C 
BRANCH  17  18
ATOM     18  C   UNL d   1     -44.078  12.982  21.492  0.00  0.00     0.000 C 
ATOM     19  C   UNL d   1     -43.438  12.484  21.609  0.00  0.00     0.000 C 
ENDBRANCH  17  18
ENDBRANCH  16  17
ENDBRANCH   2  16
TORSDOF 6
ENDMDL
MODEL 3
REMARK VINA RESULT:      -6.0      8.799      9.929
REMARK  6 active torsions:
REMARK  status: ('A' for Active; 'I' for Inactive)
REMARK    1  A    between atoms: C_2  and  S_1 
REMARK    2  A    between atoms: N_3  and  S_1 
REMARK    3  A    between atoms: C_10  and  N_3 
REMARK    4  A    between atoms: C_16  and  C_11 
REMARK    5  A    between atoms: C_17  and  C_16 
REMARK    6  A    between atoms: C_18  and  C_17 
ROOT
ATOM      1  C   UNL d   1     -40.658  14.889  19.009  0.00  0.00     0.094 A 
ATOM      2  C   UNL d   1     -40.436  15.375  20.553  0.00  0.00     0.000 A 
ATOM      3  C   UNL d   1     -40.660  14.333  19.620  0.00  0.00     0.020 A 
ATOM      4  C   UNL d   1     -40.545  15.683  19.178  0.00  0.00     0.020 A 
ATOM      5  C   UNL d   1     -40.436  15.921  19.935  0.00  0.00     0.002 A 
ATOM      6  C   UNL d   1     -40.551  14.571  20.377  0.00  0.00     0.002 A 
ENDROOT
BRANCH   1   7
ATOM      7  N   UNL d   1     -40.776  14.632  18.192  0.00  0.00    -0.158 NA
BRANCH   7   8
ATOM      8  S   UNL d   1     -40.123  14.456  17.725  0.00  0.00     0.291 S 
ATOM      9  O   UNL d   1     -40.215  13.651  17.982  0.00  0.00    -0.198 OA
ATOM     10  O   UNL d   1     -40.080  15.275  17.504  0.00  0.00    -0.198 OA
BRANCH   8  11
ATOM     11  C   UNL d   1     -39.472  14.270  17.262  0.00  0.00     0.135 A 
ATOM     12  S   UNL d   1     -38.894  13.693  17.306  0.00  0.00    -0.073 SA
ATOM     13  C   UNL d   1     -38.374  13.785  16.669  0.00  0.00     0.036 A 
ATOM     14  C   UNL d   1     -38.620  14.400  16.241  0.00  0.00     0.008 A 
ATOM     15  C   UNL d   1     -39.299  14.716  16.590  0.00  0.00     0.020 A 
ENDBRANCH   8  11
ENDBRANCH   7   8
ENDBRANCH   1   7
BRANCH   2  16
ATOM     16  C   UNL d   1     -40.318  15.632  21.369  0.00  0.00     0.000 C 
BRANCH  16  17
ATOM     17  C   UNL d   1     -39.569  15.579  21.714  0.00  0.00     0.000 C 
BRANCH  17  18
ATOM     18  C   UNL d   1     -39.431  15.919  22.452  0.00  0.00     0.000 C 
ATOM     19  C   UNL d   1     -38.736  15.761  22.857  0.00  0.00     0.000 C 
ENDBRANCH  17  18
ENDBRANCH  16  17
ENDBRANCH   2  16
TORSDOF 6
ENDMDL
MODEL 4
REMARK VINA RESULT:      -5.4      9.029      9.981
REMARK  6 active torsions:
REMARK  status: ('A' for Active; 'I' for Inactive)
REMARK    1  A    between atoms: C_2  and  S_1 
REMARK    2  A    between atoms: N_3  and  S_1 
REMARK    3  A    between atoms: C_10  and  N_3 
REMARK    4  A    between atoms: C_16  and  C_11 
REMARK    5  A    between atoms: C_17  and  C_16 
REMARK    6  A    between atoms: C_18  and  C_17 
ROOT
ATOM      1  C   UNL d   1     -40.331  14.345  18.046  0.00  0.00     0.094 A 
ATOM      2  C   UNL d   1     -39.104  14.251  16.971  0.00  0.00     0.000 A 
ATOM      3  C   UNL d   1     -40.224  14.946  17.489  0.00  0.00     0.020 A 
ATOM      4  C   UNL d   1     -39.821  13.703  18.058  0.00  0.00     0.020 A 
ATOM      5  C   UNL d   1     -39.219  13.657  17.531  0.00  0.00     0.002 A 
ATOM      6  C   UNL d   1     -39.623  14.899  16.962  0.00  0.00     0.002 A 
ENDROOT
BRANCH   1   7
ATOM      7  N   UNL d   1     -40.980  14.395  18.614  0.00  0.00    -0.158 NA
BRANCH   7   8
ATOM      8  S   UNL d   1     -40.840  14.705  19.363  0.00  0.00     0.291 S 
ATOM      9  O   UNL d   1     -40.926  15.473  19.009  0.00  0.00    -0.198 OA
ATOM     10  O   UNL d   1     -40.764  13.912  19.659  0.00  0.00    -0.198 OA
BRANCH   8  11
ATOM     11  C   UNL d   1     -40.701  15.024  20.105  0.00  0.00     0.135 A 
ATOM     12  S   UNL d   1     -40.265  14.780  20.752  0.00  0.00    -0.073 SA
ATOM     13  C   UNL d   1     -40.337  15.343  21.354  0.00  0.00     0.036 A 
ATOM     14  C   UNL d   1     -40.804  15.922  21.090  0.00  0.00     0.008 A 
ATOM     15  C   UNL d   1     -41.042  15.744  20.318  0.00  0.00     0.020 A 
ENDBRANCH   8  11
ENDBRANCH   7   8
ENDBRANCH   1   7
BRANCH   2  16
ATOM     16  C   UNL d   1     -38.455  14.201  16.403  0.00  0.00     0.000 C 
BRANCH  16  17
ATOM     17  C   UNL d   1     -38.598  13.927  15.637  0.00  0.00     0.000 C 
BRANCH  17  18
ATOM     18  C   UNL d   1     -38.038  14.051  15.044  0.00  0.00     0.000 C 
ATOM     19  C   UNL d   1     -37.940  13.498  14.447  0.00  0.00     0.000 C 
ENDBRANCH  17  18
ENDBRANCH  16  17
ENDBRANCH   2  16
TORSDOF 6
ENDMDL
MODEL 5
REMARK VINA RESULT:      -5.2      8.639      9.729
REMARK  6 active torsions:
REMARK  status: ('A' for Active; 'I' for Inactive)
REMARK    1  A    between atoms: C_2  and  S_1 
REMARK    2  A    between atoms: N_3  and  S_1 
REMARK    3  A    between atoms: C_10  and  N_3 
REMARK    4  A    between atoms: C_16  and  C_11 
REMARK    5  A    between atoms: C_17  and  C_16 
REMARK    6  A    between atoms: C_18  and  C_17 
ROOT
ATOM      1  C   UNL d   1     -40.571  15.091  19.652  0.00  0.00     0.094 A 
ATOM      2  C   UNL d   1     -40.161  14.944  18.077  0.00  0.00     0.000 A 
ATOM      3  C   UNL d   1     -40.329  15.756  19.225  0.00  0.00     0.020 A 
ATOM      4  C   UNL d   1     -40.605  14.359  19.284  0.00  0.00     0.020 A 
ATOM      5  C   UNL d   1     -40.404  14.287  18.512  0.00  0.00     0.002 A 
ATOM      6  C   UNL d   1     -40.128  15.684  18.453  0.00  0.00     0.002 A 
ENDROOT
BRANCH   1   7
ATOM      7  N   UNL d   1     -40.787  15.169  20.484  0.00  0.00    -0.158 NA
BRANCH   7   8
ATOM      8  S   UNL d   1     -40.208  15.086  21.063  0.00  0.00     0.291 S 
ATOM      9  O   UNL d   1     -40.399  14.257  21.068  0.00  0.00    -0.198 OA
ATOM     10  O   UNL d   1     -40.062  15.921  21.013  0.00  0.00    -0.198 OA
BRANCH   8  11
ATOM     11  C   UNL d   1     -39.633  14.993  21.640  0.00  0.00     0.135 A 
ATOM     12  S   UNL d   1     -39.083  15.496  21.975  0.00  0.00    -0.073 SA
ATOM     13  C   UNL d   1     -38.646  15.080  22.540  0.00  0.00     0.036 A 
ATOM     14  C   UNL d   1     -38.915  14.338  22.557  0.00  0.00     0.008 A 
ATOM     15  C   UNL d   1     -39.528  14.262  22.007  0.00  0.00     0.020 A 
ENDBRANCH   8  11
ENDBRANCH   7   8
ENDBRANCH   1   7
BRANCH   2  16
ATOM     16  C   UNL d   1     -39.945  14.866  17.244  0.00  0.00     0.000 C 
BRANCH  16  17
ATOM     17  C   UNL d   1     -39.207  14.557  17.037  0.00  0.00     0.000 C 
BRANCH  17  18
ATOM     18  C   UNL d   1     -38.989  14.511  16.243  0.00  0.00     0.000 C 
ATOM     19  C   UNL d   1     -38.257  14.207  16.033  0.00  0.00     0.000 C 
ENDBRANCH  17  18
ENDBRANCH  16  17
ENDBRANCH   2  16
TORSDOF 6
ENDMDL
