MODEL 1
REMARK VINA RESULT:       0.7      0.000      0.000
REMARK  3 active torsions:
REMARK  status: ('A' for Active; 'I' for Inactive)
REMARK    1  A    between atoms: C_2  and  C_1 
REMARK       I    between atoms: N_8  and  C_2 
REMARK    2  A    between atoms: C_12  and  C_4 
REMARK    3  A    between atoms: C_9  and  N_8 
ROOT
ATOM      1  C   UNL d   1      59.066  -1.336  29.131  0.00  0.00     0.106 A 
ATOM      2  C   UNL d   1      58.523  -2.041  29.118  0.00  0.00     0.093 A 
ATOM      3  C   UNL d   1      59.788  -1.386  29.119  0.00  0.00     0.093 A 
ATOM      4  C   UNL d   1      59.727  -2.798  29.081  0.00  0.00     0.369 A 
ATOM      5  N   UNL d   1      58.898  -2.760  29.093  0.00  0.00    -0.191 NA
ATOM      6  N   UNL d   1      60.171  -2.111  29.094  0.00  0.00    -0.191 NA
ATOM      7  O   UNL d   1      60.103  -3.535  29.055  0.00  0.00    -0.242 OA
ATOM      8  C   UNL d   1      57.709  -1.958  29.132  0.00  0.00     0.021 C 
ENDROOT
BRANCH   1   9
ATOM      9  C   UNL d   1      58.726  -0.589  29.156  0.00  0.00     0.331 C 
ATOM     10  N   UNL d   1      58.377  -0.314  29.842  0.00  0.00    -0.365 NA
ATOM     11  O   UNL d   1      58.739  -0.116  28.484  0.00  0.00    -0.251 OA
BRANCH  10  12
ATOM     12  C   UNL d   1      58.013  -0.047  30.586  0.00  0.00     0.135 A 
ATOM     13  C   UNL d   1      57.243   0.383  30.583  0.00  0.00     0.030 A 
ATOM     14  C   UNL d   1      56.844   0.541  29.812  0.00  0.00     0.003 C 
ATOM     15  C   UNL d   1      56.882   0.648  31.320  0.00  0.00     0.003 A 
ATOM     16  C   UNL d   1      57.279   0.491  32.092  0.00  0.00     0.000 A 
ATOM     17  C   UNL d   1      58.043   0.065  32.100  0.00  0.00     0.003 A 
ATOM     18  C   UNL d   1      58.411  -0.205  31.353  0.00  0.00     0.032 A 
ENDBRANCH  10  12
ENDBRANCH   1   9
BRANCH   3  19
ATOM     19  C   UNL d   1      60.231  -0.696  29.133  0.00  0.00     0.018 A 
ATOM     20  C   UNL d   1      60.299  -0.228  28.456  0.00  0.00     0.002 A 
ATOM     21  C   UNL d   1      60.742   0.458  28.481  0.00  0.00     0.000 A 
ATOM     22  C   UNL d   1      61.120   0.682  29.174  0.00  0.00     0.000 A 
ATOM     23  C   UNL d   1      61.053   0.220  29.842  0.00  0.00     0.000 A 
ATOM     24  C   UNL d   1      60.613  -0.466  29.830  0.00  0.00     0.002 A 
ENDBRANCH   3  19
TORSDOF 3
ENDMDL
MODEL 2
REMARK VINA RESULT:       1.4      1.195      2.388
REMARK  3 active torsions:
REMARK  status: ('A' for Active; 'I' for Inactive)
REMARK    1  A    between atoms: C_2  and  C_1 
REMARK       I    between atoms: N_8  and  C_2 
REMARK    2  A    between atoms: C_12  and  C_4 
REMARK    3  A    between atoms: C_9  and  N_8 
ROOT
ATOM      1  C   UNL d   1      59.069  -0.635  29.214  0.00  0.00     0.106 A 
ATOM      2  C   UNL d   1      59.046   0.249  29.122  0.00  0.00     0.093 A 
ATOM      3  C   UNL d   1      59.656  -1.038  29.076  0.00  0.00     0.093 A 
ATOM      4  C   UNL d   1      60.402   0.107  28.715  0.00  0.00     0.369 A 
ATOM      5  N   UNL d   1      59.741   0.584  28.868  0.00  0.00    -0.191 NA
ATOM      6  N   UNL d   1      60.359  -0.703  28.819  0.00  0.00    -0.191 NA
ATOM      7  O   UNL d   1      61.107   0.456  28.455  0.00  0.00    -0.242 OA
ATOM      8  C   UNL d   1      58.371   0.682  29.284  0.00  0.00     0.021 C 
ENDROOT
BRANCH   1   9
ATOM      9  C   UNL d   1      58.387  -1.014  29.469  0.00  0.00     0.331 C 
ATOM     10  N   UNL d   1      58.042  -0.813  30.182  0.00  0.00    -0.365 NA
ATOM     11  O   UNL d   1      58.050  -1.600  29.001  0.00  0.00    -0.251 OA
BRANCH  10  12
ATOM     12  C   UNL d   1      57.696  -0.578  30.946  0.00  0.00     0.135 A 
ATOM     13  C   UNL d   1      57.064  -1.063  31.323  0.00  0.00     0.030 A 
ATOM     14  C   UNL d   1      56.784  -1.794  30.916  0.00  0.00     0.003 C 
ATOM     15  C   UNL d   1      56.722  -0.831  32.080  0.00  0.00     0.003 A 
ATOM     16  C   UNL d   1      57.000  -0.101  32.490  0.00  0.00     0.000 A 
ATOM     17  C   UNL d   1      57.627   0.383  32.119  0.00  0.00     0.003 A 
ATOM     18  C   UNL d   1      57.976   0.149  31.351  0.00  0.00     0.032 A 
ENDBRANCH  10  12
ENDBRANCH   1   9
BRANCH   3  19
ATOM     19  C   UNL d   1      59.610  -1.850  29.181  0.00  0.00     0.018 A 
ATOM     20  C   UNL d   1      59.972  -2.210  29.829  0.00  0.00     0.002 A 
ATOM     21  C   UNL d   1      59.919  -3.020  29.924  0.00  0.00     0.000 A 
ATOM     22  C   UNL d   1      59.509  -3.475  29.378  0.00  0.00     0.000 A 
ATOM     23  C   UNL d   1      59.151  -3.119  28.738  0.00  0.00     0.000 A 
ATOM     24  C   UNL d   1      59.196  -2.313  28.632  0.00  0.00     0.002 A 
ENDBRANCH   3  19
TORSDOF 3
ENDMDL
