MODEL 1
REMARK VINA RESULT:      -2.5      0.000      0.000
REMARK  5 active torsions:
REMARK  status: ('A' for Active; 'I' for Inactive)
REMARK    1  A    between atoms: C_13  and  C_4 
REMARK    2  A    between atoms: C_7  and  S_11 
REMARK    3  A    between atoms: O_14  and  C_7 
REMARK    4  A    between atoms: S_11  and  C_13 
REMARK    5  A    between atoms: C_16  and  O_14 
ROOT
ATOM      1  C   UNL d   1      32.755  21.124 -21.718  0.00  0.00     0.148 A 
ATOM      2  N   UNL d   1      33.084  21.306 -22.461  0.00  0.00    -0.288 N 
ATOM      3  N   UNL d   1      32.716  20.288 -21.679  0.00  0.00    -0.226 NA
ATOM      4  C   UNL d   1      33.010  19.968 -22.370  0.00  0.00     0.107 A 
ATOM      5  C   UNL d   1      33.241  20.604 -22.863  0.00  0.00     0.101 A 
ATOM      6  C   UNL d   1      32.542  21.725 -21.195  0.00  0.00     0.035 A 
ATOM      7  C   UNL d   1      33.194  22.107 -22.667  0.00  0.00     0.082 A 
ATOM      8  C   UNL d   1      32.979  22.702 -22.138  0.00  0.00     0.019 A 
ATOM      9  C   UNL d   1      32.655  22.515 -21.407  0.00  0.00     0.004 A 
ATOM     10  C   UNL d   1      32.212  21.541 -20.451  0.00  0.00     0.003 C 
ENDROOT
BRANCH   4  11
ATOM     11  C   UNL d   1      33.072  19.168 -22.561  0.00  0.00     0.059 C 
BRANCH  11  12
ATOM     12  S   UNL d   1      32.677  18.868 -23.210  0.00  0.00    -0.049 SA
BRANCH  12  13
ATOM     13  C   UNL d   1      32.665  18.046 -23.344  0.00  0.00     0.185 C 
ATOM     14  S   UNL d   1      33.241  17.575 -23.010  0.00  0.00    -0.044 SA
BRANCH  13  15
ATOM     15  O   UNL d   1      32.073  17.719 -23.811  0.00  0.00    -0.288 OA
BRANCH  15  16
ATOM     16  C   UNL d   1      31.483  17.397 -24.285  0.00  0.00     0.124 C 
ATOM     17  C   UNL d   1      31.002  16.791 -23.993  0.00  0.00     0.029 C 
ENDBRANCH  15  16
ENDBRANCH  13  15
ENDBRANCH  12  13
ENDBRANCH  11  12
ENDBRANCH   4  11
TORSDOF 5
ENDMDL
MODEL 2
REMARK VINA RESULT:      -2.4      1.955      4.174
REMARK  5 active torsions:
REMARK  status: ('A' for Active; 'I' for Inactive)
REMARK    1  A    between atoms: C_13  and  C_4 
REMARK    2  A    between atoms: C_7  and  S_11 
REMARK    3  A    between atoms: O_14  and  C_7 
REMARK    4  A    between atoms: S_11  and  C_13 
REMARK    5  A    between atoms: C_16  and  O_14 
ROOT
ATOM      1  C   UNL d   1      32.821  18.667 -23.299  0.00  0.00     0.148 A 
ATOM      2  N   UNL d   1      33.059  19.293 -23.794  0.00  0.00    -0.288 N 
ATOM      3  N   UNL d   1      32.863  18.960 -22.515  0.00  0.00    -0.226 NA
ATOM      4  C   UNL d   1      33.117  19.736 -22.527  0.00  0.00     0.107 A 
ATOM      5  C   UNL d   1      33.241  19.947 -23.328  0.00  0.00     0.101 A 
ATOM      6  C   UNL d   1      32.604  17.939 -23.618  0.00  0.00     0.035 A 
ATOM      7  C   UNL d   1      33.075  19.170 -24.619  0.00  0.00     0.082 A 
ATOM      8  C   UNL d   1      32.858  18.438 -24.931  0.00  0.00     0.019 A 
ATOM      9  C   UNL d   1      32.624  17.825 -24.436  0.00  0.00     0.004 A 
ATOM     10  C   UNL d   1      32.366  17.312 -23.121  0.00  0.00     0.003 C 
ENDROOT
BRANCH   4  11
ATOM     11  C   UNL d   1      33.234  20.232 -21.878  0.00  0.00     0.059 C 
BRANCH  11  12
ATOM     12  S   UNL d   1      32.626  20.705 -21.608  0.00  0.00    -0.049 SA
BRANCH  12  13
ATOM     13  C   UNL d   1      32.777  21.279 -21.023  0.00  0.00     0.185 C 
ATOM     14  S   UNL d   1      33.230  21.083 -20.374  0.00  0.00    -0.044 SA
BRANCH  13  15
ATOM     15  O   UNL d   1      32.467  22.036 -21.106  0.00  0.00    -0.288 OA
BRANCH  15  16
ATOM     16  C   UNL d   1      32.165  22.796 -21.188  0.00  0.00     0.124 C 
ATOM     17  C   UNL d   1      32.144  23.307 -20.538  0.00  0.00     0.029 C 
ENDBRANCH  15  16
ENDBRANCH  13  15
ENDBRANCH  12  13
ENDBRANCH  11  12
ENDBRANCH   4  11
TORSDOF 5
ENDMDL
MODEL 3
REMARK VINA RESULT:      -2.1      1.083      1.670
REMARK  5 active torsions:
REMARK  status: ('A' for Active; 'I' for Inactive)
REMARK    1  A    between atoms: C_13  and  C_4 
REMARK    2  A    between atoms: C_7  and  S_11 
REMARK    3  A    between atoms: O_14  and  C_7 
REMARK    4  A    between atoms: S_11  and  C_13 
REMARK    5  A    between atoms: C_16  and  O_14 
ROOT
ATOM      1  C   UNL d   1      32.696  21.983 -21.237  0.00  0.00     0.148 A 
ATOM      2  N   UNL d   1      33.003  21.428 -20.697  0.00  0.00    -0.288 N 
ATOM      3  N   UNL d   1      32.754  21.628 -21.994  0.00  0.00    -0.226 NA
ATOM      4  C   UNL d   1      33.084  20.885 -21.923  0.00  0.00     0.107 A 
ATOM      5  C   UNL d   1      33.241  20.756 -21.111  0.00  0.00     0.101 A 
ATOM      6  C   UNL d   1      32.415  22.711 -20.974  0.00  0.00     0.035 A 
ATOM      7  C   UNL d   1      33.020  21.622 -19.886  0.00  0.00     0.082 A 
ATOM      8  C   UNL d   1      32.737  22.353 -19.631  0.00  0.00     0.019 A 
ATOM      9  C   UNL d   1      32.435  22.896 -20.169  0.00  0.00     0.004 A 
ATOM     10  C   UNL d   1      32.107  23.267 -21.516  0.00  0.00     0.003 C 
ENDROOT
BRANCH   4  11
ATOM     11  C   UNL d   1      33.239  20.349 -22.532  0.00  0.00     0.059 C 
BRANCH  11  12
ATOM     12  S   UNL d   1      32.841  19.637 -22.563  0.00  0.00    -0.049 SA
BRANCH  12  13
ATOM     13  C   UNL d   1      33.001  19.100 -23.179  0.00  0.00     0.185 C 
ATOM     14  S   UNL d   1      33.206  19.382 -23.916  0.00  0.00    -0.044 SA
BRANCH  13  15
ATOM     15  O   UNL d   1      32.950  18.291 -23.038  0.00  0.00    -0.288 OA
BRANCH  15  16
ATOM     16  C   UNL d   1      32.900  17.482 -22.906  0.00  0.00     0.124 C 
ATOM     17  C   UNL d   1      32.477  17.001 -23.431  0.00  0.00     0.029 C 
ENDBRANCH  15  16
ENDBRANCH  13  15
ENDBRANCH  12  13
ENDBRANCH  11  12
ENDBRANCH   4  11
TORSDOF 5
ENDMDL
MODEL 4
REMARK VINA RESULT:      -2.1      2.329      3.381
REMARK  5 active torsions:
REMARK  status: ('A' for Active; 'I' for Inactive)
REMARK    1  A    between atoms: C_13  and  C_4 
REMARK    2  A    between atoms: C_7  and  S_11 
REMARK    3  A    between atoms: O_14  and  C_7 
REMARK    4  A    between atoms: S_11  and  C_13 
REMARK    5  A    between atoms: C_16  and  O_14 
ROOT
ATOM      1  C   UNL d   1      32.569  18.704 -24.004  0.00  0.00     0.148 A 
ATOM      2  N   UNL d   1      32.567  18.394 -23.232  0.00  0.00    -0.288 N 
ATOM      3  N   UNL d   1      32.192  18.131 -24.487  0.00  0.00    -0.226 NA
ATOM      4  C   UNL d   1      31.966  17.494 -24.028  0.00  0.00     0.107 A 
ATOM      5  C   UNL d   1      32.200  17.656 -23.241  0.00  0.00     0.101 A 
ATOM      6  C   UNL d   1      32.903  19.441 -24.160  0.00  0.00     0.035 A 
ATOM      7  C   UNL d   1      32.909  18.843 -22.617  0.00  0.00     0.082 A 
ATOM      8  C   UNL d   1      33.241  19.579 -22.781  0.00  0.00     0.019 A 
ATOM      9  C   UNL d   1      33.239  19.879 -23.546  0.00  0.00     0.004 A 
ATOM     10  C   UNL d   1      32.904  19.751 -24.935  0.00  0.00     0.003 C 
ENDROOT
BRANCH   4  11
ATOM     11  C   UNL d   1      31.579  16.811 -24.282  0.00  0.00     0.059 C 
BRANCH  11  12
ATOM     12  S   UNL d   1      30.840  16.625 -23.988  0.00  0.00    -0.049 SA
BRANCH  12  13
ATOM     13  C   UNL d   1      30.378  16.045 -24.368  0.00  0.00     0.185 C 
ATOM     14  S   UNL d   1      30.744  15.453 -24.792  0.00  0.00    -0.044 SA
BRANCH  13  15
ATOM     15  O   UNL d   1      29.559  16.076 -24.310  0.00  0.00    -0.288 OA
BRANCH  15  16
ATOM     16  C   UNL d   1      28.739  16.110 -24.262  0.00  0.00     0.124 C 
ATOM     17  C   UNL d   1      28.357  15.919 -23.552  0.00  0.00     0.029 C 
ENDBRANCH  15  16
ENDBRANCH  13  15
ENDBRANCH  12  13
ENDBRANCH  11  12
ENDBRANCH   4  11
TORSDOF 5
ENDMDL
MODEL 5
REMARK VINA RESULT:      -1.8      1.934      4.690
REMARK  5 active torsions:
REMARK  status: ('A' for Active; 'I' for Inactive)
REMARK    1  A    between atoms: C_13  and  C_4 
REMARK    2  A    between atoms: C_7  and  S_11 
REMARK    3  A    between atoms: O_14  and  C_7 
REMARK    4  A    between atoms: S_11  and  C_13 
REMARK    5  A    between atoms: C_16  and  O_14 
ROOT
ATOM      1  C   UNL d   1      32.786  16.817 -23.587  0.00  0.00     0.148 A 
ATOM      2  N   UNL d   1      32.395  17.168 -24.233  0.00  0.00    -0.288 N 
ATOM      3  N   UNL d   1      33.147  17.445 -23.165  0.00  0.00    -0.226 NA
ATOM      4  C   UNL d   1      32.984  18.154 -23.536  0.00  0.00     0.107 A 
ATOM      5  C   UNL d   1      32.513  17.983 -24.206  0.00  0.00     0.101 A 
ATOM      6  C   UNL d   1      32.762  16.002 -23.474  0.00  0.00     0.035 A 
ATOM      7  C   UNL d   1      31.977  16.678 -24.764  0.00  0.00     0.082 A 
ATOM      8  C   UNL d   1      31.957  15.863 -24.645  0.00  0.00     0.019 A 
ATOM      9  C   UNL d   1      32.346  15.524 -24.005  0.00  0.00     0.004 A 
ATOM     10  C   UNL d   1      33.155  15.651 -22.827  0.00  0.00     0.003 C 
ENDROOT
BRANCH   4  11
ATOM     11  C   UNL d   1      33.233  18.906 -23.305  0.00  0.00     0.059 C 
BRANCH  11  12
ATOM     12  S   UNL d   1      32.865  19.285 -22.681  0.00  0.00    -0.049 SA
BRANCH  12  13
ATOM     13  C   UNL d   1      33.021  20.091 -22.538  0.00  0.00     0.185 C 
ATOM     14  S   UNL d   1      33.241  20.575 -23.156  0.00  0.00    -0.044 SA
BRANCH  13  15
ATOM     15  O   UNL d   1      32.952  20.389 -21.775  0.00  0.00    -0.288 OA
BRANCH  15  16
ATOM     16  C   UNL d   1      32.876  20.691 -21.014  0.00  0.00     0.124 C 
ATOM     17  C   UNL d   1      32.331  21.295 -20.861  0.00  0.00     0.029 C 
ENDBRANCH  15  16
ENDBRANCH  13  15
ENDBRANCH  12  13
ENDBRANCH  11  12
ENDBRANCH   4  11
TORSDOF 5
ENDMDL
MODEL 6
REMARK VINA RESULT:      -0.5      3.491      4.798
REMARK  5 active torsions:
REMARK  status: ('A' for Active; 'I' for Inactive)
REMARK    1  A    between atoms: C_13  and  C_4 
REMARK    2  A    between atoms: C_7  and  S_11 
REMARK    3  A    between atoms: O_14  and  C_7 
REMARK    4  A    between atoms: S_11  and  C_13 
REMARK    5  A    between atoms: C_16  and  O_14 
ROOT
ATOM      1  C   UNL d   1      31.998  17.190 -23.828  0.00  0.00     0.148 A 
ATOM      2  N   UNL d   1      31.894  16.515 -24.303  0.00  0.00    -0.288 N 
ATOM      3  N   UNL d   1      31.328  17.675 -23.962  0.00  0.00    -0.226 NA
ATOM      4  C   UNL d   1      30.830  17.312 -24.499  0.00  0.00     0.107 A 
ATOM      5  C   UNL d   1      31.183  16.584 -24.714  0.00  0.00     0.101 A 
ATOM      6  C   UNL d   1      32.667  17.270 -23.354  0.00  0.00     0.035 A 
ATOM      7  C   UNL d   1      32.478  15.919 -24.291  0.00  0.00     0.082 A 
ATOM      8  C   UNL d   1      33.144  16.006 -23.813  0.00  0.00     0.019 A 
ATOM      9  C   UNL d   1      33.241  16.676 -23.347  0.00  0.00     0.004 A 
ATOM     10  C   UNL d   1      32.770  17.948 -22.878  0.00  0.00     0.003 C 
ENDROOT
BRANCH   4  11
ATOM     11  C   UNL d   1      30.111  17.599 -24.784  0.00  0.00     0.059 C 
BRANCH  11  12
ATOM     12  S   UNL d   1      29.466  17.102 -24.842  0.00  0.00    -0.049 SA
BRANCH  12  13
ATOM     13  C   UNL d   1      28.732  17.338 -24.525  0.00  0.00     0.185 C 
ATOM     14  S   UNL d   1      28.408  18.052 -24.746  0.00  0.00    -0.044 SA
BRANCH  13  15
ATOM     15  O   UNL d   1      28.344  16.848 -23.991  0.00  0.00    -0.288 OA
BRANCH  15  16
ATOM     16  C   UNL d   1      27.947  16.361 -23.461  0.00  0.00     0.124 C 
ATOM     17  C   UNL d   1      27.605  15.654 -23.723  0.00  0.00     0.029 C 
ENDBRANCH  15  16
ENDBRANCH  13  15
ENDBRANCH  12  13
ENDBRANCH  11  12
ENDBRANCH   4  11
TORSDOF 5
ENDMDL
MODEL 7
REMARK VINA RESULT:       0.2      3.494      5.219
REMARK  5 active torsions:
REMARK  status: ('A' for Active; 'I' for Inactive)
REMARK    1  A    between atoms: C_13  and  C_4 
REMARK    2  A    between atoms: C_7  and  S_11 
REMARK    3  A    between atoms: O_14  and  C_7 
REMARK    4  A    between atoms: S_11  and  C_13 
REMARK    5  A    between atoms: C_16  and  O_14 
ROOT
ATOM      1  C   UNL d   1      32.891  21.025 -20.882  0.00  0.00     0.148 A 
ATOM      2  N   UNL d   1      32.987  21.690 -21.372  0.00  0.00    -0.288 N 
ATOM      3  N   UNL d   1      32.731  21.322 -20.114  0.00  0.00    -0.226 NA
ATOM      4  C   UNL d   1      32.729  22.139 -20.133  0.00  0.00     0.107 A 
ATOM      5  C   UNL d   1      32.889  22.372 -20.921  0.00  0.00     0.101 A 
ATOM      6  C   UNL d   1      32.959  20.263 -21.188  0.00  0.00     0.035 A 
ATOM      7  C   UNL d   1      33.154  21.572 -22.182  0.00  0.00     0.082 A 
ATOM      8  C   UNL d   1      33.221  20.807 -22.481  0.00  0.00     0.019 A 
ATOM      9  C   UNL d   1      33.124  20.155 -21.990  0.00  0.00     0.004 A 
ATOM     10  C   UNL d   1      32.862  19.597 -20.695  0.00  0.00     0.003 C 
ENDROOT
BRANCH   4  11
ATOM     11  C   UNL d   1      32.596  22.651 -19.500  0.00  0.00     0.059 C 
BRANCH  11  12
ATOM     12  S   UNL d   1      32.773  22.416 -18.738  0.00  0.00    -0.049 SA
BRANCH  12  13
ATOM     13  C   UNL d   1      32.893  22.989 -18.146  0.00  0.00     0.185 C 
ATOM     14  S   UNL d   1      33.241  23.701 -18.339  0.00  0.00    -0.044 SA
BRANCH  13  15
ATOM     15  O   UNL d   1      32.660  22.832 -17.373  0.00  0.00    -0.288 OA
BRANCH  15  16
ATOM     16  C   UNL d   1      32.420  22.671 -16.604  0.00  0.00     0.124 C 
ATOM     17  C   UNL d   1      32.969  22.692 -15.984  0.00  0.00     0.029 C 
ENDBRANCH  15  16
ENDBRANCH  13  15
ENDBRANCH  12  13
ENDBRANCH  11  12
ENDBRANCH   4  11
TORSDOF 5
ENDMDL
