MODEL 1
REMARK VINA RESULT:      -3.4      0.000      0.000
REMARK  1 active torsions:
REMARK  status: ('A' for Active; 'I' for Inactive)
REMARK    1  A    between atoms: N_8  and  C_7 
REMARK       I    between atoms: C_11  and  N_8 
ROOT
ATOM      1  N   UNL d   1      29.407  16.125 -23.608  0.00  0.00    -0.273 N 
ATOM      2  C   UNL d   1      30.091  16.489 -23.889  0.00  0.00     0.067 A 
ATOM      3  C   UNL d   1      30.832  16.180 -23.696  0.00  0.00     0.019 A 
ATOM      4  C   UNL d   1      30.040  17.157 -24.358  0.00  0.00     0.018 A 
ATOM      5  C   UNL d   1      28.671  16.428 -23.797  0.00  0.00     0.265 A 
ATOM      6  C   UNL d   1      29.638  15.476 -23.159  0.00  0.00     0.083 A 
ATOM      7  C   UNL d   1      31.461  17.219 -24.451  0.00  0.00     0.085 A 
ATOM      8  C   UNL d   1      31.516  16.544 -23.977  0.00  0.00     0.021 A 
ATOM      9  C   UNL d   1      30.725  17.521 -24.639  0.00  0.00     0.021 A 
ATOM     10  C   UNL d   1      30.720  15.511 -23.221  0.00  0.00     0.021 A 
ATOM     11  C   UNL d   1      29.295  17.472 -24.555  0.00  0.00     0.006 A 
ATOM     12  C   UNL d   1      28.610  17.108 -24.274  0.00  0.00     0.061 A 
ATOM     13  O   UNL d   1      27.986  16.063 -23.516  0.00  0.00    -0.267 OA
ENDROOT
BRANCH   7  14
ATOM     14  N   UNL d   1      32.145  17.583 -24.731  0.00  0.00    -0.208 NA
ATOM     15  C   UNL d   1      32.516  18.151 -24.287  0.00  0.00     0.279 C 
ATOM     16  O   UNL d   1      32.211  18.374 -23.542  0.00  0.00    -0.265 OA
ATOM     17  C   UNL d   1      33.201  18.518 -24.564  0.00  0.00     0.068 C 
ENDBRANCH   7  14
TORSDOF 1
ENDMDL
MODEL 2
REMARK VINA RESULT:      -3.2      0.377      1.449
REMARK  1 active torsions:
REMARK  status: ('A' for Active; 'I' for Inactive)
REMARK    1  A    between atoms: N_8  and  C_7 
REMARK       I    between atoms: C_11  and  N_8 
ROOT
ATOM      1  N   UNL d   1      29.149  16.433 -23.956  0.00  0.00    -0.273 N 
ATOM      2  C   UNL d   1      29.887  16.735 -24.166  0.00  0.00     0.067 A 
ATOM      3  C   UNL d   1      29.937  17.376 -24.683  0.00  0.00     0.019 A 
ATOM      4  C   UNL d   1      30.570  16.402 -23.864  0.00  0.00     0.018 A 
ATOM      5  C   UNL d   1      29.093  15.798 -23.444  0.00  0.00     0.265 A 
ATOM      6  C   UNL d   1      28.578  16.880 -24.344  0.00  0.00     0.083 A 
ATOM      7  C   UNL d   1      31.363  17.340 -24.586  0.00  0.00     0.085 A 
ATOM      8  C   UNL d   1      30.676  17.679 -24.893  0.00  0.00     0.021 A 
ATOM      9  C   UNL d   1      31.308  16.704 -24.074  0.00  0.00     0.021 A 
ATOM     10  C   UNL d   1      29.170  17.599 -24.899  0.00  0.00     0.021 A 
ATOM     11  C   UNL d   1      30.523  15.755 -23.342  0.00  0.00     0.006 A 
ATOM     12  C   UNL d   1      29.785  15.453 -23.132  0.00  0.00     0.061 A 
ATOM     13  O   UNL d   1      28.355  15.495 -23.233  0.00  0.00    -0.267 OA
ENDROOT
BRANCH   7  14
ATOM     14  N   UNL d   1      32.101  17.642 -24.796  0.00  0.00    -0.208 NA
ATOM     15  C   UNL d   1      32.469  18.185 -24.321  0.00  0.00     0.279 C 
ATOM     16  O   UNL d   1      32.108  18.446 -23.614  0.00  0.00    -0.265 OA
ATOM     17  C   UNL d   1      33.208  18.490 -24.527  0.00  0.00     0.068 C 
ENDBRANCH   7  14
TORSDOF 1
ENDMDL
MODEL 3
REMARK VINA RESULT:      -2.8      3.657      5.126
REMARK  1 active torsions:
REMARK  status: ('A' for Active; 'I' for Inactive)
REMARK    1  A    between atoms: N_8  and  C_7 
REMARK       I    between atoms: C_11  and  N_8 
ROOT
ATOM      1  N   UNL d   1      33.223  19.367 -23.618  0.00  0.00    -0.273 N 
ATOM      2  C   UNL d   1      33.224  19.893 -22.982  0.00  0.00     0.067 A 
ATOM      3  C   UNL d   1      33.232  20.706 -23.120  0.00  0.00     0.019 A 
ATOM      4  C   UNL d   1      33.218  19.611 -22.215  0.00  0.00     0.018 A 
ATOM      5  C   UNL d   1      33.216  18.560 -23.487  0.00  0.00     0.265 A 
ATOM      6  C   UNL d   1      33.231  19.813 -24.309  0.00  0.00     0.083 A 
ATOM      7  C   UNL d   1      33.226  20.944 -21.711  0.00  0.00     0.085 A 
ATOM      8  C   UNL d   1      33.233  21.232 -22.484  0.00  0.00     0.021 A 
ATOM      9  C   UNL d   1      33.218  20.137 -21.579  0.00  0.00     0.021 A 
ATOM     10  C   UNL d   1      33.238  20.833 -23.939  0.00  0.00     0.021 A 
ATOM     11  C   UNL d   1      33.210  18.791 -22.072  0.00  0.00     0.006 A 
ATOM     12  C   UNL d   1      33.209  18.265 -22.707  0.00  0.00     0.061 A 
ATOM     13  O   UNL d   1      33.215  18.034 -24.123  0.00  0.00    -0.267 OA
ENDROOT
BRANCH   7  14
ATOM     14  N   UNL d   1      33.227  21.469 -21.075  0.00  0.00    -0.208 NA
ATOM     15  C   UNL d   1      32.526  21.725 -20.757  0.00  0.00     0.279 C 
ATOM     16  O   UNL d   1      31.797  21.461 -21.067  0.00  0.00    -0.265 OA
ATOM     17  C   UNL d   1      32.522  22.250 -20.121  0.00  0.00     0.068 C 
ENDBRANCH   7  14
TORSDOF 1
ENDMDL
MODEL 4
REMARK VINA RESULT:      -2.6      4.105      5.886
REMARK  1 active torsions:
REMARK  status: ('A' for Active; 'I' for Inactive)
REMARK    1  A    between atoms: N_8  and  C_7 
REMARK       I    between atoms: C_11  and  N_8 
ROOT
ATOM      1  N   UNL d   1      32.700  22.458 -21.661  0.00  0.00    -0.273 N 
ATOM      2  C   UNL d   1      32.827  21.657 -21.815  0.00  0.00     0.067 A 
ATOM      3  C   UNL d   1      33.114  21.420 -22.551  0.00  0.00     0.019 A 
ATOM      4  C   UNL d   1      32.669  21.097 -21.241  0.00  0.00     0.018 A 
ATOM      5  C   UNL d   1      32.415  22.698 -20.932  0.00  0.00     0.265 A 
ATOM      6  C   UNL d   1      32.907  22.877 -22.337  0.00  0.00     0.083 A 
ATOM      7  C   UNL d   1      33.080  20.056 -22.123  0.00  0.00     0.085 A 
ATOM      8  C   UNL d   1      33.241  20.620 -22.706  0.00  0.00     0.021 A 
ATOM      9  C   UNL d   1      32.796  20.297 -21.395  0.00  0.00     0.021 A 
ATOM     10  C   UNL d   1      33.223  22.094 -23.019  0.00  0.00     0.021 A 
ATOM     11  C   UNL d   1      32.379  21.332 -20.496  0.00  0.00     0.006 A 
ATOM     12  C   UNL d   1      32.252  22.133 -20.342  0.00  0.00     0.061 A 
ATOM     13  O   UNL d   1      32.289  23.499 -20.778  0.00  0.00    -0.267 OA
ENDROOT
BRANCH   7  14
ATOM     14  N   UNL d   1      33.207  19.257 -22.277  0.00  0.00    -0.208 NA
ATOM     15  C   UNL d   1      32.762  18.874 -22.837  0.00  0.00     0.279 C 
ATOM     16  O   UNL d   1      32.171  19.283 -23.263  0.00  0.00    -0.265 OA
ATOM     17  C   UNL d   1      32.885  18.073 -22.995  0.00  0.00     0.068 C 
ENDBRANCH   7  14
TORSDOF 1
ENDMDL
MODEL 5
REMARK VINA RESULT:      -2.5      1.353      1.632
REMARK  1 active torsions:
REMARK  status: ('A' for Active; 'I' for Inactive)
REMARK    1  A    between atoms: N_8  and  C_7 
REMARK       I    between atoms: C_11  and  N_8 
ROOT
ATOM      1  N   UNL d   1      28.901  16.946 -23.943  0.00  0.00    -0.273 N 
ATOM      2  C   UNL d   1      29.644  16.593 -24.003  0.00  0.00     0.067 A 
ATOM      3  C   UNL d   1      29.805  15.898 -23.589  0.00  0.00     0.019 A 
ATOM      4  C   UNL d   1      30.224  16.929 -24.472  0.00  0.00     0.018 A 
ATOM      5  C   UNL d   1      28.738  17.636 -24.352  0.00  0.00     0.265 A 
ATOM      6  C   UNL d   1      28.447  16.484 -23.438  0.00  0.00     0.083 A 
ATOM      7  C   UNL d   1      31.131  15.886 -24.123  0.00  0.00     0.085 A 
ATOM      8  C   UNL d   1      30.548  15.544 -23.649  0.00  0.00     0.021 A 
ATOM      9  C   UNL d   1      30.967  16.575 -24.532  0.00  0.00     0.021 A 
ATOM     10  C   UNL d   1      29.127  15.684 -23.164  0.00  0.00     0.021 A 
ATOM     11  C   UNL d   1      30.066  17.630 -24.893  0.00  0.00     0.006 A 
ATOM     12  C   UNL d   1      29.323  17.984 -24.833  0.00  0.00     0.061 A 
ATOM     13  O   UNL d   1      27.995  17.989 -24.292  0.00  0.00    -0.267 OA
ENDROOT
BRANCH   7  14
ATOM     14  N   UNL d   1      31.873  15.533 -24.183  0.00  0.00    -0.208 NA
ATOM     15  C   UNL d   1      32.490  15.803 -23.732  0.00  0.00     0.279 C 
ATOM     16  O   UNL d   1      32.383  16.440 -23.202  0.00  0.00    -0.265 OA
ATOM     17  C   UNL d   1      33.235  15.453 -23.788  0.00  0.00     0.068 C 
ENDBRANCH   7  14
TORSDOF 1
ENDMDL
MODEL 6
REMARK VINA RESULT:      -2.5      2.639      4.607
REMARK  1 active torsions:
REMARK  status: ('A' for Active; 'I' for Inactive)
REMARK    1  A    between atoms: N_8  and  C_7 
REMARK       I    between atoms: C_11  and  N_8 
ROOT
ATOM      1  N   UNL d   1      33.227  20.413 -22.938  0.00  0.00    -0.273 N 
ATOM      2  C   UNL d   1      33.229  19.596 -23.053  0.00  0.00     0.067 A 
ATOM      3  C   UNL d   1      33.226  19.288 -23.819  0.00  0.00     0.019 A 
ATOM      4  C   UNL d   1      33.235  19.090 -22.412  0.00  0.00     0.018 A 
ATOM      5  C   UNL d   1      33.230  20.723 -22.181  0.00  0.00     0.265 A 
ATOM      6  C   UNL d   1      33.221  20.768 -23.680  0.00  0.00     0.083 A 
ATOM      7  C   UNL d   1      33.235  17.962 -23.283  0.00  0.00     0.085 A 
ATOM      8  C   UNL d   1      33.229  18.471 -23.934  0.00  0.00     0.021 A 
ATOM      9  C   UNL d   1      33.238  18.273 -22.527  0.00  0.00     0.021 A 
ATOM     10  C   UNL d   1      33.220  19.919 -24.355  0.00  0.00     0.021 A 
ATOM     11  C   UNL d   1      33.239  19.397 -21.637  0.00  0.00     0.006 A 
ATOM     12  C   UNL d   1      33.236  20.213 -21.522  0.00  0.00     0.061 A 
ATOM     13  O   UNL d   1      33.227  21.540 -22.066  0.00  0.00    -0.267 OA
ENDROOT
BRANCH   7  14
ATOM     14  N   UNL d   1      33.237  17.146 -23.398  0.00  0.00    -0.208 NA
ATOM     15  C   UNL d   1      32.544  16.753 -23.549  0.00  0.00     0.279 C 
ATOM     16  O   UNL d   1      31.820  17.169 -23.589  0.00  0.00    -0.265 OA
ATOM     17  C   UNL d   1      32.542  15.936 -23.665  0.00  0.00     0.068 C 
ENDBRANCH   7  14
TORSDOF 1
ENDMDL
MODEL 7
REMARK VINA RESULT:      -2.5      6.732      7.902
REMARK  1 active torsions:
REMARK  status: ('A' for Active; 'I' for Inactive)
REMARK    1  A    between atoms: N_8  and  C_7 
REMARK       I    between atoms: C_11  and  N_8 
ROOT
ATOM      1  N   UNL d   1      32.643  22.095 -20.973  0.00  0.00    -0.273 N 
ATOM      2  C   UNL d   1      32.792  22.441 -20.240  0.00  0.00     0.067 A 
ATOM      3  C   UNL d   1      33.092  21.984 -19.622  0.00  0.00     0.019 A 
ATOM      4  C   UNL d   1      32.645  23.237 -20.122  0.00  0.00     0.018 A 
ATOM      5  C   UNL d   1      32.346  22.544 -21.589  0.00  0.00     0.265 A 
ATOM      6  C   UNL d   1      32.844  21.300 -20.918  0.00  0.00     0.083 A 
ATOM      7  C   UNL d   1      33.091  23.134 -18.772  0.00  0.00     0.085 A 
ATOM      8  C   UNL d   1      33.241  22.330 -18.888  0.00  0.00     0.021 A 
ATOM      9  C   UNL d   1      32.794  23.583 -19.388  0.00  0.00     0.021 A 
ATOM     10  C   UNL d   1      33.186  21.207 -19.893  0.00  0.00     0.021 A 
ATOM     11  C   UNL d   1      32.342  23.702 -20.743  0.00  0.00     0.006 A 
ATOM     12  C   UNL d   1      32.193  23.356 -21.477  0.00  0.00     0.061 A 
ATOM     13  O   UNL d   1      32.196  22.198 -22.323  0.00  0.00    -0.267 OA
ENDROOT
BRANCH   7  14
ATOM     14  N   UNL d   1      33.240  23.480 -18.039  0.00  0.00    -0.208 NA
ATOM     15  C   UNL d   1      32.735  23.352 -17.418  0.00  0.00     0.279 C 
ATOM     16  O   UNL d   1      32.059  22.870 -17.511  0.00  0.00    -0.265 OA
ATOM     17  C   UNL d   1      32.881  23.696 -16.682  0.00  0.00     0.068 C 
ENDBRANCH   7  14
TORSDOF 1
ENDMDL
MODEL 8
REMARK VINA RESULT:      -2.5      1.581      2.224
REMARK  1 active torsions:
REMARK  status: ('A' for Active; 'I' for Inactive)
REMARK    1  A    between atoms: N_8  and  C_7 
REMARK       I    between atoms: C_11  and  N_8 
ROOT
ATOM      1  N   UNL d   1      31.738  16.303 -24.133  0.00  0.00    -0.273 N 
ATOM      2  C   UNL d   1      32.054  17.049 -23.977  0.00  0.00     0.067 A 
ATOM      3  C   UNL d   1      32.778  17.116 -23.587  0.00  0.00     0.019 A 
ATOM      4  C   UNL d   1      31.653  17.723 -24.208  0.00  0.00     0.018 A 
ATOM      5  C   UNL d   1      31.021  16.231 -24.520  0.00  0.00     0.265 A 
ATOM      6  C   UNL d   1      32.264  15.744 -23.838  0.00  0.00     0.083 A 
ATOM      7  C   UNL d   1      32.686  18.541 -23.665  0.00  0.00     0.085 A 
ATOM      8  C   UNL d   1      33.094  17.862 -23.431  0.00  0.00     0.021 A 
ATOM      9  C   UNL d   1      31.969  18.469 -24.051  0.00  0.00     0.021 A 
ATOM     10  C   UNL d   1      33.058  16.355 -23.421  0.00  0.00     0.021 A 
ATOM     11  C   UNL d   1      30.922  17.660 -24.602  0.00  0.00     0.006 A 
ATOM     12  C   UNL d   1      30.606  16.914 -24.758  0.00  0.00     0.061 A 
ATOM     13  O   UNL d   1      30.705  15.485 -24.676  0.00  0.00    -0.267 OA
ENDROOT
BRANCH   7  14
ATOM     14  N   UNL d   1      33.002  19.286 -23.509  0.00  0.00    -0.208 NA
ATOM     15  C   UNL d   1      32.927  19.615 -22.771  0.00  0.00     0.279 C 
ATOM     16  O   UNL d   1      32.529  19.204 -22.162  0.00  0.00    -0.265 OA
ATOM     17  C   UNL d   1      33.241  20.360 -22.610  0.00  0.00     0.068 C 
ENDBRANCH   7  14
TORSDOF 1
ENDMDL
MODEL 9
REMARK VINA RESULT:      -1.4      6.054      6.908
REMARK  1 active torsions:
REMARK  status: ('A' for Active; 'I' for Inactive)
REMARK    1  A    between atoms: N_8  and  C_7 
REMARK       I    between atoms: C_11  and  N_8 
ROOT
ATOM      1  N   UNL d   1      32.815  22.066 -20.415  0.00  0.00    -0.273 N 
ATOM      2  C   UNL d   1      32.908  22.350 -21.184  0.00  0.00     0.067 A 
ATOM      3  C   UNL d   1      33.118  21.833 -21.791  0.00  0.00     0.019 A 
ATOM      4  C   UNL d   1      32.792  23.143 -21.347  0.00  0.00     0.018 A 
ATOM      5  C   UNL d   1      32.606  22.575 -19.809  0.00  0.00     0.265 A 
ATOM      6  C   UNL d   1      32.967  21.258 -20.429  0.00  0.00     0.083 A 
ATOM      7  C   UNL d   1      33.093  22.918 -22.722  0.00  0.00     0.085 A 
ATOM      8  C   UNL d   1      33.211  22.117 -22.560  0.00  0.00     0.021 A 
ATOM      9  C   UNL d   1      32.885  23.427 -22.116  0.00  0.00     0.021 A 
ATOM     10  C   UNL d   1      33.199  21.073 -21.472  0.00  0.00     0.021 A 
ATOM     11  C   UNL d   1      32.579  23.668 -20.737  0.00  0.00     0.006 A 
ATOM     12  C   UNL d   1      32.486  23.384 -19.968  0.00  0.00     0.061 A 
ATOM     13  O   UNL d   1      32.513  22.291 -19.040  0.00  0.00    -0.267 OA
ENDROOT
BRANCH   7  14
ATOM     14  N   UNL d   1      33.186  23.202 -23.490  0.00  0.00    -0.208 NA
ATOM     15  C   UNL d   1      32.537  23.413 -23.928  0.00  0.00     0.279 C 
ATOM     16  O   UNL d   1      31.768  23.345 -23.608  0.00  0.00    -0.265 OA
ATOM     17  C   UNL d   1      32.625  23.697 -24.698  0.00  0.00     0.068 C 
ENDBRANCH   7  14
TORSDOF 1
ENDMDL
