MODEL 1
REMARK VINA RESULT:      -7.4      0.000      0.000
REMARK  3 active torsions:
REMARK  status: ('A' for Active; 'I' for Inactive)
REMARK    1  A    between atoms: N_5  and  C_1 
REMARK       I    between atoms: C_2  and  N_3 
REMARK    2  A    between atoms: C_4  and  C_2 
REMARK    3  A    between atoms: N_3  and  N_5 
ROOT
ATOM      1  C   UNL d   1      53.733  32.414  53.712  0.00  0.00     0.060 A 
ATOM      2  C   UNL d   1      53.762  32.605  54.510  0.00  0.00     0.012 A 
ATOM      3  C   UNL d   1      54.383  33.056  54.814  0.00  0.00     0.035 A 
ATOM      4 BR   UNL d   1      54.401  33.242  55.621  0.00  0.00    -0.049 Br
ATOM      5  C   UNL d   1      54.337  32.678  53.201  0.00  0.00     0.005 A 
ATOM      6  C   UNL d   1      54.953  33.126  53.503  0.00  0.00     0.001 A 
ATOM      7  C   UNL d   1      54.973  33.313  54.315  0.00  0.00     0.007 A 
ENDROOT
BRANCH   1   8
ATOM      8  C   UNL d   1      53.102  31.960  53.422  0.00  0.00     0.297 C 
ATOM      9  N   UNL d   1      52.427  32.329  53.173  0.00  0.00    -0.103 NA
ATOM     10  O   UNL d   1      53.172  31.129  53.392  0.00  0.00    -0.264 OA
BRANCH   9  11
ATOM     11  N   UNL d   1      52.373  33.137  53.208  0.00  0.00    -0.112 NA
BRANCH  11  12
ATOM     12  C   UNL d   1      51.665  33.510  53.011  0.00  0.00     0.260 C 
ATOM     13  S   UNL d   1      51.660  34.113  52.438  0.00  0.00    -0.034 SA
ATOM     14  N   UNL d   1      50.964  33.287  53.380  0.00  0.00    -0.113 N 
ENDBRANCH  11  12
ENDBRANCH   9  11
ENDBRANCH   1   8
TORSDOF 3
ENDMDL
MODEL 2
REMARK VINA RESULT:      -7.3      1.991      2.329
REMARK  3 active torsions:
REMARK  status: ('A' for Active; 'I' for Inactive)
REMARK    1  A    between atoms: N_5  and  C_1 
REMARK       I    between atoms: C_2  and  N_3 
REMARK    2  A    between atoms: C_4  and  C_2 
REMARK    3  A    between atoms: N_3  and  N_5 
ROOT
ATOM      1  C   UNL d   1      54.213  33.106  53.998  0.00  0.00     0.060 A 
ATOM      2  C   UNL d   1      53.720  33.708  53.735  0.00  0.00     0.012 A 
ATOM      3  C   UNL d   1      53.351  34.215  54.272  0.00  0.00     0.035 A 
ATOM      4 BR   UNL d   1      52.857  34.820  53.994  0.00  0.00    -0.049 Br
ATOM      5  C   UNL d   1      54.342  33.004  54.816  0.00  0.00     0.005 A 
ATOM      6  C   UNL d   1      53.975  33.507  55.348  0.00  0.00     0.001 A 
ATOM      7  C   UNL d   1      53.477  34.116  55.070  0.00  0.00     0.007 A 
ENDROOT
BRANCH   1   8
ATOM      8  C   UNL d   1      54.577  32.604  53.446  0.00  0.00     0.297 C 
ATOM      9  N   UNL d   1      54.227  31.900  53.258  0.00  0.00    -0.103 NA
ATOM     10  O   UNL d   1      55.298  32.833  53.095  0.00  0.00    -0.264 OA
BRANCH   9  11
ATOM     11  N   UNL d   1      53.527  31.690  53.607  0.00  0.00    -0.112 NA
BRANCH  11  12
ATOM     12  C   UNL d   1      53.133  31.009  53.362  0.00  0.00     0.260 C 
ATOM     13  S   UNL d   1      53.375  30.266  53.647  0.00  0.00    -0.034 SA
ATOM     14  N   UNL d   1      52.502  31.062  52.838  0.00  0.00    -0.113 N 
ENDBRANCH  11  12
ENDBRANCH   9  11
ENDBRANCH   1   8
TORSDOF 3
ENDMDL
MODEL 3
REMARK VINA RESULT:      -7.2      2.648      3.442
REMARK  3 active torsions:
REMARK  status: ('A' for Active; 'I' for Inactive)
REMARK    1  A    between atoms: N_5  and  C_1 
REMARK       I    between atoms: C_2  and  N_3 
REMARK    2  A    between atoms: C_4  and  C_2 
REMARK    3  A    between atoms: N_3  and  N_5 
ROOT
ATOM      1  C   UNL d   1      52.621  34.803  53.705  0.00  0.00     0.060 A 
ATOM      2  C   UNL d   1      51.867  34.487  53.784  0.00  0.00     0.012 A 
ATOM      3  C   UNL d   1      51.466  34.182  53.129  0.00  0.00     0.035 A 
ATOM      4 BR   UNL d   1      50.705  33.867  53.223  0.00  0.00    -0.049 Br
ATOM      5  C   UNL d   1      52.987  34.815  52.955  0.00  0.00     0.005 A 
ATOM      6  C   UNL d   1      52.589  34.513  52.306  0.00  0.00     0.001 A 
ATOM      7  C   UNL d   1      51.824  34.195  52.398  0.00  0.00     0.007 A 
ENDROOT
BRANCH   1   8
ATOM      8  C   UNL d   1      53.011  35.105  54.371  0.00  0.00     0.297 C 
ATOM      9  N   UNL d   1      53.540  34.640  54.768  0.00  0.00    -0.103 NA
ATOM     10  O   UNL d   1      52.852  35.885  54.622  0.00  0.00    -0.264 OA
BRANCH   9  11
ATOM     11  N   UNL d   1      53.684  33.885  54.513  0.00  0.00    -0.112 NA
BRANCH  11  12
ATOM     12  C   UNL d   1      54.201  33.401  54.933  0.00  0.00     0.260 C 
ATOM     13  S   UNL d   1      54.979  33.654  55.080  0.00  0.00    -0.034 SA
ATOM     14  N   UNL d   1      53.949  32.667  55.209  0.00  0.00    -0.113 N 
ENDBRANCH  11  12
ENDBRANCH   9  11
ENDBRANCH   1   8
TORSDOF 3
ENDMDL
MODEL 4
REMARK VINA RESULT:      -6.9      2.017      2.875
REMARK  3 active torsions:
REMARK  status: ('A' for Active; 'I' for Inactive)
REMARK    1  A    between atoms: N_5  and  C_1 
REMARK       I    between atoms: C_2  and  N_3 
REMARK    2  A    between atoms: C_4  and  C_2 
REMARK    3  A    between atoms: N_3  and  N_5 
ROOT
ATOM      1  C   UNL d   1      52.566  33.139  53.003  0.00  0.00     0.060 A 
ATOM      2  C   UNL d   1      51.775  33.112  53.224  0.00  0.00     0.012 A 
ATOM      3  C   UNL d   1      51.291  33.775  53.140  0.00  0.00     0.035 A 
ATOM      4 BR   UNL d   1      50.495  33.735  53.367  0.00  0.00    -0.049 Br
ATOM      5  C   UNL d   1      52.884  33.845  52.689  0.00  0.00     0.005 A 
ATOM      6  C   UNL d   1      52.402  34.502  52.605  0.00  0.00     0.001 A 
ATOM      7  C   UNL d   1      51.601  34.463  52.833  0.00  0.00     0.007 A 
ENDROOT
BRANCH   1   8
ATOM      8  C   UNL d   1      53.040  32.465  53.093  0.00  0.00     0.297 C 
ATOM      9  N   UNL d   1      53.563  32.426  53.709  0.00  0.00    -0.103 NA
ATOM     10  O   UNL d   1      52.972  31.837  52.548  0.00  0.00    -0.264 OA
BRANCH   9  11
ATOM     11  N   UNL d   1      53.618  33.044  54.231  0.00  0.00    -0.112 NA
BRANCH  11  12
ATOM     12  C   UNL d   1      54.118  32.987  54.883  0.00  0.00     0.260 C 
ATOM     13  S   UNL d   1      54.754  33.516  54.966  0.00  0.00    -0.034 SA
ATOM     14  N   UNL d   1      53.989  32.407  55.453  0.00  0.00    -0.113 N 
ENDBRANCH  11  12
ENDBRANCH   9  11
ENDBRANCH   1   8
TORSDOF 3
ENDMDL
MODEL 5
REMARK VINA RESULT:      -6.7      1.799      2.117
REMARK  3 active torsions:
REMARK  status: ('A' for Active; 'I' for Inactive)
REMARK    1  A    between atoms: N_5  and  C_1 
REMARK       I    between atoms: C_2  and  N_3 
REMARK    2  A    between atoms: C_4  and  C_2 
REMARK    3  A    between atoms: N_3  and  N_5 
ROOT
ATOM      1  C   UNL d   1      54.109  32.825  54.373  0.00  0.00     0.060 A 
ATOM      2  C   UNL d   1      53.641  32.152  54.334  0.00  0.00     0.012 A 
ATOM      3  C   UNL d   1      53.736  31.606  53.723  0.00  0.00     0.035 A 
ATOM      4 BR   UNL d   1      53.257  30.930  53.696  0.00  0.00    -0.049 Br
ATOM      5  C   UNL d   1      54.688  32.961  53.787  0.00  0.00     0.005 A 
ATOM      6  C   UNL d   1      54.782  32.419  53.180  0.00  0.00     0.001 A 
ATOM      7  C   UNL d   1      54.301  31.738  53.151  0.00  0.00     0.007 A 
ENDROOT
BRANCH   1   8
ATOM      8  C   UNL d   1      54.002  33.365  54.994  0.00  0.00     0.297 C 
ATOM      9  N   UNL d   1      53.554  34.027  54.873  0.00  0.00    -0.103 NA
ATOM     10  O   UNL d   1      54.358  33.217  55.734  0.00  0.00    -0.264 OA
BRANCH   9  11
ATOM     11  N   UNL d   1      53.214  34.158  54.149  0.00  0.00    -0.112 NA
BRANCH  11  12
ATOM     12  C   UNL d   1      52.769  34.839  54.021  0.00  0.00     0.260 C 
ATOM     13  S   UNL d   1      52.101  34.811  53.527  0.00  0.00    -0.034 SA
ATOM     14  N   UNL d   1      52.984  35.547  54.381  0.00  0.00    -0.113 N 
ENDBRANCH  11  12
ENDBRANCH   9  11
ENDBRANCH   1   8
TORSDOF 3
ENDMDL
MODEL 6
REMARK VINA RESULT:      -6.6      1.862      2.183
REMARK  3 active torsions:
REMARK  status: ('A' for Active; 'I' for Inactive)
REMARK    1  A    between atoms: N_5  and  C_1 
REMARK       I    between atoms: C_2  and  N_3 
REMARK    2  A    between atoms: C_4  and  C_2 
REMARK    3  A    between atoms: N_3  and  N_5 
ROOT
ATOM      1  C   UNL d   1      53.404  34.221  54.245  0.00  0.00     0.060 A 
ATOM      2  C   UNL d   1      53.947  33.868  53.741  0.00  0.00     0.012 A 
ATOM      3  C   UNL d   1      54.326  33.166  53.953  0.00  0.00     0.035 A 
ATOM      4 BR   UNL d   1      54.873  32.820  53.435  0.00  0.00    -0.049 Br
ATOM      5  C   UNL d   1      53.231  33.866  54.981  0.00  0.00     0.005 A 
ATOM      6  C   UNL d   1      53.607  33.169  55.191  0.00  0.00     0.001 A 
ATOM      7  C   UNL d   1      54.157  32.820  54.670  0.00  0.00     0.007 A 
ENDROOT
BRANCH   1   8
ATOM      8  C   UNL d   1      53.031  34.927  54.018  0.00  0.00     0.297 C 
ATOM      9  N   UNL d   1      52.362  34.895  53.566  0.00  0.00    -0.103 NA
ATOM     10  O   UNL d   1      53.353  35.657  54.259  0.00  0.00    -0.264 OA
BRANCH   9  11
ATOM     11  N   UNL d   1      52.061  34.178  53.339  0.00  0.00    -0.112 NA
BRANCH  11  12
ATOM     12  C   UNL d   1      51.409  34.147  52.837  0.00  0.00     0.260 C 
ATOM     13  S   UNL d   1      50.646  34.051  53.153  0.00  0.00    -0.034 SA
ATOM     14  N   UNL d   1      51.511  34.210  52.023  0.00  0.00    -0.113 N 
ENDBRANCH  11  12
ENDBRANCH   9  11
ENDBRANCH   1   8
TORSDOF 3
ENDMDL
