MODEL 1
REMARK VINA RESULT:       3.3      0.000      0.000
REMARK  1 active torsions:
REMARK  status: ('A' for Active; 'I' for Inactive)
REMARK    1  A    between atoms: C_6  and  N_1 
ROOT
ATOM      1  N   UNL d   1      23.638  13.280  -0.740  0.00  0.00    -0.204 N 
ATOM      2  C   UNL d   1      24.219  13.560  -1.258  0.00  0.00     0.271 A 
ATOM      3  C   UNL d   1      23.343  12.567  -1.041  0.00  0.00     0.270 A 
ATOM      4  C   UNL d   1      24.284  13.020  -1.880  0.00  0.00     0.080 A 
ATOM      5  C   UNL d   1      23.749  12.414  -1.747  0.00  0.00     0.064 A 
ATOM      6  O   UNL d   1      24.592  14.245  -1.090  0.00  0.00    -0.266 OA
ATOM      7  O   UNL d   1      22.755  12.099  -0.702  0.00  0.00    -0.266 OA
ATOM      8  N   UNL d   1      24.709  12.394  -3.079  0.00  0.00    -0.242 NA
ATOM      9  C   UNL d   1      24.768  13.019  -2.543  0.00  0.00     0.104 A 
ATOM     10  C   UNL d   1      23.693  11.793  -2.285  0.00  0.00     0.026 A 
ATOM     11  C   UNL d   1      24.174  11.781  -2.955  0.00  0.00     0.099 A 
ENDROOT
BRANCH   1  12
ATOM     12  C   UNL d   1      23.389  13.645  -0.040  0.00  0.00     0.326 C 
ATOM     13  O   UNL d   1      22.659  14.028  -0.014  0.00  0.00    -0.261 OA
ENDBRANCH   1  12
TORSDOF 1
ENDMDL
