MODEL 1
REMARK VINA RESULT:      72.1      0.000      0.000
REMARK  6 active torsions:
REMARK  status: ('A' for Active; 'I' for Inactive)
REMARK    1  A    between atoms: C_10  and  C_4 
REMARK    2  A    between atoms: N_12  and  C_5 
REMARK    3  A    between atoms: N_11  and  C_15 
REMARK    4  A    between atoms: C_20  and  N_12 
REMARK    5  A    between atoms: C_15  and  C_16 
REMARK    6  A    between atoms: C_16  and  C_20 
ROOT
ATOM      1  N   UNL d   1     -55.146 -99.929 -43.317  0.00  0.00    -0.195 N 
ATOM      2  C   UNL d   1     -55.161-100.702 -43.032  0.00  0.00     0.167 A 
ATOM      3  N   UNL d   1     -55.013 -99.422 -42.685  0.00  0.00    -0.163 NA
ATOM      4  C   UNL d   1     -55.037-100.677 -42.222  0.00  0.00     0.055 A 
ATOM      5  C   UNL d   1     -55.256 -99.775 -44.122  0.00  0.00     0.167 A 
ATOM      6  C   UNL d   1     -54.945 -99.892 -42.004  0.00  0.00     0.104 A 
ATOM      7  N   UNL d   1     -55.286-101.329 -43.549  0.00  0.00    -0.227 NA
ATOM      8  C   UNL d   1     -55.383-100.413 -44.644  0.00  0.00     0.058 A 
ATOM      9  C   UNL d   1     -55.398-101.186 -44.359  0.00  0.00     0.086 A 
ATOM     10  C   UNL d   1     -54.809 -99.613 -41.240  0.00  0.00     0.023 C 
ATOM     11  C   UNL d   1     -55.524-101.819 -44.878  0.00  0.00     0.021 C 
ENDROOT
BRANCH   5  12
ATOM     12  N   UNL d   1     -55.241 -99.009 -44.404  0.00  0.00    -0.225 NA
BRANCH  12  13
ATOM     13  C   UNL d   1     -55.526 -98.841 -45.158  0.00  0.00     0.102 C 
BRANCH  13  14
ATOM     14  C   UNL d   1     -56.344 -98.756 -45.286  0.00  0.00     0.040 C 
BRANCH  14  15
ATOM     15  C   UNL d   1     -56.851 -99.390 -45.151  0.00  0.00     0.082 C 
BRANCH  15  16
ATOM     16  N   UNL d   1     -57.631 -99.254 -44.921  0.00  0.00    -0.299 N 
ATOM     17  C   UNL d   1     -57.809 -99.129 -44.119  0.00  0.00     0.107 A 
ATOM     18  C   UNL d   1     -58.592 -98.993 -43.888  0.00  0.00     0.142 A 
ATOM     19  O   UNL d   1     -59.195 -98.981 -44.458  0.00  0.00    -0.300 OA
ATOM     20  C   UNL d   1     -59.014 -99.105 -45.252  0.00  0.00     0.142 A 
ATOM     21  C   UNL d   1     -58.231 -99.241 -45.483  0.00  0.00     0.107 A 
ENDBRANCH  15  16
ENDBRANCH  14  15
ENDBRANCH  13  14
ENDBRANCH  12  13
ENDBRANCH   5  12
BRANCH   4  22
ATOM     22  C   UNL d   1     -54.995-101.266 -41.650  0.00  0.00     0.004 A 
ATOM     23  C   UNL d   1     -55.186-102.045 -41.840  0.00  0.00     0.000 A 
ATOM     24  C   UNL d   1     -55.143-102.636 -41.260  0.00  0.00     0.000 A 
ATOM     25  C   UNL d   1     -54.907-102.443 -40.493  0.00  0.00     0.000 A 
ATOM     26  C   UNL d   1     -54.715-101.664 -40.303  0.00  0.00     0.000 A 
ATOM     27  C   UNL d   1     -54.758-101.075 -40.876  0.00  0.00     0.000 A 
ENDBRANCH   4  22
TORSDOF 6
ENDMDL
