MODEL 1
REMARK VINA RESULT:      14.7      0.000      0.000
REMARK  6 active torsions:
REMARK  status: ('A' for Active; 'I' for Inactive)
REMARK    1  A    between atoms: C_2  and  S_1 
REMARK    2  A    between atoms: N_5  and  S_1 
REMARK    3  A    between atoms: C_15  and  N_5 
REMARK    4  A    between atoms: C_7  and  C_6 
REMARK    5  A    between atoms: C_20  and  C_15 
REMARK    6  A    between atoms: O_19  and  C_20 
ROOT
ATOM      1  C   UNL d   1      46.219 -17.978  44.038  0.00  0.00     0.105 A 
ATOM      2  C   UNL d   1      45.868 -16.388  44.344  0.00  0.00     0.000 A 
ATOM      3  C   UNL d   1      46.000 -17.743  44.802  0.00  0.00     0.013 A 
ATOM      4  C   UNL d   1      46.263 -17.421  43.431  0.00  0.00     0.013 A 
ATOM      5  C   UNL d   1      46.086 -16.624  43.585  0.00  0.00     0.001 A 
ATOM      6  C   UNL d   1      45.824 -16.945  44.955  0.00  0.00     0.001 A 
ENDROOT
BRANCH   1   7
ATOM      7  S   UNL d   1      46.396 -18.769  43.878  0.00  0.00     0.285 S 
ATOM      8  O   UNL d   1      46.571 -19.554  43.711  0.00  0.00    -0.198 OA
ATOM      9  O   UNL d   1      46.564 -18.900  44.669  0.00  0.00    -0.198 OA
BRANCH   7  10
ATOM     10  N   UNL d   1      46.229 -18.644  43.079  0.00  0.00    -0.155 NA
BRANCH  10  11
ATOM     11  C   UNL d   1      46.232 -19.279  42.549  0.00  0.00     0.138 C 
BRANCH  11  12
ATOM     12  C   UNL d   1      46.647 -19.216  41.839  0.00  0.00     0.138 C 
BRANCH  12  13
ATOM     13  O   UNL d   1      46.419 -19.681  41.184  0.00  0.00    -0.325 OA
ATOM     14  C   UNL d   1      46.581 -19.419  40.432  0.00  0.00     0.182 C 
ENDBRANCH  12  13
ENDBRANCH  11  12
ENDBRANCH  10  11
ENDBRANCH   7  10
ENDBRANCH   1   7
BRANCH   2  15
ATOM     15  C   UNL d   1      45.694 -15.596  44.488  0.00  0.00     0.000 A 
ATOM     16  C   UNL d   1      46.258 -15.020  44.320  0.00  0.00     0.001 A 
ATOM     17  C   UNL d   1      46.102 -14.229  44.457  0.00  0.00     0.011 A 
ATOM     18  C   UNL d   1      45.361 -14.003  44.773  0.00  0.00     0.058 A 
ATOM     19  C   UNL d   1      44.796 -14.580  44.942  0.00  0.00     0.011 A 
ATOM     20 CL   UNL d   1      45.196 -13.215  44.913  0.00  0.00    -0.082 Cl
ATOM     21  C   UNL d   1      44.963 -15.376  44.800  0.00  0.00     0.001 A 
ENDBRANCH   2  15
TORSDOF 6
ENDMDL
MODEL 2
REMARK VINA RESULT:      16.7      3.549      4.904
REMARK  6 active torsions:
REMARK  status: ('A' for Active; 'I' for Inactive)
REMARK    1  A    between atoms: C_2  and  S_1 
REMARK    2  A    between atoms: N_5  and  S_1 
REMARK    3  A    between atoms: C_15  and  N_5 
REMARK    4  A    between atoms: C_7  and  C_6 
REMARK    5  A    between atoms: C_20  and  C_15 
REMARK    6  A    between atoms: O_19  and  C_20 
ROOT
ATOM      1  C   UNL d   1      45.797 -13.881  44.320  0.00  0.00     0.105 A 
ATOM      2  C   UNL d   1      45.878 -15.535  44.281  0.00  0.00     0.000 A 
ATOM      3  C   UNL d   1      45.146 -14.331  44.563  0.00  0.00     0.013 A 
ATOM      4  C   UNL d   1      46.484 -14.255  44.059  0.00  0.00     0.013 A 
ATOM      5  C   UNL d   1      46.525 -15.084  44.040  0.00  0.00     0.001 A 
ATOM      6  C   UNL d   1      45.187 -15.161  44.544  0.00  0.00     0.001 A 
ENDROOT
BRANCH   1   7
ATOM      7  S   UNL d   1      45.764 -13.055  44.336  0.00  0.00     0.285 S 
ATOM      8  O   UNL d   1      45.727 -12.234  44.347  0.00  0.00    -0.198 OA
ATOM      9  O   UNL d   1      46.301 -13.038  44.955  0.00  0.00    -0.198 OA
BRANCH   7  10
ATOM     10  N   UNL d   1      45.223 -13.064  43.713  0.00  0.00    -0.155 NA
BRANCH  10  11
ATOM     11  C   UNL d   1      44.880 -12.360  43.449  0.00  0.00     0.138 C 
BRANCH  11  12
ATOM     12  C   UNL d   1      45.010 -12.108  42.674  0.00  0.00     0.138 C 
BRANCH  12  13
ATOM     13  O   UNL d   1      44.417 -12.222  42.097  0.00  0.00    -0.325 OA
ATOM     14  C   UNL d   1      44.588 -12.080  41.315  0.00  0.00     0.182 C 
ENDBRANCH  12  13
ENDBRANCH  11  12
ENDBRANCH  10  11
ENDBRANCH   7  10
ENDBRANCH   1   7
BRANCH   2  15
ATOM     15  C   UNL d   1      45.925 -16.357  44.259  0.00  0.00     0.000 A 
ATOM     16  C   UNL d   1      46.013 -16.739  43.535  0.00  0.00     0.001 A 
ATOM     17  C   UNL d   1      46.062 -17.555  43.496  0.00  0.00     0.011 A 
ATOM     18  C   UNL d   1      46.022 -18.005  44.199  0.00  0.00     0.058 A 
ATOM     19  C   UNL d   1      45.934 -17.622  44.925  0.00  0.00     0.011 A 
ATOM     20 CL   UNL d   1      46.070 -18.821  44.170  0.00  0.00    -0.082 Cl
ATOM     21  C   UNL d   1      45.885 -16.798  44.955  0.00  0.00     0.001 A 
ENDBRANCH   2  15
TORSDOF 6
ENDMDL
MODEL 3
REMARK VINA RESULT:      17.2      3.158      4.693
REMARK  6 active torsions:
REMARK  status: ('A' for Active; 'I' for Inactive)
REMARK    1  A    between atoms: C_2  and  S_1 
REMARK    2  A    between atoms: N_5  and  S_1 
REMARK    3  A    between atoms: C_15  and  N_5 
REMARK    4  A    between atoms: C_7  and  C_6 
REMARK    5  A    between atoms: C_20  and  C_15 
REMARK    6  A    between atoms: O_19  and  C_20 
ROOT
ATOM      1  C   UNL d   1      45.917 -15.018  44.508  0.00  0.00     0.105 A 
ATOM      2  C   UNL d   1      46.016 -16.650  44.242  0.00  0.00     0.000 A 
ATOM      3  C   UNL d   1      45.450 -15.538  44.953  0.00  0.00     0.013 A 
ATOM      4  C   UNL d   1      46.430 -15.312  43.934  0.00  0.00     0.013 A 
ATOM      5  C   UNL d   1      46.480 -16.130  43.800  0.00  0.00     0.001 A 
ATOM      6  C   UNL d   1      45.500 -16.356  44.819  0.00  0.00     0.001 A 
ENDROOT
BRANCH   1   7
ATOM      7  S   UNL d   1      45.873 -14.203  44.636  0.00  0.00     0.285 S 
ATOM      8  O   UNL d   1      45.822 -13.391  44.759  0.00  0.00    -0.198 OA
ATOM      9  O   UNL d   1      46.627 -14.204  44.954  0.00  0.00    -0.198 OA
BRANCH   7  10
ATOM     10  N   UNL d   1      45.112 -14.193  44.315  0.00  0.00    -0.155 NA
BRANCH  10  11
ATOM     11  C   UNL d   1      44.727 -13.475  44.178  0.00  0.00     0.138 C 
BRANCH  11  12
ATOM     12  C   UNL d   1      44.901 -13.043  43.497  0.00  0.00     0.138 C 
BRANCH  12  13
ATOM     13  O   UNL d   1      44.281 -12.693  43.059  0.00  0.00    -0.325 OA
ATOM     14  C   UNL d   1      44.447 -12.082  42.549  0.00  0.00     0.182 C 
ENDBRANCH  12  13
ENDBRANCH  11  12
ENDBRANCH  10  11
ENDBRANCH   7  10
ENDBRANCH   1   7
BRANCH   2  15
ATOM     15  C   UNL d   1      46.070 -17.459  44.104  0.00  0.00     0.000 A 
ATOM     16  C   UNL d   1      46.225 -17.732  43.341  0.00  0.00     0.001 A 
ATOM     17  C   UNL d   1      46.282 -18.533  43.188  0.00  0.00     0.011 A 
ATOM     18  C   UNL d   1      46.183 -19.081  43.811  0.00  0.00     0.058 A 
ATOM     19  C   UNL d   1      46.028 -18.809  44.574  0.00  0.00     0.011 A 
ATOM     20 CL   UNL d   1      46.238 -19.885  43.666  0.00  0.00    -0.082 Cl
ATOM     21  C   UNL d   1      45.972 -17.998  44.720  0.00  0.00     0.001 A 
ENDBRANCH   2  15
TORSDOF 6
ENDMDL
