MODEL 1
REMARK VINA RESULT:      -2.1      0.000      0.000
REMARK  6 active torsions:
REMARK  status: ('A' for Active; 'I' for Inactive)
REMARK    1  A    between atoms: C_6  and  C_1 
REMARK    2  A    between atoms: C_9  and  N_3 
REMARK       I    between atoms: N_7  and  C_6 
REMARK    3  A    between atoms: C_8  and  N_7 
REMARK    4  A    between atoms: C_10  and  C_9 
REMARK    5  A    between atoms: O_25  and  C_15 
REMARK    6  A    between atoms: O_26  and  C_20 
ROOT
ATOM      1  C   UNL d   1      32.735  19.529 -22.813  0.00  0.00     0.199 A 
ATOM      2  C   UNL d   1      32.995  20.275 -23.037  0.00  0.00     0.211 A 
ATOM      3  N   UNL d   1      32.967  20.762 -22.375  0.00  0.00    -0.190 N 
ATOM      4  N   UNL d   1      32.544  19.550 -22.010  0.00  0.00    -0.122 NA
ATOM      5  N   UNL d   1      32.688  20.322 -21.733  0.00  0.00    -0.058 NA
ATOM      6  N   UNL d   1      33.241  20.496 -23.790  0.00  0.00    -0.125 N 
ENDROOT
BRANCH   1   7
ATOM      7  C   UNL d   1      32.673  18.870 -23.300  0.00  0.00     0.302 C 
ATOM      8  N   UNL d   1      32.047  18.342 -23.203  0.00  0.00    -0.204 NA
ATOM      9  O   UNL d   1      33.241  18.736 -23.890  0.00  0.00    -0.263 OA
BRANCH   8  10
ATOM     10  C   UNL d   1      31.989  17.679 -23.697  0.00  0.00     0.109 A 
ATOM     11  C   UNL d   1      32.635  17.176 -23.795  0.00  0.00     0.045 A 
ATOM     12  C   UNL d   1      32.577  16.521 -24.283  0.00  0.00     0.096 A 
ATOM     13  C   UNL d   1      31.873  16.357 -24.680  0.00  0.00     0.026 A 
ATOM     14  C   UNL d   1      31.220  16.863 -24.583  0.00  0.00     0.028 A 
ATOM     15  C   UNL d   1      31.284  17.523 -24.089  0.00  0.00     0.112 A 
BRANCH  12  16
ATOM     16  O   UNL d   1      33.224  16.017 -24.381  0.00  0.00    -0.328 OA
ATOM     17  C   UNL d   1      33.229  15.464 -24.981  0.00  0.00     0.181 C 
ENDBRANCH  12  16
BRANCH  15  18
ATOM     18  O   UNL d   1      30.646  18.025 -23.988  0.00  0.00    -0.327 OA
ATOM     19  C   UNL d   1      29.939  17.891 -24.394  0.00  0.00     0.181 C 
ENDBRANCH  15  18
ENDBRANCH   8  10
ENDBRANCH   1   7
BRANCH   3  20
ATOM     20  C   UNL d   1      33.178  21.554 -22.348  0.00  0.00     0.106 C 
BRANCH  20  21
ATOM     21  C   UNL d   1      32.911  22.042 -21.735  0.00  0.00     0.047 A 
ATOM     22  C   UNL d   1      32.535  22.748 -21.906  0.00  0.00     0.142 A 
ATOM     23  C   UNL d   1      32.270  23.233 -21.292  0.00  0.00     0.036 A 
ATOM     24  F   UNL d   1      32.420  22.981 -22.686  0.00  0.00    -0.204 F 
ATOM     25  C   UNL d   1      32.381  23.008 -20.504  0.00  0.00     0.037 A 
ATOM     26  C   UNL d   1      32.765  22.286 -20.337  0.00  0.00     0.007 A 
ATOM     27 BR   UNL d   1      32.119  23.486 -19.885  0.00  0.00    -0.049 Br
ATOM     28  C   UNL d   1      33.027  21.809 -20.956  0.00  0.00     0.004 A 
ENDBRANCH  20  21
ENDBRANCH   3  20
TORSDOF 6
ENDMDL
