MODEL 1
REMARK VINA RESULT:      -3.8      0.000      0.000
REMARK  2 active torsions:
REMARK  status: ('A' for Active; 'I' for Inactive)
REMARK    1  A    between atoms: C_9  and  C_4 
REMARK    2  A    between atoms: C_13  and  C_6 
ROOT
ATOM      1  N   UNL d   1      31.876  16.726 -23.701  0.00  0.00    -0.185 N 
ATOM      2  C   UNL d   1      32.669  16.530 -23.828  0.00  0.00     0.219 A 
ATOM      3  N   UNL d   1      31.846  17.504 -23.453  0.00  0.00    -0.153 NA
ATOM      4  C   UNL d   1      32.611  17.797 -23.424  0.00  0.00     0.156 A 
ATOM      5  S   UNL d   1      33.122  17.196 -23.655  0.00  0.00    -0.024 SA
ATOM      6  C   UNL d   1      31.420  16.062 -23.873  0.00  0.00     0.187 A 
ATOM      7  N   UNL d   1      31.930  15.453 -24.107  0.00  0.00    -0.127 NA
ATOM      8  N   UNL d   1      32.701  15.747 -24.078  0.00  0.00    -0.120 NA
ENDROOT
BRANCH   6   9
ATOM      9  C   UNL d   1      30.603  16.006 -23.823  0.00  0.00     0.038 A 
ATOM     10  C   UNL d   1      30.249  15.638 -23.176  0.00  0.00     0.004 A 
ATOM     11  C   UNL d   1      29.431  15.582 -23.127  0.00  0.00     0.011 A 
ATOM     12  C   UNL d   1      28.964  15.898 -23.730  0.00  0.00     0.058 A 
ATOM     13  C   UNL d   1      29.320  16.269 -24.381  0.00  0.00     0.011 A 
ATOM     14 CL   UNL d   1      28.140  15.844 -23.685  0.00  0.00    -0.082 Cl
ATOM     15  C   UNL d   1      30.136  16.317 -24.419  0.00  0.00     0.004 A 
ENDBRANCH   6   9
BRANCH   4  16
ATOM     16  C   UNL d   1      32.837  18.561 -23.202  0.00  0.00     0.126 A 
ATOM     17  O   UNL d   1      32.876  18.841 -22.426  0.00  0.00    -0.298 OA
ATOM     18  C   UNL d   1      33.124  19.626 -22.458  0.00  0.00     0.134 A 
ATOM     19 BR   UNL d   1      33.241  20.126 -21.816  0.00  0.00    -0.022 Br
ATOM     20  C   UNL d   1      33.240  19.834 -23.253  0.00  0.00     0.034 A 
ATOM     21  C   UNL d   1      33.061  19.173 -23.712  0.00  0.00     0.029 A 
ENDBRANCH   4  16
TORSDOF 2
ENDMDL
MODEL 2
REMARK VINA RESULT:      -3.4      1.852      2.529
REMARK  2 active torsions:
REMARK  status: ('A' for Active; 'I' for Inactive)
REMARK    1  A    between atoms: C_9  and  C_4 
REMARK    2  A    between atoms: C_13  and  C_6 
ROOT
ATOM      1  N   UNL d   1      32.661  18.907 -23.540  0.00  0.00    -0.185 N 
ATOM      2  C   UNL d   1      33.087  19.517 -23.901  0.00  0.00     0.219 A 
ATOM      3  N   UNL d   1      32.557  19.103 -22.754  0.00  0.00    -0.153 NA
ATOM      4  C   UNL d   1      32.913  19.829 -22.618  0.00  0.00     0.156 A 
ATOM      5  S   UNL d   1      33.241  20.087 -23.326  0.00  0.00    -0.024 SA
ATOM      6  C   UNL d   1      32.505  18.334 -24.112  0.00  0.00     0.187 A 
ATOM      7  N   UNL d   1      32.834  18.589 -24.828  0.00  0.00    -0.127 NA
ATOM      8  N   UNL d   1      33.192  19.321 -24.693  0.00  0.00    -0.120 NA
ENDROOT
BRANCH   6   9
ATOM      9  C   UNL d   1      32.096  17.632 -23.999  0.00  0.00     0.038 A 
ATOM     10  C   UNL d   1      32.450  17.003 -23.599  0.00  0.00     0.004 A 
ATOM     11  C   UNL d   1      32.040  16.300 -23.486  0.00  0.00     0.011 A 
ATOM     12  C   UNL d   1      31.271  16.227 -23.775  0.00  0.00     0.058 A 
ATOM     13  C   UNL d   1      30.914  16.859 -24.177  0.00  0.00     0.011 A 
ATOM     14 CL   UNL d   1      30.854  15.521 -23.664  0.00  0.00    -0.082 Cl
ATOM     15  C   UNL d   1      31.333  17.554 -24.283  0.00  0.00     0.004 A 
ENDBRANCH   6   9
BRANCH   4  16
ATOM     16  C   UNL d   1      32.940  20.236 -21.899  0.00  0.00     0.126 A 
ATOM     17  O   UNL d   1      32.670  21.006 -21.775  0.00  0.00    -0.298 OA
ATOM     18  C   UNL d   1      32.804  21.192 -20.983  0.00  0.00     0.134 A 
ATOM     19 BR   UNL d   1      32.621  21.902 -20.613  0.00  0.00    -0.022 Br
ATOM     20  C   UNL d   1      33.157  20.537 -20.616  0.00  0.00     0.034 A 
ATOM     21  C   UNL d   1      33.241  19.946 -21.184  0.00  0.00     0.029 A 
ENDBRANCH   4  16
TORSDOF 2
ENDMDL
MODEL 3
REMARK VINA RESULT:      -3.1      2.526      4.176
REMARK  2 active torsions:
REMARK  status: ('A' for Active; 'I' for Inactive)
REMARK    1  A    between atoms: C_9  and  C_4 
REMARK    2  A    between atoms: C_13  and  C_6 
ROOT
ATOM      1  N   UNL d   1      31.967  17.373 -24.173  0.00  0.00    -0.185 N 
ATOM      2  C   UNL d   1      32.082  16.802 -24.760  0.00  0.00     0.219 A 
ATOM      3  N   UNL d   1      31.189  17.330 -23.929  0.00  0.00    -0.153 NA
ATOM      4  C   UNL d   1      30.815  16.738 -24.356  0.00  0.00     0.156 A 
ATOM      5  S   UNL d   1      31.366  16.410 -24.870  0.00  0.00    -0.024 SA
ATOM      6  C   UNL d   1      32.682  17.768 -24.060  0.00  0.00     0.187 A 
ATOM      7  N   UNL d   1      33.241  17.442 -24.576  0.00  0.00    -0.127 NA
ATOM      8  N   UNL d   1      32.866  16.845 -25.007  0.00  0.00    -0.120 NA
ENDROOT
BRANCH   6   9
ATOM      9  C   UNL d   1      32.822  18.379 -23.530  0.00  0.00     0.038 A 
ATOM     10  C   UNL d   1      33.096  18.215 -22.769  0.00  0.00     0.004 A 
ATOM     11  C   UNL d   1      33.236  18.827 -22.239  0.00  0.00     0.011 A 
ATOM     12  C   UNL d   1      33.101  19.607 -22.472  0.00  0.00     0.058 A 
ATOM     13  C   UNL d   1      32.826  19.772 -23.237  0.00  0.00     0.011 A 
ATOM     14 CL   UNL d   1      33.241  20.226 -21.942  0.00  0.00    -0.082 Cl
ATOM     15  C   UNL d   1      32.690  19.154 -23.756  0.00  0.00     0.004 A 
ENDBRANCH   6   9
BRANCH   4  16
ATOM     16  C   UNL d   1      30.025  16.505 -24.286  0.00  0.00     0.126 A 
ATOM     17  O   UNL d   1      29.710  16.063 -23.665  0.00  0.00    -0.298 OA
ATOM     18  C   UNL d   1      28.907  15.958 -23.817  0.00  0.00     0.134 A 
ATOM     19 BR   UNL d   1      28.371  15.550 -23.346  0.00  0.00    -0.022 Br
ATOM     20  C   UNL d   1      28.723  16.335 -24.533  0.00  0.00     0.034 A 
ATOM     21  C   UNL d   1      29.417  16.674 -24.822  0.00  0.00     0.029 A 
ENDBRANCH   4  16
TORSDOF 2
ENDMDL
MODEL 4
REMARK VINA RESULT:      -1.5      3.494      5.106
REMARK  2 active torsions:
REMARK  status: ('A' for Active; 'I' for Inactive)
REMARK    1  A    between atoms: C_9  and  C_4 
REMARK    2  A    between atoms: C_13  and  C_6 
ROOT
ATOM      1  N   UNL d   1      32.919  19.906 -22.165  0.00  0.00    -0.185 N 
ATOM      2  C   UNL d   1      33.100  19.191 -21.791  0.00  0.00     0.219 A 
ATOM      3  N   UNL d   1      32.793  19.751 -22.956  0.00  0.00    -0.153 NA
ATOM      4  C   UNL d   1      32.892  18.948 -23.083  0.00  0.00     0.156 A 
ATOM      5  S   UNL d   1      33.082  18.599 -22.364  0.00  0.00    -0.024 SA
ATOM      6  C   UNL d   1      32.936  20.501 -21.594  0.00  0.00     0.187 A 
ATOM      7  N   UNL d   1      33.127  20.155 -20.866  0.00  0.00    -0.127 NA
ATOM      8  N   UNL d   1      33.227  19.345 -20.993  0.00  0.00    -0.120 NA
ENDROOT
BRANCH   6   9
ATOM      9  C   UNL d   1      32.790  21.299 -21.719  0.00  0.00     0.038 A 
ATOM     10  C   UNL d   1      32.285  21.713 -21.216  0.00  0.00     0.004 A 
ATOM     11  C   UNL d   1      32.139  22.512 -21.341  0.00  0.00     0.011 A 
ATOM     12  C   UNL d   1      32.502  22.898 -21.973  0.00  0.00     0.058 A 
ATOM     13  C   UNL d   1      33.010  22.481 -22.480  0.00  0.00     0.011 A 
ATOM     14 CL   UNL d   1      32.359  23.702 -22.104  0.00  0.00    -0.082 Cl
ATOM     15  C   UNL d   1      33.147  21.686 -22.345  0.00  0.00     0.004 A 
ENDBRANCH   6   9
BRANCH   4  16
ATOM     16  C   UNL d   1      32.816  18.551 -23.805  0.00  0.00     0.126 A 
ATOM     17  O   UNL d   1      32.981  17.751 -23.930  0.00  0.00    -0.298 OA
ATOM     18  C   UNL d   1      32.831  17.588 -24.724  0.00  0.00     0.134 A 
ATOM     19 BR   UNL d   1      32.919  16.861 -25.096  0.00  0.00    -0.022 Br
ATOM     20  C   UNL d   1      32.573  18.286 -25.091  0.00  0.00     0.034 A 
ATOM     21  C   UNL d   1      32.565  18.881 -24.521  0.00  0.00     0.029 A 
ENDBRANCH   4  16
TORSDOF 2
ENDMDL
MODEL 5
REMARK VINA RESULT:      -1.5      4.251      5.417
REMARK  2 active torsions:
REMARK  status: ('A' for Active; 'I' for Inactive)
REMARK    1  A    between atoms: C_9  and  C_4 
REMARK    2  A    between atoms: C_13  and  C_6 
ROOT
ATOM      1  N   UNL d   1      33.102  21.693 -22.111  0.00  0.00    -0.185 N 
ATOM      2  C   UNL d   1      33.117  22.455 -22.433  0.00  0.00     0.219 A 
ATOM      3  N   UNL d   1      33.018  21.764 -21.301  0.00  0.00    -0.153 NA
ATOM      4  C   UNL d   1      32.981  22.561 -21.112  0.00  0.00     0.156 A 
ATOM      5  S   UNL d   1      33.042  22.990 -21.811  0.00  0.00    -0.024 SA
ATOM      6  C   UNL d   1      33.177  21.155 -22.730  0.00  0.00     0.187 A 
ATOM      7  N   UNL d   1      33.239  21.582 -23.437  0.00  0.00    -0.127 NA
ATOM      8  N   UNL d   1      33.201  22.385 -23.248  0.00  0.00    -0.120 NA
ENDROOT
BRANCH   6   9
ATOM      9  C   UNL d   1      33.189  20.337 -22.665  0.00  0.00     0.038 A 
ATOM     10  C   UNL d   1      33.162  19.977 -21.923  0.00  0.00     0.004 A 
ATOM     11  C   UNL d   1      33.174  19.158 -21.859  0.00  0.00     0.011 A 
ATOM     12  C   UNL d   1      33.214  18.697 -22.542  0.00  0.00     0.058 A 
ATOM     13  C   UNL d   1      33.241  19.058 -23.288  0.00  0.00     0.011 A 
ATOM     14 CL   UNL d   1      33.226  17.871 -22.483  0.00  0.00    -0.082 Cl
ATOM     15  C   UNL d   1      33.228  19.875 -23.339  0.00  0.00     0.004 A 
ENDBRANCH   6   9
BRANCH   4  16
ATOM     16  C   UNL d   1      32.897  22.884 -20.356  0.00  0.00     0.126 A 
ATOM     17  O   UNL d   1      33.189  22.551 -19.659  0.00  0.00    -0.298 OA
ATOM     18  C   UNL d   1      32.981  23.052 -19.039  0.00  0.00     0.134 A 
ATOM     19 BR   UNL d   1      33.157  22.940 -18.244  0.00  0.00    -0.022 Br
ATOM     20  C   UNL d   1      32.560  23.696 -19.350  0.00  0.00     0.034 A 
ATOM     21  C   UNL d   1      32.509  23.590 -20.166  0.00  0.00     0.029 A 
ENDBRANCH   4  16
TORSDOF 2
ENDMDL
