MODEL 1
REMARK VINA RESULT:      95.1      0.000      0.000
REMARK  7 active torsions:
REMARK  status: ('A' for Active; 'I' for Inactive)
REMARK    1  A    between atoms: C_10  and  N_3 
REMARK    2  A    between atoms: C_12  and  C_10 
REMARK    3  A    between atoms: C_16  and  N_11 
REMARK    4  A    between atoms: O_29  and  C_15 
REMARK    5  A    between atoms: C_27  and  C_16 
REMARK    6  A    between atoms: O_30  and  C_17 
REMARK    7  A    between atoms: C_23  and  C_27 
ROOT
ATOM      1  C   UNL d   1     -54.718-100.270 -41.628  0.00  0.00     0.191 A 
ATOM      2  C   UNL d   1     -54.717-101.091 -41.788  0.00  0.00     0.173 A 
ATOM      3  N   UNL d   1     -54.715-101.365 -40.377  0.00  0.00    -0.224 N 
ATOM      4  N   UNL d   1     -54.720 -99.861 -42.345  0.00  0.00    -0.042 NA
ATOM      5  C   UNL d   1     -54.720-100.391 -43.130  0.00  0.00     0.722 A 
ATOM      6  N   UNL d   1     -54.718 -99.981 -40.848  0.00  0.00    -0.240 N 
ATOM      7  C   UNL d   1     -54.716-100.543 -40.217  0.00  0.00     0.343 A 
ATOM      8  C   UNL d   1     -54.715-101.624 -41.167  0.00  0.00     0.288 A 
ATOM      9  N   UNL d   1     -54.718-101.175 -42.600  0.00  0.00    -0.132 N 
ATOM     10  N   UNL d   1     -54.720-100.488 -43.945  0.00  0.00    -0.139 N 
ATOM     11  O   UNL d   1     -54.716-100.257 -39.423  0.00  0.00    -0.245 OA
ATOM     12  O   UNL d   1     -54.713-102.446 -41.326  0.00  0.00    -0.265 OA
ATOM     13  C   UNL d   1     -54.717-101.895 -42.996  0.00  0.00     0.100 A 
ATOM     14  C   UNL d   1     -54.719 -99.158 -40.688  0.00  0.00     0.105 C 
ATOM     15  C   UNL d   1     -54.717-101.960 -43.832  0.00  0.00     0.039 A 
ATOM     16  C   UNL d   1     -54.719-101.240 -44.318  0.00  0.00     0.100 A 
ENDROOT
BRANCH  10  17
ATOM     17  C   UNL d   1     -54.722-100.132 -44.681  0.00  0.00     0.098 C 
BRANCH  17  18
ATOM     18  C   UNL d   1     -55.174 -99.462 -44.805  0.00  0.00     0.020 C 
BRANCH  18  19
ATOM     19  C   UNL d   1     -55.948 -99.446 -44.556  0.00  0.00     0.004 A 
ATOM     20  C   UNL d   1     -56.548 -99.558 -45.097  0.00  0.00     0.026 A 
ATOM     21  C   UNL d   1     -57.327 -99.543 -44.852  0.00  0.00     0.116 A 
ATOM     22  C   UNL d   1     -57.501 -99.414 -44.057  0.00  0.00     0.116 A 
ATOM     23  C   UNL d   1     -56.901 -99.303 -43.521  0.00  0.00     0.026 A 
ATOM     24  C   UNL d   1     -56.118 -99.319 -43.771  0.00  0.00     0.002 A 
BRANCH  21  25
ATOM     25  O   UNL d   1     -57.931 -99.655 -45.393  0.00  0.00    -0.326 OA
ATOM     26  C   UNL d   1     -58.093 -99.089 -45.947  0.00  0.00     0.181 C 
ENDBRANCH  21  25
BRANCH  22  27
ATOM     27  O   UNL d   1     -58.317 -99.434 -44.012  0.00  0.00    -0.326 OA
ATOM     28  C   UNL d   1     -58.734 -98.759 -43.835  0.00  0.00     0.181 C 
ENDBRANCH  22  27
ENDBRANCH  18  19
ENDBRANCH  17  18
ENDBRANCH  10  17
BRANCH   3  29
ATOM     29  C   UNL d   1     -54.713-102.158 -40.100  0.00  0.00     0.090 C 
BRANCH  29  30
ATOM     30  C   UNL d   1     -55.122-102.350 -39.401  0.00  0.00     0.045 A 
ATOM     31  C   UNL d   1     -55.945-102.197 -39.353  0.00  0.00     0.141 A 
ATOM     32  F   UNL d   1     -56.349-101.857 -39.999  0.00  0.00    -0.204 F 
ATOM     33  C   UNL d   1     -56.360-102.388 -38.652  0.00  0.00     0.030 A 
ATOM     34  C   UNL d   1     -55.954-102.728 -38.009  0.00  0.00     0.002 A 
ATOM     35  C   UNL d   1     -55.133-102.878 -38.063  0.00  0.00     0.000 A 
ATOM     36  C   UNL d   1     -54.723-102.686 -38.763  0.00  0.00     0.004 A 
ENDBRANCH  29  30
ENDBRANCH   3  29
TORSDOF 7
ENDMDL
MODEL 2
REMARK VINA RESULT:      97.0      1.853      6.092
REMARK  7 active torsions:
REMARK  status: ('A' for Active; 'I' for Inactive)
REMARK    1  A    between atoms: C_10  and  N_3 
REMARK    2  A    between atoms: C_12  and  C_10 
REMARK    3  A    between atoms: C_16  and  N_11 
REMARK    4  A    between atoms: O_29  and  C_15 
REMARK    5  A    between atoms: C_27  and  C_16 
REMARK    6  A    between atoms: O_30  and  C_17 
REMARK    7  A    between atoms: C_23  and  C_27 
ROOT
ATOM      1  C   UNL d   1     -54.871-101.663 -42.400  0.00  0.00     0.191 A 
ATOM      2  C   UNL d   1     -54.865-100.860 -42.162  0.00  0.00     0.173 A 
ATOM      3  N   UNL d   1     -54.937-100.452 -43.538  0.00  0.00    -0.224 N 
ATOM      4  N   UNL d   1     -54.833-102.139 -41.726  0.00  0.00    -0.042 NA
ATOM      5  C   UNL d   1     -54.795-101.687 -40.895  0.00  0.00     0.722 A 
ATOM      6  N   UNL d   1     -54.909-101.875 -43.203  0.00  0.00    -0.240 N 
ATOM      7  C   UNL d   1     -54.943-101.255 -43.776  0.00  0.00     0.343 A 
ATOM      8  C   UNL d   1     -54.898-100.270 -42.728  0.00  0.00     0.288 A 
ATOM      9  N   UNL d   1     -54.824-100.855 -41.346  0.00  0.00    -0.132 N 
ATOM     10  N   UNL d   1     -54.754-101.668 -40.075  0.00  0.00    -0.139 N 
ATOM     11  O   UNL d   1     -54.982-101.463 -44.593  0.00  0.00    -0.245 OA
ATOM     12  O   UNL d   1     -54.892 -99.468 -42.490  0.00  0.00    -0.265 OA
ATOM     13  C   UNL d   1     -54.806-100.177 -40.883  0.00  0.00     0.100 A 
ATOM     14  C   UNL d   1     -54.915-102.678 -43.442  0.00  0.00     0.105 C 
ATOM     15  C   UNL d   1     -54.764-100.193 -40.045  0.00  0.00     0.039 A 
ATOM     16  C   UNL d   1     -54.737-100.956 -39.632  0.00  0.00     0.100 A 
ENDROOT
BRANCH  10  17
ATOM     17  C   UNL d   1     -54.716-102.094 -39.379  0.00  0.00     0.098 C 
BRANCH  17  18
ATOM     18  C   UNL d   1     -55.399-102.240 -38.955  0.00  0.00     0.020 C 
BRANCH  18  19
ATOM     19  C   UNL d   1     -55.387-102.199 -38.143  0.00  0.00     0.004 A 
ATOM     20  C   UNL d   1     -55.308-101.475 -37.777  0.00  0.00     0.026 A 
ATOM     21  C   UNL d   1     -55.295-101.429 -36.961  0.00  0.00     0.116 A 
ATOM     22  C   UNL d   1     -55.362-102.117 -36.514  0.00  0.00     0.116 A 
ATOM     23  C   UNL d   1     -55.440-102.837 -36.881  0.00  0.00     0.026 A 
ATOM     24  C   UNL d   1     -55.453-102.880 -37.702  0.00  0.00     0.002 A 
BRANCH  21  25
ATOM     25  O   UNL d   1     -55.215-100.703 -36.591  0.00  0.00    -0.326 OA
ATOM     26  C   UNL d   1     -54.747-100.628 -35.936  0.00  0.00     0.181 C 
ENDBRANCH  21  25
BRANCH  22  27
ATOM     27  O   UNL d   1     -55.328-101.869 -35.735  0.00  0.00    -0.326 OA
ATOM     28  C   UNL d   1     -56.012-101.720 -35.323  0.00  0.00     0.181 C 
ENDBRANCH  22  27
ENDBRANCH  18  19
ENDBRANCH  17  18
ENDBRANCH  10  17
BRANCH   3  29
ATOM     29  C   UNL d   1     -54.953 -99.636 -43.737  0.00  0.00     0.090 C 
BRANCH  29  30
ATOM     30  C   UNL d   1     -55.559 -99.345 -44.227  0.00  0.00     0.045 A 
ATOM     31  C   UNL d   1     -55.445 -99.336 -45.058  0.00  0.00     0.141 A 
ATOM     32  F   UNL d   1     -54.731 -99.615 -45.388  0.00  0.00    -0.204 F 
ATOM     33  C   UNL d   1     -56.051 -99.044 -45.556  0.00  0.00     0.030 A 
ATOM     34  C   UNL d   1     -56.762 -98.766 -45.223  0.00  0.00     0.002 A 
ATOM     35  C   UNL d   1     -56.870 -98.778 -44.394  0.00  0.00     0.000 A 
ATOM     36  C   UNL d   1     -56.264 -99.069 -43.902  0.00  0.00     0.004 A 
ENDBRANCH  29  30
ENDBRANCH   3  29
TORSDOF 7
ENDMDL
