MODEL 1
REMARK VINA RESULT:      60.9      0.000      0.000
REMARK  4 active torsions:
REMARK  status: ('A' for Active; 'I' for Inactive)
REMARK    1  A    between atoms: N_7  and  C_4 
REMARK    2  A    between atoms: N_9  and  N_7 
REMARK       I    between atoms: C_8  and  N_9 
REMARK    3  A    between atoms: C_11  and  C_8 
REMARK    4  A    between atoms: C_13  and  C_14 
ROOT
ATOM      1  C   UNL d   1     -50.195  27.924  34.026  0.00  0.00     0.297 C 
ATOM      2  N   UNL d   1     -50.187  27.118  33.856  0.00  0.00    -0.104 NA
ATOM      3  O   UNL d   1     -50.810  28.398  33.748  0.00  0.00    -0.264 OA
ENDROOT
BRANCH   1   4
ATOM      4  C   UNL d   1     -49.589  28.254  34.474  0.00  0.00     0.059 A 
ATOM      5  C   UNL d   1     -49.328  27.876  35.159  0.00  0.00     0.004 A 
ATOM      6  C   UNL d   1     -48.721  28.207  35.608  0.00  0.00    -0.004 A 
ATOM      7  C   UNL d   1     -48.377  28.916  35.371  0.00  0.00    -0.023 A 
ATOM      8  C   UNL d   1     -48.635  29.305  34.681  0.00  0.00    -0.004 A 
ATOM      9  C   UNL d   1     -49.239  28.970  34.239  0.00  0.00     0.004 A 
BRANCH   7  10
ATOM     10  C   UNL d   1     -47.767  29.242  35.830  0.00  0.00     0.019 C 
ATOM     11  C   UNL d   1     -48.085  29.378  36.567  0.00  0.00     0.004 C 
ATOM     12  C   UNL d   1     -47.116  29.269  35.300  0.00  0.00     0.004 C 
ATOM     13  C   UNL d   1     -47.169  29.563  36.287  0.00  0.00     0.004 C 
ENDBRANCH   7  10
ENDBRANCH   1   4
BRANCH   2  14
ATOM     14  N   UNL d   1     -50.792  26.787  33.408  0.00  0.00    -0.127 NA
BRANCH  14  15
ATOM     15  C   UNL d   1     -50.888  25.966  33.383  0.00  0.00     0.178 A 
ATOM     16  N   UNL d   1     -51.640  25.636  33.383  0.00  0.00    -0.240 N 
ATOM     17  C   UNL d   1     -51.734  24.825  33.359  0.00  0.00     0.343 A 
ATOM     18  C   UNL d   1     -52.303  26.127  33.409  0.00  0.00     0.105 C 
ATOM     19  N   UNL d   1     -51.071  24.334  33.333  0.00  0.00    -0.224 N 
ATOM     20  O   UNL d   1     -52.491  24.495  33.359  0.00  0.00    -0.245 OA
ATOM     21  C   UNL d   1     -50.308  24.650  33.331  0.00  0.00     0.271 A 
ATOM     22  C   UNL d   1     -51.165  23.513  33.307  0.00  0.00     0.107 C 
ATOM     23  C   UNL d   1     -50.225  25.476  33.357  0.00  0.00     0.101 A 
ATOM     24  O   UNL d   1     -49.652  24.165  33.306  0.00  0.00    -0.266 OA
ENDBRANCH  14  15
ENDBRANCH   2  14
TORSDOF 4
ENDMDL
