MODEL 1
REMARK VINA RESULT:      -4.1      0.000      0.000
REMARK  6 active torsions:
REMARK  status: ('A' for Active; 'I' for Inactive)
REMARK       I    between atoms: N_2  and  C_1 
REMARK       I    between atoms: N_4  and  C_1 
REMARK    1  A    between atoms: C_8  and  N_2 
REMARK    2  A    between atoms: C_3  and  C_5 
REMARK    3  A    between atoms: O_11  and  C_3 
REMARK    4  A    between atoms: C_14  and  N_4 
REMARK    5  A    between atoms: C_15  and  N_4 
REMARK    6  A    between atoms: C_16  and  O_11 
ROOT
ATOM      1  C   UNL d   1      58.941   0.233  29.872  0.00  0.00     0.064 A 
ATOM      2  C   UNL d   1      57.757   0.285  31.014  0.00  0.00     0.086 A 
ATOM      3  C   UNL d   1      58.164   0.022  29.675  0.00  0.00     0.007 A 
ATOM      4  C   UNL d   1      59.124   0.465  30.625  0.00  0.00     0.007 A 
ATOM      5  C   UNL d   1      57.573   0.052  30.260  0.00  0.00     0.019 A 
ATOM      6  C   UNL d   1      58.536   0.495  31.206  0.00  0.00     0.019 A 
ENDROOT
BRANCH   2   7
ATOM      7  N   UNL d   1      57.173   0.314  31.594  0.00  0.00    -0.192 NA
ATOM      8  C   UNL d   1      56.804  -0.389  31.839  0.00  0.00     0.354 C 
ATOM      9  N   UNL d   1      56.227  -0.359  32.412  0.00  0.00    -0.256 N 
ATOM     10  O   UNL d   1      57.027  -1.107  31.500  0.00  0.00    -0.244 OA
BRANCH   9  11
ATOM     11  C   UNL d   1      56.011   0.364  32.746  0.00  0.00     0.085 C 
ATOM     12  C   UNL d   1      55.386   0.401  33.289  0.00  0.00     0.021 C 
ENDBRANCH   9  11
BRANCH   9  13
ATOM     13  C   UNL d   1      55.859  -1.068  32.656  0.00  0.00     0.085 C 
ATOM     14  C   UNL d   1      55.963  -1.329  33.429  0.00  0.00     0.021 C 
ENDBRANCH   9  13
ENDBRANCH   2   7
BRANCH   1  15
ATOM     15  C   UNL d   1      59.526   0.205  29.300  0.00  0.00     0.300 C 
ATOM     16  O   UNL d   1      59.482   0.682  28.632  0.00  0.00    -0.259 OA
BRANCH  15  17
ATOM     17  O   UNL d   1      60.166  -0.306  29.397  0.00  0.00    -0.271 OA
BRANCH  17  18
ATOM     18  C   UNL d   1      60.741  -0.356  28.821  0.00  0.00     0.126 C 
ATOM     19  C   UNL d   1      61.133  -1.065  28.685  0.00  0.00     0.029 C 
ENDBRANCH  17  18
ENDBRANCH  15  17
ENDBRANCH   1  15
TORSDOF 6
ENDMDL
MODEL 2
REMARK VINA RESULT:      -3.9      1.112      1.470
REMARK  6 active torsions:
REMARK  status: ('A' for Active; 'I' for Inactive)
REMARK       I    between atoms: N_2  and  C_1 
REMARK       I    between atoms: N_4  and  C_1 
REMARK    1  A    between atoms: C_8  and  N_2 
REMARK    2  A    between atoms: C_3  and  C_5 
REMARK    3  A    between atoms: O_11  and  C_3 
REMARK    4  A    between atoms: C_14  and  N_4 
REMARK    5  A    between atoms: C_15  and  N_4 
REMARK    6  A    between atoms: C_16  and  O_11 
ROOT
ATOM      1  C   UNL d   1      57.922  -0.135  30.205  0.00  0.00     0.064 A 
ATOM      2  C   UNL d   1      56.915   0.033  31.496  0.00  0.00     0.086 A 
ATOM      3  C   UNL d   1      57.609   0.608  30.395  0.00  0.00     0.007 A 
ATOM      4  C   UNL d   1      57.736  -0.784  30.652  0.00  0.00     0.007 A 
ATOM      5  C   UNL d   1      57.101   0.682  31.049  0.00  0.00     0.019 A 
ATOM      6  C   UNL d   1      57.231  -0.710  31.303  0.00  0.00     0.019 A 
ENDROOT
BRANCH   2   7
ATOM      7  N   UNL d   1      56.412   0.105  32.145  0.00  0.00    -0.192 NA
ATOM      8  C   UNL d   1      56.720   0.357  32.874  0.00  0.00     0.354 C 
ATOM      9  N   UNL d   1      56.223   0.428  33.515  0.00  0.00    -0.256 N 
ATOM     10  O   UNL d   1      57.523   0.532  32.941  0.00  0.00    -0.244 OA
BRANCH   9  11
ATOM     11  C   UNL d   1      55.420   0.251  33.439  0.00  0.00     0.085 C 
ATOM     12  C   UNL d   1      54.881   0.514  34.010  0.00  0.00     0.021 C 
ENDBRANCH   9  11
BRANCH   9  13
ATOM     13  C   UNL d   1      56.536   0.682  34.247  0.00  0.00     0.085 C 
ATOM     14  C   UNL d   1      56.134   0.497  34.940  0.00  0.00     0.021 C 
ENDBRANCH   9  13
ENDBRANCH   2   7
BRANCH   1  15
ATOM     15  C   UNL d   1      58.422  -0.214  29.562  0.00  0.00     0.300 C 
ATOM     16  O   UNL d   1      58.275   0.195  28.864  0.00  0.00    -0.259 OA
BRANCH  15  17
ATOM     17  O   UNL d   1      59.080  -0.708  29.616  0.00  0.00    -0.271 OA
BRANCH  17  18
ATOM     18  C   UNL d   1      59.606  -0.759  28.995  0.00  0.00     0.126 C 
ATOM     19  C   UNL d   1      60.267  -1.246  29.048  0.00  0.00     0.029 C 
ENDBRANCH  17  18
ENDBRANCH  15  17
ENDBRANCH   1  15
TORSDOF 6
ENDMDL
MODEL 3
REMARK VINA RESULT:      -3.1      9.712     10.066
REMARK  6 active torsions:
REMARK  status: ('A' for Active; 'I' for Inactive)
REMARK       I    between atoms: N_2  and  C_1 
REMARK       I    between atoms: N_4  and  C_1 
REMARK    1  A    between atoms: C_8  and  N_2 
REMARK    2  A    between atoms: C_3  and  C_5 
REMARK    3  A    between atoms: O_11  and  C_3 
REMARK    4  A    between atoms: C_14  and  N_4 
REMARK    5  A    between atoms: C_15  and  N_4 
REMARK    6  A    between atoms: C_16  and  O_11 
ROOT
ATOM      1  C   UNL d   1      59.142  -9.803  31.533  0.00  0.00     0.064 A 
ATOM      2  C   UNL d   1      59.611  -9.784  33.111  0.00  0.00     0.086 A 
ATOM      3  C   UNL d   1      58.574  -9.781  32.136  0.00  0.00     0.007 A 
ATOM      4  C   UNL d   1      59.931  -9.816  31.714  0.00  0.00     0.007 A 
ATOM      5  C   UNL d   1      58.821  -9.771  32.929  0.00  0.00     0.019 A 
ATOM      6  C   UNL d   1      60.177  -9.806  32.504  0.00  0.00     0.019 A 
ENDROOT
BRANCH   2   7
ATOM      7  N   UNL d   1      59.857  -9.775  33.897  0.00  0.00    -0.192 NA
ATOM      8  C   UNL d   1      59.729  -9.095  34.357  0.00  0.00     0.354 C 
ATOM      9  N   UNL d   1      59.972  -9.086  35.134  0.00  0.00    -0.256 N 
ATOM     10  O   UNL d   1      59.356  -8.439  34.024  0.00  0.00    -0.244 OA
BRANCH   9  11
ATOM     11  C   UNL d   1      60.344  -9.747  35.459  0.00  0.00     0.085 C 
ATOM     12  C   UNL d   1      60.858  -9.660  36.103  0.00  0.00     0.021 C 
ENDBRANCH   9  11
BRANCH   9  13
ATOM     13  C   UNL d   1      59.841  -8.401  35.594  0.00  0.00     0.085 C 
ATOM     14  C   UNL d   1      59.469  -8.474  36.324  0.00  0.00     0.021 C 
ENDBRANCH   9  13
ENDBRANCH   2   7
BRANCH   1  15
ATOM     15  C   UNL d   1      58.903  -9.813  30.750  0.00  0.00     0.300 C 
ATOM     16  O   UNL d   1      59.458  -9.817  30.143  0.00  0.00    -0.259 OA
BRANCH  15  17
ATOM     17  O   UNL d   1      58.099  -9.817  30.569  0.00  0.00    -0.271 OA
BRANCH  17  18
ATOM     18  C   UNL d   1      57.854  -9.779  29.793  0.00  0.00     0.126 C 
ATOM     19  C   UNL d   1      57.057  -9.685  29.612  0.00  0.00     0.029 C 
ENDBRANCH  17  18
ENDBRANCH  15  17
ENDBRANCH   1  15
TORSDOF 6
ENDMDL
