MODEL 1
REMARK VINA RESULT:      -4.9      0.000      0.000
REMARK  8 active torsions:
REMARK  status: ('A' for Active; 'I' for Inactive)
REMARK    1  A    between atoms: C_11  and  N_1 
REMARK    2  A    between atoms: S_10  and  C_2 
REMARK    3  A    between atoms: N_8  and  C_9 
REMARK    4  A    between atoms: C_18  and  S_10 
REMARK    5  A    between atoms: C_19  and  C_11 
REMARK    6  A    between atoms: C_13  and  C_18 
REMARK    7  A    between atoms: O_20  and  C_13 
REMARK    8  A    between atoms: C_25  and  O_20 
ROOT
ATOM      1  N   UNL d   1     -38.873  14.382  18.542  0.00  0.00    -0.253 N 
ATOM      2  C   UNL d   1     -39.559  14.800  18.397  0.00  0.00     0.182 A 
ATOM      3  C   UNL d   1     -38.649  14.203  19.326  0.00  0.00     0.268 A 
ATOM      4  C   UNL d   1     -39.142  14.459  19.964  0.00  0.00     0.076 A 
ATOM      5  N   UNL d   1     -40.051  15.055  19.036  0.00  0.00    -0.222 NA
ATOM      6  C   UNL d   1     -39.838  14.883  19.812  0.00  0.00     0.088 A 
ATOM      7  C   UNL d   1     -38.913  14.276  20.749  0.00  0.00     0.024 A 
ATOM      8  C   UNL d   1     -39.397  14.528  21.369  0.00  0.00     0.065 A 
ATOM      9  O   UNL d   1     -37.956  13.780  19.478  0.00  0.00    -0.267 OA
ATOM     10  C   UNL d   1     -40.306  15.125  20.443  0.00  0.00     0.021 A 
ATOM     11  C   UNL d   1     -40.094  14.952  21.221  0.00  0.00     0.019 A 
ENDROOT
BRANCH   1  12
ATOM     12  C   UNL d   1     -38.394  14.133  17.920  0.00  0.00     0.085 C 
BRANCH  12  13
ATOM     13  C   UNL d   1     -38.355  13.334  17.725  0.00  0.00     0.018 A 
ATOM     14  C   UNL d   1     -37.975  12.810  18.227  0.00  0.00     0.002 A 
ATOM     15  C   UNL d   1     -37.940  12.010  18.023  0.00  0.00     0.000 A 
ATOM     16  C   UNL d   1     -38.285  11.747  17.325  0.00  0.00     0.000 A 
ATOM     17  C   UNL d   1     -38.666  12.273  16.824  0.00  0.00     0.000 A 
ATOM     18  C   UNL d   1     -38.700  13.071  17.027  0.00  0.00     0.002 A 
ENDBRANCH  12  13
ENDBRANCH   1  12
BRANCH   2  19
ATOM     19  S   UNL d   1     -39.779  14.976  17.628  0.00  0.00    -0.044 SA
BRANCH  19  20
ATOM     20  C   UNL d   1     -40.273  15.612  17.476  0.00  0.00     0.107 C 
BRANCH  20  21
ATOM     21  C   UNL d   1     -40.698  15.657  16.764  0.00  0.00     0.307 C 
ATOM     22  O   UNL d   1     -40.305  15.700  16.045  0.00  0.00    -0.258 OA
BRANCH  21  23
ATOM     23  O   UNL d   1     -41.516  15.659  16.784  0.00  0.00    -0.271 OA
BRANCH  23  24
ATOM     24  C   UNL d   1     -41.945  15.578  16.086  0.00  0.00     0.126 C 
ATOM     25  C   UNL d   1     -42.699  15.919  16.016  0.00  0.00     0.029 C 
ENDBRANCH  23  24
ENDBRANCH  21  23
ENDBRANCH  20  21
ENDBRANCH  19  20
ENDBRANCH   2  19
BRANCH   8  26
ATOM     26  N   UNL d   1     -39.181  14.354  22.144  0.00  0.00    -0.300 N 
ATOM     27  C   UNL d   1     -39.320  13.605  22.453  0.00  0.00     0.107 A 
ATOM     28  C   UNL d   1     -39.103  13.432  23.234  0.00  0.00     0.142 A 
ATOM     29  O   UNL d   1     -38.748  14.010  23.698  0.00  0.00    -0.300 OA
ATOM     30  C   UNL d   1     -38.609  14.757  23.390  0.00  0.00     0.142 A 
ATOM     31  C   UNL d   1     -38.823  14.931  22.619  0.00  0.00     0.107 A 
ENDBRANCH   8  26
TORSDOF 8
ENDMDL
MODEL 2
REMARK VINA RESULT:      -4.2      2.230      4.895
REMARK  8 active torsions:
REMARK  status: ('A' for Active; 'I' for Inactive)
REMARK    1  A    between atoms: C_11  and  N_1 
REMARK    2  A    between atoms: S_10  and  C_2 
REMARK    3  A    between atoms: N_8  and  C_9 
REMARK    4  A    between atoms: C_18  and  S_10 
REMARK    5  A    between atoms: C_19  and  C_11 
REMARK    6  A    between atoms: C_13  and  C_18 
REMARK    7  A    between atoms: O_20  and  C_13 
REMARK    8  A    between atoms: C_25  and  O_20 
ROOT
ATOM      1  N   UNL d   1     -40.436  14.854  20.636  0.00  0.00    -0.253 N 
ATOM      2  C   UNL d   1     -40.972  14.261  20.473  0.00  0.00     0.182 A 
ATOM      3  C   UNL d   1     -39.969  15.176  20.023  0.00  0.00     0.268 A 
ATOM      4  C   UNL d   1     -40.059  14.879  19.235  0.00  0.00     0.076 A 
ATOM      5  N   UNL d   1     -41.062  13.965  19.686  0.00  0.00    -0.222 NA
ATOM      6  C   UNL d   1     -40.606  14.277  19.075  0.00  0.00     0.088 A 
ATOM      7  C   UNL d   1     -39.589  15.206  18.625  0.00  0.00     0.024 A 
ATOM      8  C   UNL d   1     -39.680  14.914  17.858  0.00  0.00     0.065 A 
ATOM      9  O   UNL d   1     -39.424  15.777  20.182  0.00  0.00    -0.267 OA
ATOM     10  C   UNL d   1     -40.682  13.999  18.305  0.00  0.00     0.021 A 
ATOM     11  C   UNL d   1     -40.225  14.311  17.693  0.00  0.00     0.019 A 
ENDROOT
BRANCH   1  12
ATOM     12  C   UNL d   1     -40.348  15.142  21.401  0.00  0.00     0.085 C 
BRANCH  12  13
ATOM     13  C   UNL d   1     -39.689  14.930  21.848  0.00  0.00     0.018 A 
ATOM     14  C   UNL d   1     -39.547  14.142  22.016  0.00  0.00     0.002 A 
ATOM     15  C   UNL d   1     -38.883  13.938  22.465  0.00  0.00     0.000 A 
ATOM     16  C   UNL d   1     -38.374  14.524  22.736  0.00  0.00     0.000 A 
ATOM     17  C   UNL d   1     -38.518  15.313  22.566  0.00  0.00     0.000 A 
ATOM     18  C   UNL d   1     -39.180  15.516  22.119  0.00  0.00     0.002 A 
ENDBRANCH  12  13
ENDBRANCH   1  12
BRANCH   2  19
ATOM     19  S   UNL d   1     -41.430  13.944  21.074  0.00  0.00    -0.044 SA
BRANCH  19  20
ATOM     20  C   UNL d   1     -42.187  13.670  20.914  0.00  0.00     0.107 C 
BRANCH  20  21
ATOM     21  C   UNL d   1     -42.532  13.082  21.388  0.00  0.00     0.307 C 
ATOM     22  O   UNL d   1     -42.187  12.341  21.453  0.00  0.00    -0.258 OA
BRANCH  21  23
ATOM     23  O   UNL d   1     -43.224  13.249  21.793  0.00  0.00    -0.271 OA
BRANCH  23  24
ATOM     24  C   UNL d   1     -43.938  13.293  21.385  0.00  0.00     0.126 C 
ATOM     25  C   UNL d   1     -44.657  13.283  21.800  0.00  0.00     0.029 C 
ENDBRANCH  23  24
ENDBRANCH  21  23
ENDBRANCH  20  21
ENDBRANCH  19  20
ENDBRANCH   2  19
BRANCH   8  26
ATOM     26  N   UNL d   1     -39.222  15.228  17.250  0.00  0.00    -0.300 N 
ATOM     27  C   UNL d   1     -39.582  15.531  16.576  0.00  0.00     0.107 A 
ATOM     28  C   UNL d   1     -39.120  15.846  15.965  0.00  0.00     0.142 A 
ATOM     29  O   UNL d   1     -38.301  15.855  16.035  0.00  0.00    -0.300 OA
ATOM     30  C   UNL d   1     -37.941  15.553  16.707  0.00  0.00     0.142 A 
ATOM     31  C   UNL d   1     -38.396  15.241  17.312  0.00  0.00     0.107 A 
ENDBRANCH   8  26
TORSDOF 8
ENDMDL
MODEL 3
REMARK VINA RESULT:      -2.7      1.826      5.293
REMARK  8 active torsions:
REMARK  status: ('A' for Active; 'I' for Inactive)
REMARK    1  A    between atoms: C_11  and  N_1 
REMARK    2  A    between atoms: S_10  and  C_2 
REMARK    3  A    between atoms: N_8  and  C_9 
REMARK    4  A    between atoms: C_18  and  S_10 
REMARK    5  A    between atoms: C_19  and  C_11 
REMARK    6  A    between atoms: C_13  and  C_18 
REMARK    7  A    between atoms: O_20  and  C_13 
REMARK    8  A    between atoms: C_25  and  O_20 
ROOT
ATOM      1  N   UNL d   1     -40.171  15.104  19.879  0.00  0.00    -0.253 N 
ATOM      2  C   UNL d   1     -39.510  14.969  20.337  0.00  0.00     0.182 A 
ATOM      3  C   UNL d   1     -40.122  15.050  19.047  0.00  0.00     0.268 A 
ATOM      4  C   UNL d   1     -39.380  14.854  18.689  0.00  0.00     0.076 A 
ATOM      5  N   UNL d   1     -38.769  14.773  19.979  0.00  0.00    -0.222 NA
ATOM      6  C   UNL d   1     -38.711  14.718  19.159  0.00  0.00     0.088 A 
ATOM      7  C   UNL d   1     -39.337  14.801  17.855  0.00  0.00     0.024 A 
ATOM      8  C   UNL d   1     -38.611  14.610  17.509  0.00  0.00     0.065 A 
ATOM      9  O   UNL d   1     -40.788  15.185  18.578  0.00  0.00    -0.267 OA
ATOM     10  C   UNL d   1     -37.998  14.529  18.797  0.00  0.00     0.021 A 
ATOM     11  C   UNL d   1     -37.940  14.473  17.976  0.00  0.00     0.019 A 
ENDROOT
BRANCH   1  12
ATOM     12  C   UNL d   1     -40.891  15.294  20.227  0.00  0.00     0.085 C 
BRANCH  12  13
ATOM     13  C   UNL d   1     -41.404  14.695  20.467  0.00  0.00     0.018 A 
ATOM     14  C   UNL d   1     -41.794  14.757  21.184  0.00  0.00     0.002 A 
ATOM     15  C   UNL d   1     -42.307  14.151  21.417  0.00  0.00     0.000 A 
ATOM     16  C   UNL d   1     -42.420  13.497  20.932  0.00  0.00     0.000 A 
ATOM     17  C   UNL d   1     -42.027  13.438  20.214  0.00  0.00     0.000 A 
ATOM     18  C   UNL d   1     -41.516  14.041  19.982  0.00  0.00     0.002 A 
ENDBRANCH  12  13
ENDBRANCH   1  12
BRANCH   2  19
ATOM     19  S   UNL d   1     -39.557  15.022  21.154  0.00  0.00    -0.044 SA
BRANCH  19  20
ATOM     20  C   UNL d   1     -38.881  15.162  21.597  0.00  0.00     0.107 C 
BRANCH  20  21
ATOM     21  C   UNL d   1     -38.919  15.194  22.427  0.00  0.00     0.307 C 
ATOM     22  O   UNL d   1     -39.031  15.909  22.813  0.00  0.00    -0.258 OA
BRANCH  21  23
ATOM     23  O   UNL d   1     -38.844  14.503  22.858  0.00  0.00    -0.271 OA
BRANCH  23  24
ATOM     24  C   UNL d   1     -38.329  14.473  23.499  0.00  0.00     0.126 C 
ATOM     25  C   UNL d   1     -37.943  13.763  23.693  0.00  0.00     0.029 C 
ENDBRANCH  23  24
ENDBRANCH  21  23
ENDBRANCH  20  21
ENDBRANCH  19  20
ENDBRANCH   2  19
BRANCH   8  26
ATOM     26  N   UNL d   1     -38.557  14.555  16.690  0.00  0.00    -0.300 N 
ATOM     27  C   UNL d   1     -38.618  13.824  16.320  0.00  0.00     0.107 A 
ATOM     28  C   UNL d   1     -38.564  13.770  15.494  0.00  0.00     0.142 A 
ATOM     29  O   UNL d   1     -38.448  14.450  15.047  0.00  0.00    -0.300 OA
ATOM     30  C   UNL d   1     -38.387  15.180  15.416  0.00  0.00     0.142 A 
ATOM     31  C   UNL d   1     -38.441  15.236  16.231  0.00  0.00     0.107 A 
ENDBRANCH   8  26
TORSDOF 8
ENDMDL
MODEL 4
REMARK VINA RESULT:      -2.4      7.159      8.518
REMARK  8 active torsions:
REMARK  status: ('A' for Active; 'I' for Inactive)
REMARK    1  A    between atoms: C_11  and  N_1 
REMARK    2  A    between atoms: S_10  and  C_2 
REMARK    3  A    between atoms: N_8  and  C_9 
REMARK    4  A    between atoms: C_18  and  S_10 
REMARK    5  A    between atoms: C_19  and  C_11 
REMARK    6  A    between atoms: C_13  and  C_18 
REMARK    7  A    between atoms: O_20  and  C_13 
REMARK    8  A    between atoms: C_25  and  O_20 
ROOT
ATOM      1  N   UNL d   1     -45.444  12.333  22.793  0.00  0.00    -0.253 N 
ATOM      2  C   UNL d   1     -45.176  12.611  22.074  0.00  0.00     0.182 A 
ATOM      3  C   UNL d   1     -46.259  12.351  22.972  0.00  0.00     0.268 A 
ATOM      4  C   UNL d   1     -46.801  12.660  22.399  0.00  0.00     0.076 A 
ATOM      5  N   UNL d   1     -45.718  12.919  21.502  0.00  0.00    -0.222 NA
ATOM      6  C   UNL d   1     -46.524  12.940  21.669  0.00  0.00     0.088 A 
ATOM      7  C   UNL d   1     -47.617  12.675  22.583  0.00  0.00     0.024 A 
ATOM      8  C   UNL d   1     -48.142  12.977  22.021  0.00  0.00     0.065 A 
ATOM      9  O   UNL d   1     -46.536  12.072  23.698  0.00  0.00    -0.267 OA
ATOM     10  C   UNL d   1     -47.062  13.237  21.124  0.00  0.00     0.021 A 
ATOM     11  C   UNL d   1     -47.869  13.259  21.290  0.00  0.00     0.019 A 
ENDROOT
BRANCH   1  12
ATOM     12  C   UNL d   1     -44.917  12.034  23.350  0.00  0.00     0.085 C 
BRANCH  12  13
ATOM     13  C   UNL d   1     -44.837  11.219  23.444  0.00  0.00     0.018 A 
ATOM     14  C   UNL d   1     -45.498  10.759  23.589  0.00  0.00     0.002 A 
ATOM     15  C   UNL d   1     -45.409   9.942  23.682  0.00  0.00     0.000 A 
ATOM     16  C   UNL d   1     -44.663   9.601  23.629  0.00  0.00     0.000 A 
ATOM     17  C   UNL d   1     -44.002  10.064  23.484  0.00  0.00     0.000 A 
ATOM     18  C   UNL d   1     -44.091  10.878  23.391  0.00  0.00     0.002 A 
ENDBRANCH  12  13
ENDBRANCH   1  12
BRANCH   2  19
ATOM     19  S   UNL d   1     -44.376  12.593  21.898  0.00  0.00    -0.044 SA
BRANCH  19  20
ATOM     20  C   UNL d   1     -44.018  13.239  21.541  0.00  0.00     0.107 C 
BRANCH  20  21
ATOM     21  C   UNL d   1     -43.258  13.174  21.214  0.00  0.00     0.307 C 
ATOM     22  O   UNL d   1     -43.069  12.549  20.717  0.00  0.00    -0.258 OA
BRANCH  21  23
ATOM     23  O   UNL d   1     -42.695  13.741  21.392  0.00  0.00    -0.271 OA
BRANCH  23  24
ATOM     24  C   UNL d   1     -42.065  13.869  20.878  0.00  0.00     0.126 C 
ATOM     25  C   UNL d   1     -41.541  14.500  21.008  0.00  0.00     0.029 C 
ENDBRANCH  23  24
ENDBRANCH  21  23
ENDBRANCH  20  21
ENDBRANCH  19  20
ENDBRANCH   2  19
BRANCH   8  26
ATOM     26  N   UNL d   1     -48.947  12.997  22.191  0.00  0.00    -0.300 N 
ATOM     27  C   UNL d   1     -49.243  13.548  22.724  0.00  0.00     0.107 A 
ATOM     28  C   UNL d   1     -50.054  13.567  22.895  0.00  0.00     0.142 A 
ATOM     29  O   UNL d   1     -50.561  13.033  22.530  0.00  0.00    -0.300 OA
ATOM     30  C   UNL d   1     -50.266  12.482  21.998  0.00  0.00     0.142 A 
ATOM     31  C   UNL d   1     -49.465  12.462  21.828  0.00  0.00     0.107 A 
ENDBRANCH   8  26
TORSDOF 8
ENDMDL
MODEL 5
REMARK VINA RESULT:      -2.0      2.448      4.175
REMARK  8 active torsions:
REMARK  status: ('A' for Active; 'I' for Inactive)
REMARK    1  A    between atoms: C_11  and  N_1 
REMARK    2  A    between atoms: S_10  and  C_2 
REMARK    3  A    between atoms: N_8  and  C_9 
REMARK    4  A    between atoms: C_18  and  S_10 
REMARK    5  A    between atoms: C_19  and  C_11 
REMARK    6  A    between atoms: C_13  and  C_18 
REMARK    7  A    between atoms: O_20  and  C_13 
REMARK    8  A    between atoms: C_25  and  O_20 
ROOT
ATOM      1  N   UNL d   1     -39.546  14.072  21.048  0.00  0.00    -0.253 N 
ATOM      2  C   UNL d   1     -39.648  14.393  20.304  0.00  0.00     0.182 A 
ATOM      3  C   UNL d   1     -40.188  13.711  21.440  0.00  0.00     0.268 A 
ATOM      4  C   UNL d   1     -40.943  13.683  21.057  0.00  0.00     0.076 A 
ATOM      5  N   UNL d   1     -40.402  14.365  19.922  0.00  0.00    -0.222 NA
ATOM      6  C   UNL d   1     -41.042  14.011  20.302  0.00  0.00     0.088 A 
ATOM      7  C   UNL d   1     -41.583  13.321  21.455  0.00  0.00     0.024 A 
ATOM      8  C   UNL d   1     -42.318  13.295  21.079  0.00  0.00     0.065 A 
ATOM      9  O   UNL d   1     -40.091  13.385  22.193  0.00  0.00    -0.267 OA
ATOM     10  C   UNL d   1     -41.780  13.976  19.944  0.00  0.00     0.021 A 
ATOM     11  C   UNL d   1     -42.422  13.621  20.323  0.00  0.00     0.019 A 
ENDROOT
BRANCH   1  12
ATOM     12  C   UNL d   1     -38.812  14.100  21.419  0.00  0.00     0.085 C 
BRANCH  12  13
ATOM     13  C   UNL d   1     -38.688  14.618  22.048  0.00  0.00     0.018 A 
ATOM     14  C   UNL d   1     -38.934  15.396  21.988  0.00  0.00     0.002 A 
ATOM     15  C   UNL d   1     -38.805  15.909  22.624  0.00  0.00     0.000 A 
ATOM     16  C   UNL d   1     -38.435  15.637  23.305  0.00  0.00     0.000 A 
ATOM     17  C   UNL d   1     -38.189  14.856  23.362  0.00  0.00     0.000 A 
ATOM     18  C   UNL d   1     -38.317  14.345  22.729  0.00  0.00     0.002 A 
ENDBRANCH  12  13
ENDBRANCH   1  12
BRANCH   2  19
ATOM     19  S   UNL d   1     -39.018  14.747  19.918  0.00  0.00    -0.044 SA
BRANCH  19  20
ATOM     20  C   UNL d   1     -39.046  14.867  19.108  0.00  0.00     0.107 C 
BRANCH  20  21
ATOM     21  C   UNL d   1     -38.381  15.153  18.699  0.00  0.00     0.307 C 
ATOM     22  O   UNL d   1     -37.953  15.788  18.992  0.00  0.00    -0.258 OA
BRANCH  21  23
ATOM     23  O   UNL d   1     -38.156  14.794  18.000  0.00  0.00    -0.271 OA
BRANCH  23  24
ATOM     24  C   UNL d   1     -37.940  15.256  17.353  0.00  0.00     0.126 C 
ATOM     25  C   UNL d   1     -38.001  14.951  16.583  0.00  0.00     0.029 C 
ENDBRANCH  23  24
ENDBRANCH  21  23
ENDBRANCH  20  21
ENDBRANCH  19  20
ENDBRANCH   2  19
BRANCH   8  26
ATOM     26  N   UNL d   1     -42.955  12.941  21.461  0.00  0.00    -0.300 N 
ATOM     27  C   UNL d   1     -42.863  12.210  21.825  0.00  0.00     0.107 A 
ATOM     28  C   UNL d   1     -43.506  11.854  22.210  0.00  0.00     0.142 A 
ATOM     29  O   UNL d   1     -44.234  12.234  22.226  0.00  0.00    -0.300 OA
ATOM     30  C   UNL d   1     -44.326  12.963  21.862  0.00  0.00     0.142 A 
ATOM     31  C   UNL d   1     -43.693  13.317  21.482  0.00  0.00     0.107 A 
ENDBRANCH   8  26
TORSDOF 8
ENDMDL
