MODEL 1
REMARK VINA RESULT:      -4.9      0.000      0.000
REMARK  4 active torsions:
REMARK  status: ('A' for Active; 'I' for Inactive)
REMARK    1  A    between atoms: S_9  and  C_1 
REMARK       I    between atoms: N_4  and  C_5 
REMARK    2  A    between atoms: C_5  and  C_13 
REMARK    3  A    between atoms: C_8  and  C_10 
REMARK    4  A    between atoms: C_13  and  S_9 
ROOT
ATOM      1  N   UNL d   1      56.501  -0.513  32.192  0.00  0.00    -0.272 N 
ATOM      2  C   UNL d   1      56.929  -0.818  31.607  0.00  0.00     0.271 C 
ATOM      3  C   UNL d   1      55.631   0.146  33.394  0.00  0.00     0.062 A 
ATOM      4  C   UNL d   1      56.567   0.257  32.378  0.00  0.00     0.083 A 
ATOM      5  C   UNL d   1      55.959  -0.947  32.655  0.00  0.00     0.083 A 
ATOM      6  O   UNL d   1      56.858  -1.569  31.432  0.00  0.00    -0.266 OA
ATOM      7  C   UNL d   1      56.149   0.604  32.966  0.00  0.00     0.024 A 
ATOM      8  C   UNL d   1      55.519  -0.642  33.254  0.00  0.00     0.024 A 
ENDROOT
BRANCH   2   9
ATOM      9  C   UNL d   1      57.456  -0.369  31.165  0.00  0.00     0.098 C 
BRANCH   9  10
ATOM     10  S   UNL d   1      57.761  -0.722  30.460  0.00  0.00    -0.056 SA
BRANCH  10  11
ATOM     11  C   UNL d   1      58.433  -0.401  30.134  0.00  0.00     0.141 A 
ATOM     12  N   UNL d   1      59.100  -0.204  30.542  0.00  0.00    -0.232 NA
ATOM     13  C   UNL d   1      59.609   0.101  29.919  0.00  0.00     0.088 A 
ATOM     14  C   UNL d   1      60.431   0.408  30.037  0.00  0.00     0.020 A 
ATOM     15  C   UNL d   1      59.235   0.074  29.184  0.00  0.00     0.049 A 
ATOM     16  C   UNL d   1      60.841   0.682  29.366  0.00  0.00     0.002 A 
ATOM     17  C   UNL d   1      60.457   0.659  28.581  0.00  0.00     0.001 A 
ATOM     18  C   UNL d   1      59.682   0.362  28.516  0.00  0.00     0.008 A 
ATOM     19  S   UNL d   1      58.512  -0.235  29.318  0.00  0.00    -0.060 SA
ENDBRANCH  10  11
ENDBRANCH   9  10
ENDBRANCH   2   9
BRANCH   3  20
ATOM     20  C   UNL d   1      55.181   0.520  34.028  0.00  0.00     0.297 C 
ATOM     21  O   UNL d   1      54.406   0.676  33.884  0.00  0.00    -0.264 OA
ATOM     22  N   UNL d   1      55.569   0.682  34.709  0.00  0.00    -0.102 N 
ENDBRANCH   3  20
TORSDOF 4
ENDMDL
MODEL 2
REMARK VINA RESULT:      -4.7      1.919      5.371
REMARK  4 active torsions:
REMARK  status: ('A' for Active; 'I' for Inactive)
REMARK    1  A    between atoms: S_9  and  C_1 
REMARK       I    between atoms: N_4  and  C_5 
REMARK    2  A    between atoms: C_5  and  C_13 
REMARK    3  A    between atoms: C_8  and  C_10 
REMARK    4  A    between atoms: C_13  and  S_9 
ROOT
ATOM      1  N   UNL d   1      58.873  -0.676  29.637  0.00  0.00    -0.272 N 
ATOM      2  C   UNL d   1      58.418  -0.131  29.973  0.00  0.00     0.271 C 
ATOM      3  C   UNL d   1      59.798  -1.826  28.959  0.00  0.00     0.062 A 
ATOM      4  C   UNL d   1      58.767  -1.446  29.804  0.00  0.00     0.083 A 
ATOM      5  C   UNL d   1      59.487  -0.510  29.095  0.00  0.00     0.083 A 
ATOM      6  O   UNL d   1      58.528   0.617  29.805  0.00  0.00    -0.266 OA
ATOM      7  C   UNL d   1      59.211  -2.031  29.482  0.00  0.00     0.024 A 
ATOM      8  C   UNL d   1      59.955  -1.061  28.748  0.00  0.00     0.024 A 
ENDROOT
BRANCH   2   9
ATOM      9  C   UNL d   1      57.820  -0.321  30.504  0.00  0.00     0.098 C 
BRANCH   9  10
ATOM     10  S   UNL d   1      57.528   0.306  30.989  0.00  0.00    -0.056 SA
BRANCH  10  11
ATOM     11  C   UNL d   1      57.019   0.114  31.593  0.00  0.00     0.141 A 
ATOM     12  N   UNL d   1      56.790  -0.635  31.789  0.00  0.00    -0.232 NA
ATOM     13  C   UNL d   1      56.263  -0.496  32.454  0.00  0.00     0.088 A 
ATOM     14  C   UNL d   1      55.836  -1.125  32.907  0.00  0.00     0.020 A 
ATOM     15  C   UNL d   1      56.200   0.309  32.624  0.00  0.00     0.049 A 
ATOM     16  C   UNL d   1      55.347  -0.883  33.536  0.00  0.00     0.002 A 
ATOM     17  C   UNL d   1      55.271  -0.034  33.728  0.00  0.00     0.001 A 
ATOM     18  C   UNL d   1      55.692   0.525  33.275  0.00  0.00     0.008 A 
ATOM     19  S   UNL d   1      56.666   0.682  32.094  0.00  0.00    -0.060 SA
ENDBRANCH  10  11
ENDBRANCH   9  10
ENDBRANCH   2   9
BRANCH   3  20
ATOM     20  C   UNL d   1      60.275  -2.456  28.612  0.00  0.00     0.297 C 
ATOM     21  O   UNL d   1      61.050  -2.295  28.473  0.00  0.00    -0.264 OA
ATOM     22  N   UNL d   1      59.909  -3.150  28.455  0.00  0.00    -0.102 N 
ENDBRANCH   3  20
TORSDOF 4
ENDMDL
MODEL 3
REMARK VINA RESULT:      -4.3      2.025      2.364
REMARK  4 active torsions:
REMARK  status: ('A' for Active; 'I' for Inactive)
REMARK    1  A    between atoms: S_9  and  C_1 
REMARK       I    between atoms: N_4  and  C_5 
REMARK    2  A    between atoms: C_5  and  C_13 
REMARK    3  A    between atoms: C_8  and  C_10 
REMARK    4  A    between atoms: C_13  and  S_9 
ROOT
ATOM      1  N   UNL d   1      57.279  -0.040  31.224  0.00  0.00    -0.272 N 
ATOM      2  C   UNL d   1      57.794  -0.050  30.630  0.00  0.00     0.271 C 
ATOM      3  C   UNL d   1      56.217  -0.053  32.453  0.00  0.00     0.062 A 
ATOM      4  C   UNL d   1      57.051  -0.719  31.569  0.00  0.00     0.083 A 
ATOM      5  C   UNL d   1      56.935   0.652  31.539  0.00  0.00     0.083 A 
ATOM      6  O   UNL d   1      58.011   0.616  30.301  0.00  0.00    -0.266 OA
ATOM      7  C   UNL d   1      56.529  -0.750  32.176  0.00  0.00     0.024 A 
ATOM      8  C   UNL d   1      56.409   0.670  32.145  0.00  0.00     0.024 A 
ENDROOT
BRANCH   2   9
ATOM      9  C   UNL d   1      58.118  -0.746  30.338  0.00  0.00     0.098 C 
BRANCH   9  10
ATOM     10  S   UNL d   1      58.539  -0.694  29.607  0.00  0.00    -0.056 SA
BRANCH  10  11
ATOM     11  C   UNL d   1      58.926  -1.358  29.342  0.00  0.00     0.141 A 
ATOM     12  N   UNL d   1      58.578  -2.071  29.193  0.00  0.00    -0.232 NA
ATOM     13  C   UNL d   1      59.245  -2.547  28.934  0.00  0.00     0.088 A 
ATOM     14  C   UNL d   1      59.200  -3.397  28.690  0.00  0.00     0.020 A 
ATOM     15  C   UNL d   1      59.946  -2.112  28.939  0.00  0.00     0.049 A 
ATOM     16  C   UNL d   1      59.908  -3.769  28.455  0.00  0.00     0.002 A 
ATOM     17  C   UNL d   1      60.658  -3.319  28.456  0.00  0.00     0.001 A 
ATOM     18  C   UNL d   1      60.653  -2.521  28.693  0.00  0.00     0.008 A 
ATOM     19  S   UNL d   1      59.747  -1.381  29.190  0.00  0.00    -0.060 SA
ENDBRANCH  10  11
ENDBRANCH   9  10
ENDBRANCH   2   9
BRANCH   3  20
ATOM     20  C   UNL d   1      55.655  -0.086  33.107  0.00  0.00     0.297 C 
ATOM     21  O   UNL d   1      55.394  -0.813  33.330  0.00  0.00    -0.264 OA
ATOM     22  N   UNL d   1      55.437   0.608  33.439  0.00  0.00    -0.102 N 
ENDBRANCH   3  20
TORSDOF 4
ENDMDL
