MODEL 1
REMARK VINA RESULT:      -7.7      0.000      0.000
REMARK  4 active torsions:
REMARK  status: ('A' for Active; 'I' for Inactive)
REMARK    1  A    between atoms: C_10  and  N_2 
REMARK    2  A    between atoms: N_6  and  C_3 
REMARK    3  A    between atoms: N_7  and  N_6 
REMARK    4  A    between atoms: C_11  and  N_7 
ROOT
ATOM      1  C   UNL d   1     -46.298  11.735  23.340  0.00  0.00     0.206 A 
ATOM      2  N   UNL d   1     -45.510  11.944  23.186  0.00  0.00    -0.209 N 
ATOM      3  C   UNL d   1     -46.741  12.435  23.231  0.00  0.00     0.160 A 
ATOM      4  N   UNL d   1     -45.471  12.717  22.996  0.00  0.00    -0.162 NA
ATOM      5  C   UNL d   1     -46.221  13.035  23.019  0.00  0.00     0.124 A 
ATOM      6  N   UNL d   1     -46.594  10.991  23.558  0.00  0.00    -0.125 N 
ATOM      7  C   UNL d   1     -46.436  13.826  22.858  0.00  0.00     0.024 C 
ENDROOT
BRANCH   3   8
ATOM      8  N   UNL d   1     -47.532  12.574  23.303  0.00  0.00    -0.143 NA
BRANCH   8   9
ATOM      9  N   UNL d   1     -48.047  12.358  22.678  0.00  0.00    -0.148 NA
BRANCH   9  10
ATOM     10  C   UNL d   1     -48.872  12.395  22.799  0.00  0.00     0.103 A 
ATOM     11  C   UNL d   1     -49.389  12.492  22.157  0.00  0.00     0.019 A 
ATOM     12  C   UNL d   1     -50.193  12.528  22.266  0.00  0.00     0.002 A 
ATOM     13  C   UNL d   1     -49.072  12.552  21.380  0.00  0.00     0.002 C 
ATOM     14  C   UNL d   1     -50.706  12.625  21.624  0.00  0.00     0.000 C 
ATOM     15  C   UNL d   1     -50.477  12.466  23.037  0.00  0.00     0.000 A 
ATOM     16  C   UNL d   1     -49.982  12.372  23.667  0.00  0.00     0.002 A 
ATOM     17  C   UNL d   1     -49.169  12.337  23.544  0.00  0.00     0.021 A 
ENDBRANCH   9  10
ENDBRANCH   8   9
ENDBRANCH   3   8
BRANCH   2  18
ATOM     18  C   UNL d   1     -44.964  11.335  23.260  0.00  0.00     0.085 A 
ATOM     19  C   UNL d   1     -44.208  11.438  22.983  0.00  0.00     0.019 A 
ATOM     20  C   UNL d   1     -43.657  10.818  23.059  0.00  0.00     0.002 A 
ATOM     21  C   UNL d   1     -43.858  10.120  23.401  0.00  0.00     0.000 A 
ATOM     22  C   UNL d   1     -44.625  10.007  23.685  0.00  0.00     0.002 A 
ATOM     23  C   UNL d   1     -45.179  10.599  23.621  0.00  0.00     0.019 A 
ENDBRANCH   2  18
TORSDOF 4
ENDMDL
MODEL 2
REMARK VINA RESULT:      -7.2      1.719      5.055
REMARK  4 active torsions:
REMARK  status: ('A' for Active; 'I' for Inactive)
REMARK    1  A    between atoms: C_10  and  N_2 
REMARK    2  A    between atoms: N_6  and  C_3 
REMARK    3  A    between atoms: N_7  and  N_6 
REMARK    4  A    between atoms: C_11  and  N_7 
ROOT
ATOM      1  C   UNL d   1     -48.954  13.607  23.157  0.00  0.00     0.206 A 
ATOM      2  N   UNL d   1     -49.690  13.773  22.813  0.00  0.00    -0.209 N 
ATOM      3  C   UNL d   1     -48.724  12.865  22.849  0.00  0.00     0.160 A 
ATOM      4  N   UNL d   1     -49.899  13.177  22.328  0.00  0.00    -0.162 NA
ATOM      5  C   UNL d   1     -49.314  12.608  22.338  0.00  0.00     0.124 A 
ATOM      6  N   UNL d   1     -48.527  14.073  23.696  0.00  0.00    -0.125 N 
ATOM      7  C   UNL d   1     -49.305  11.891  21.911  0.00  0.00     0.024 C 
ENDROOT
BRANCH   3   8
ATOM      8  N   UNL d   1     -48.064  12.422  22.980  0.00  0.00    -0.143 NA
BRANCH   8   9
ATOM      9  N   UNL d   1     -47.312  12.792  22.980  0.00  0.00    -0.148 NA
BRANCH   9  10
ATOM     10  C   UNL d   1     -46.629  12.326  23.096  0.00  0.00     0.103 A 
ATOM     11  C   UNL d   1     -45.916  12.519  22.717  0.00  0.00     0.019 A 
ATOM     12  C   UNL d   1     -45.247  12.072  22.825  0.00  0.00     0.002 A 
ATOM     13  C   UNL d   1     -45.889  13.192  22.212  0.00  0.00     0.002 C 
ATOM     14  C   UNL d   1     -44.538  12.266  22.447  0.00  0.00     0.000 C 
ATOM     15  C   UNL d   1     -45.301  11.418  23.325  0.00  0.00     0.000 A 
ATOM     16  C   UNL d   1     -45.990  11.223  23.698  0.00  0.00     0.002 A 
ATOM     17  C   UNL d   1     -46.661  11.685  23.580  0.00  0.00     0.021 A 
ENDBRANCH   9  10
ENDBRANCH   8   9
ENDBRANCH   3   8
BRANCH   2  18
ATOM     18  C   UNL d   1     -50.030  14.486  23.038  0.00  0.00     0.085 A 
ATOM     19  C   UNL d   1     -50.720  14.485  23.466  0.00  0.00     0.019 A 
ATOM     20  C   UNL d   1     -51.061  15.210  23.692  0.00  0.00     0.002 A 
ATOM     21  C   UNL d   1     -50.724  15.911  23.496  0.00  0.00     0.000 A 
ATOM     22  C   UNL d   1     -50.021  15.922  23.061  0.00  0.00     0.002 A 
ATOM     23  C   UNL d   1     -49.670  15.226  22.829  0.00  0.00     0.019 A 
ENDBRANCH   2  18
TORSDOF 4
ENDMDL
MODEL 3
REMARK VINA RESULT:      -6.7      1.608      2.066
REMARK  4 active torsions:
REMARK  status: ('A' for Active; 'I' for Inactive)
REMARK    1  A    between atoms: C_10  and  N_2 
REMARK    2  A    between atoms: N_6  and  C_3 
REMARK    3  A    between atoms: N_7  and  N_6 
REMARK    4  A    between atoms: C_11  and  N_7 
ROOT
ATOM      1  C   UNL d   1     -46.439  13.220  22.706  0.00  0.00     0.206 A 
ATOM      2  N   UNL d   1     -45.984  12.529  22.754  0.00  0.00    -0.209 N 
ATOM      3  C   UNL d   1     -47.171  13.033  23.063  0.00  0.00     0.160 A 
ATOM      4  N   UNL d   1     -46.405  11.956  23.115  0.00  0.00    -0.162 NA
ATOM      5  C   UNL d   1     -47.139  12.250  23.312  0.00  0.00     0.124 A 
ATOM      6  N   UNL d   1     -46.223  13.951  22.375  0.00  0.00    -0.125 N 
ATOM      7  C   UNL d   1     -47.756  11.839  23.697  0.00  0.00     0.024 C 
ENDROOT
BRANCH   3   8
ATOM      8  N   UNL d   1     -47.831  13.480  23.179  0.00  0.00    -0.143 NA
BRANCH   8   9
ATOM      9  N   UNL d   1     -48.393  13.555  22.561  0.00  0.00    -0.148 NA
BRANCH   9  10
ATOM     10  C   UNL d   1     -49.009  14.112  22.637  0.00  0.00     0.103 A 
ATOM     11  C   UNL d   1     -49.661  14.093  22.122  0.00  0.00     0.019 A 
ATOM     12  C   UNL d   1     -50.265  14.631  22.188  0.00  0.00     0.002 A 
ATOM     13  C   UNL d   1     -49.694  13.504  21.522  0.00  0.00     0.002 C 
ATOM     14  C   UNL d   1     -50.913  14.610  21.675  0.00  0.00     0.000 C 
ATOM     15  C   UNL d   1     -50.209  15.198  22.785  0.00  0.00     0.000 A 
ATOM     16  C   UNL d   1     -49.579  15.223  23.289  0.00  0.00     0.002 A 
ATOM     17  C   UNL d   1     -48.974  14.672  23.212  0.00  0.00     0.021 A 
ENDBRANCH   9  10
ENDBRANCH   8   9
ENDBRANCH   3   8
BRANCH   2  18
ATOM     18  C   UNL d   1     -45.229  12.582  22.434  0.00  0.00     0.085 A 
ATOM     19  C   UNL d   1     -45.069  13.153  21.879  0.00  0.00     0.019 A 
ATOM     20  C   UNL d   1     -44.303  13.203  21.556  0.00  0.00     0.002 A 
ATOM     21  C   UNL d   1     -43.720  12.701  21.781  0.00  0.00     0.000 A 
ATOM     22  C   UNL d   1     -43.874  12.117  22.345  0.00  0.00     0.002 A 
ATOM     23  C   UNL d   1     -44.615  12.049  22.674  0.00  0.00     0.019 A 
ENDBRANCH   2  18
TORSDOF 4
ENDMDL
MODEL 4
REMARK VINA RESULT:      -5.1      0.856      4.761
REMARK  4 active torsions:
REMARK  status: ('A' for Active; 'I' for Inactive)
REMARK    1  A    between atoms: C_10  and  N_2 
REMARK    2  A    between atoms: N_6  and  C_3 
REMARK    3  A    between atoms: N_7  and  N_6 
REMARK    4  A    between atoms: C_11  and  N_7 
ROOT
ATOM      1  C   UNL d   1     -47.516  12.956  22.316  0.00  0.00     0.206 A 
ATOM      2  N   UNL d   1     -48.046  13.562  22.513  0.00  0.00    -0.209 N 
ATOM      3  C   UNL d   1     -46.767  13.216  22.582  0.00  0.00     0.160 A 
ATOM      4  N   UNL d   1     -47.653  14.154  22.875  0.00  0.00    -0.162 NA
ATOM      5  C   UNL d   1     -46.863  13.957  22.925  0.00  0.00     0.124 A 
ATOM      6  N   UNL d   1     -47.682  12.237  21.935  0.00  0.00    -0.125 N 
ATOM      7  C   UNL d   1     -46.253  14.417  23.262  0.00  0.00     0.024 C 
ENDROOT
BRANCH   3   8
ATOM      8  N   UNL d   1     -46.044  12.865  22.544  0.00  0.00    -0.143 NA
BRANCH   8   9
ATOM      9  N   UNL d   1     -45.923  12.126  22.921  0.00  0.00    -0.148 NA
BRANCH   9  10
ATOM     10  C   UNL d   1     -45.163  11.784  22.914  0.00  0.00     0.103 A 
ATOM     11  C   UNL d   1     -45.020  11.062  23.299  0.00  0.00     0.019 A 
ATOM     12  C   UNL d   1     -44.283  10.722  23.297  0.00  0.00     0.002 A 
ATOM     13  C   UNL d   1     -45.653  10.677  23.698  0.00  0.00     0.002 C 
ATOM     14  C   UNL d   1     -44.143  10.003  23.681  0.00  0.00     0.000 C 
ATOM     15  C   UNL d   1     -43.680  11.119  22.898  0.00  0.00     0.000 A 
ATOM     16  C   UNL d   1     -43.810  11.821  22.521  0.00  0.00     0.002 A 
ATOM     17  C   UNL d   1     -44.561  12.155  22.531  0.00  0.00     0.021 A 
ENDBRANCH   9  10
ENDBRANCH   8   9
ENDBRANCH   3   8
BRANCH   2  18
ATOM     18  C   UNL d   1     -48.828  13.427  22.303  0.00  0.00     0.085 A 
ATOM     19  C   UNL d   1     -49.322  13.041  22.819  0.00  0.00     0.019 A 
ATOM     20  C   UNL d   1     -50.115  12.905  22.601  0.00  0.00     0.002 A 
ATOM     21  C   UNL d   1     -50.401  13.148  21.893  0.00  0.00     0.000 A 
ATOM     22  C   UNL d   1     -49.906  13.541  21.361  0.00  0.00     0.002 A 
ATOM     23  C   UNL d   1     -49.129  13.684  21.552  0.00  0.00     0.019 A 
ENDBRANCH   2  18
TORSDOF 4
ENDMDL
