MODEL 1
REMARK VINA RESULT:      -1.7      0.000      0.000
REMARK  5 active torsions:
REMARK  status: ('A' for Active; 'I' for Inactive)
REMARK    1  A    between atoms: C_10  and  C_4 
REMARK    2  A    between atoms: N_12  and  C_5 
REMARK    3  A    between atoms: N_11  and  C_22 
REMARK    4  A    between atoms: C_21  and  N_12 
REMARK    5  A    between atoms: C_22  and  C_21 
ROOT
ATOM      1  N   UNL d   1      56.936  -1.142  31.524  0.00  0.00    -0.195 N 
ATOM      2  C   UNL d   1      56.909  -0.580  32.126  0.00  0.00     0.167 A 
ATOM      3  N   UNL d   1      56.321  -1.668  31.644  0.00  0.00    -0.163 NA
ATOM      4  C   UNL d   1      56.277  -0.764  32.613  0.00  0.00     0.055 A 
ATOM      5  C   UNL d   1      57.520  -1.099  30.944  0.00  0.00     0.167 A 
ATOM      6  C   UNL d   1      55.918  -1.427  32.321  0.00  0.00     0.104 A 
ATOM      7  N   UNL d   1      57.466   0.027  32.150  0.00  0.00    -0.227 NA
ATOM      8  C   UNL d   1      58.083  -0.486  30.968  0.00  0.00     0.058 A 
ATOM      9  C   UNL d   1      58.057   0.071  31.564  0.00  0.00     0.086 A 
ATOM     10  C   UNL d   1      55.254  -1.796  32.654  0.00  0.00     0.023 C 
ATOM     11  C   UNL d   1      58.628   0.682  31.577  0.00  0.00     0.021 C 
ENDROOT
BRANCH   5  12
ATOM     12  N   UNL d   1      57.547  -1.661  30.343  0.00  0.00    -0.224 NA
BRANCH  12  13
ATOM     13  C   UNL d   1      58.254  -1.812  29.949  0.00  0.00     0.120 C 
BRANCH  13  14
ATOM     14  C   UNL d   1      58.245  -2.137  29.182  0.00  0.00     0.101 C 
BRANCH  14  15
ATOM     15  N   UNL d   1      58.824  -2.675  28.960  0.00  0.00    -0.298 N 
ATOM     16  C   UNL d   1      59.620  -2.444  28.956  0.00  0.00     0.107 A 
ATOM     17  C   UNL d   1      60.200  -2.983  28.734  0.00  0.00     0.142 A 
ATOM     18  O   UNL d   1      59.999  -3.759  28.513  0.00  0.00    -0.300 OA
ATOM     19  C   UNL d   1      59.199  -3.991  28.518  0.00  0.00     0.142 A 
ATOM     20  C   UNL d   1      58.613  -3.451  28.741  0.00  0.00     0.107 A 
ENDBRANCH  14  15
ENDBRANCH  13  14
ENDBRANCH  12  13
ENDBRANCH   5  12
BRANCH   4  21
ATOM     21  C   UNL d   1      55.983  -0.400  33.298  0.00  0.00     0.004 A 
ATOM     22  C   UNL d   1      56.297  -0.606  34.038  0.00  0.00     0.001 A 
ATOM     23  C   UNL d   1      56.004  -0.244  34.718  0.00  0.00     0.011 A 
ATOM     24  C   UNL d   1      55.403   0.318  34.659  0.00  0.00     0.058 A 
ATOM     25  C   UNL d   1      55.088   0.525  33.929  0.00  0.00     0.011 A 
ATOM     26 CL   UNL d   1      55.112   0.679  35.349  0.00  0.00    -0.082 Cl
ATOM     27  C   UNL d   1      55.382   0.162  33.243  0.00  0.00     0.001 A 
ENDBRANCH   4  21
TORSDOF 5
ENDMDL
