MODEL 1
REMARK VINA RESULT:       5.3      0.000      0.000
REMARK  5 active torsions:
REMARK  status: ('A' for Active; 'I' for Inactive)
REMARK    1  A    between atoms: C_9  and  C_3 
REMARK    2  A    between atoms: N_11  and  C_4 
REMARK    3  A    between atoms: C_17  and  N_11 
REMARK    4  A    between atoms: O_19  and  C_13 
REMARK    5  A    between atoms: O_20  and  C_15 
ROOT
ATOM      1  N   UNL d   1     -41.743-122.528 -51.513  0.00  0.00    -0.184 N 
ATOM      2  C   UNL d   1     -41.711-122.156 -52.263  0.00  0.00     0.168 A 
ATOM      3  C   UNL d   1     -41.880-122.579 -52.947  0.00  0.00     0.055 A 
ATOM      4  C   UNL d   1     -41.571-122.087 -50.840  0.00  0.00     0.218 A 
ATOM      5  N   UNL d   1     -42.114-123.755 -52.137  0.00  0.00    -0.162 NA
ATOM      6  C   UNL d   1     -42.082-123.383 -52.887  0.00  0.00     0.104 A 
ATOM      7  N   UNL d   1     -41.509-121.351 -52.323  0.00  0.00    -0.227 NA
ATOM      8  C   UNL d   1     -41.368-121.289 -50.883  0.00  0.00     0.071 A 
ATOM      9  C   UNL d   1     -41.337-120.918 -51.633  0.00  0.00     0.087 A 
ATOM     10  C   UNL d   1     -42.252-123.815 -53.561  0.00  0.00     0.023 C 
ATOM     11  C   UNL d   1     -41.127-120.085 -51.693  0.00  0.00     0.021 C 
ENDROOT
BRANCH   3  12
ATOM     12  C   UNL d   1     -41.849-122.213 -53.685  0.00  0.00     0.007 A 
ATOM     13  C   UNL d   1     -42.524-121.844 -53.983  0.00  0.00     0.026 A 
ATOM     14  C   UNL d   1     -42.493-121.472 -54.732  0.00  0.00     0.116 A 
ATOM     15  C   UNL d   1     -41.787-121.477 -55.168  0.00  0.00     0.116 A 
ATOM     16  C   UNL d   1     -41.123-121.849 -54.857  0.00  0.00     0.026 A 
ATOM     17  C   UNL d   1     -41.155-122.219 -54.111  0.00  0.00     0.002 A 
BRANCH  14  18
ATOM     18  O   UNL d   1     -43.176-121.091 -55.049  0.00  0.00    -0.326 OA
ATOM     19  C   UNL d   1     -43.960-121.454 -54.947  0.00  0.00     0.181 C 
ENDBRANCH  14  18
BRANCH  15  20
ATOM     20  O   UNL d   1     -41.755-121.094 -55.941  0.00  0.00    -0.326 OA
ATOM     21  C   UNL d   1     -41.127-121.312 -56.495  0.00  0.00     0.181 C 
ENDBRANCH  15  20
ENDBRANCH   3  12
BRANCH   4  22
ATOM     22  N   UNL d   1     -41.603-122.469 -50.071  0.00  0.00    -0.383 NA
BRANCH  22  23
ATOM     23  C   UNL d   1     -41.631-122.808 -49.387  0.00  0.00     0.134 A 
ATOM     24  C   UNL d   1     -41.150-123.382 -49.232  0.00  0.00     0.032 A 
ATOM     25  C   UNL d   1     -41.178-123.721 -48.549  0.00  0.00     0.003 A 
ATOM     26  C   UNL d   1     -42.160-122.917 -48.183  0.00  0.00     0.003 A 
ATOM     27  C   UNL d   1     -42.131-122.576 -48.869  0.00  0.00     0.032 A 
ENDBRANCH  22  23
ENDBRANCH   4  22
TORSDOF 5
ENDMDL
