MODEL 1
REMARK VINA RESULT:       8.1      0.000      0.000
REMARK  1 active torsions:
REMARK  status: ('A' for Active; 'I' for Inactive)
REMARK    1  A    between atoms: C_6  and  C_1 
ROOT
ATOM      1  C   UNL d   1      13.874  12.385  -2.344  0.00  0.00     0.163 A 
ATOM      2  N   UNL d   1      13.506  11.784  -2.770  0.00  0.00    -0.225 NA
ATOM      3  N   UNL d   1      13.893  13.083  -2.801  0.00  0.00    -0.225 NA
ATOM      4  C   UNL d   1      13.282  12.091  -3.512  0.00  0.00     0.101 A 
ATOM      5  C   UNL d   1      13.524  12.904  -3.531  0.00  0.00     0.101 A 
ATOM      6  C   UNL d   1      12.909  11.780  -4.157  0.00  0.00     0.021 A 
ATOM      7  C   UNL d   1      13.377  13.351  -4.194  0.00  0.00     0.021 A 
ATOM      8  C   UNL d   1      12.769  12.250  -4.821  0.00  0.00     0.002 A 
ATOM      9  C   UNL d   1      12.994  13.007  -4.839  0.00  0.00     0.002 A 
ENDROOT
BRANCH   1  10
ATOM     10  C   UNL d   1      14.173  12.289  -1.580  0.00  0.00     0.039 A 
ATOM     11  C   UNL d   1      13.775  11.863  -0.997  0.00  0.00     0.024 A 
ATOM     12  C   UNL d   1      14.090  11.781  -0.245  0.00  0.00     0.099 A 
ATOM     13  N   UNL d   1      14.803  12.103  -0.015  0.00  0.00    -0.242 NA
ATOM     14  C   UNL d   1      15.226  12.545  -0.606  0.00  0.00     0.099 A 
ATOM     15  C   UNL d   1      14.899  12.631  -1.385  0.00  0.00     0.024 A 
ENDBRANCH   1  10
TORSDOF 1
ENDMDL
MODEL 2
REMARK VINA RESULT:       8.3      0.792      3.543
REMARK  1 active torsions:
REMARK  status: ('A' for Active; 'I' for Inactive)
REMARK    1  A    between atoms: C_6  and  C_1 
ROOT
ATOM      1  C   UNL d   1      13.675  12.312  -2.619  0.00  0.00     0.163 A 
ATOM      2  N   UNL d   1      14.430  12.542  -2.381  0.00  0.00    -0.225 NA
ATOM      3  N   UNL d   1      13.264  11.984  -1.972  0.00  0.00    -0.225 NA
ATOM      4  C   UNL d   1      14.513  12.363  -1.571  0.00  0.00     0.101 A 
ATOM      5  C   UNL d   1      13.783  12.014  -1.315  0.00  0.00     0.101 A 
ATOM      6  C   UNL d   1      15.109  12.455  -1.036  0.00  0.00     0.021 A 
ATOM      7  C   UNL d   1      13.701  11.780  -0.541  0.00  0.00     0.021 A 
ATOM      8  C   UNL d   1      15.007  12.211  -0.254  0.00  0.00     0.002 A 
ATOM      9  C   UNL d   1      14.328  11.886  -0.015  0.00  0.00     0.002 A 
ENDROOT
BRANCH   1  10
ATOM     10  C   UNL d   1      13.389  12.402  -3.389  0.00  0.00     0.039 A 
ATOM     11  C   UNL d   1      13.058  11.779  -3.816  0.00  0.00     0.024 A 
ATOM     12  C   UNL d   1      12.781  11.892  -4.579  0.00  0.00     0.099 A 
ATOM     13  N   UNL d   1      12.807  12.607  -4.970  0.00  0.00    -0.242 NA
ATOM     14  C   UNL d   1      13.146  13.259  -4.542  0.00  0.00     0.099 A 
ATOM     15  C   UNL d   1      13.433  13.142  -3.751  0.00  0.00     0.024 A 
ENDBRANCH   1  10
TORSDOF 1
ENDMDL
