MODEL 1
REMARK VINA RESULT:     -11.7      0.000      0.000
REMARK  1 active torsions:
REMARK  status: ('A' for Active; 'I' for Inactive)
REMARK    1  A    between atoms: C_3  and  C_1 
REMARK       I    between atoms: N_2  and  C_3 
ROOT
ATOM      1  N   UNL d   1     -47.960  12.147  22.878  0.00  0.00    -0.303 N 
ATOM      2  C   UNL d   1     -48.724  11.795  22.811  0.00  0.00     0.244 C 
ATOM      3  C   UNL d   1     -47.897  12.939  22.602  0.00  0.00     0.088 A 
ATOM      4  C   UNL d   1     -46.555  11.857  23.346  0.00  0.00     0.037 A 
ATOM      5  C   UNL d   1     -47.354  11.664  23.212  0.00  0.00     0.051 A 
ATOM      6  C   UNL d   1     -47.006  12.668  22.931  0.00  0.00     0.028 A 
ATOM      7  C   UNL d   1     -46.452  13.278  22.849  0.00  0.00     0.002 A 
ATOM      8  C   UNL d   1     -47.220  13.435  22.593  0.00  0.00     0.023 A 
ATOM      9  O   UNL d   1     -48.822  11.058  23.058  0.00  0.00    -0.271 OA
ATOM     10  C   UNL d   1     -46.170  12.569  23.183  0.00  0.00     0.006 A 
ATOM     11  C   UNL d   1     -46.136  11.204  23.695  0.00  0.00     0.006 C 
ATOM     12  C   UNL d   1     -45.637  13.285  23.056  0.00  0.00     0.000 C 
ATOM     13  C   UNL d   1     -46.390  14.070  22.573  0.00  0.00     0.000 C 
ENDROOT
BRANCH   2  14
ATOM     14  C   UNL d   1     -49.319  12.213  22.504  0.00  0.00     0.111 A 
ATOM     15  C   UNL d   1     -50.562  12.998  22.524  0.00  0.00     0.025 A 
ATOM     16  C   UNL d   1     -49.929  12.638  22.214  0.00  0.00     0.074 A 
ATOM     17  C   UNL d   1     -50.876  13.100  23.251  0.00  0.00     0.002 C 
ATOM     18  C   UNL d   1     -51.064  13.380  22.042  0.00  0.00     0.002 C 
ATOM     19  C   UNL d   1     -50.428  13.016  21.748  0.00  0.00     0.012 C 
ATOM     20  C   UNL d   1     -49.626  12.543  21.490  0.00  0.00    -0.023 A 
ATOM     21  C   UNL d   1     -49.886  12.507  22.993  0.00  0.00     0.172 A 
ATOM     22  C   UNL d   1     -49.027  12.124  21.785  0.00  0.00    -0.018 A 
ATOM     23  C   UNL d   1     -49.280  12.083  23.291  0.00  0.00     0.024 A 
ATOM     24  O   UNL d   1     -50.329  12.704  23.620  0.00  0.00    -0.291 OA
ENDBRANCH   2  14
TORSDOF 1
ENDMDL
MODEL 2
REMARK VINA RESULT:     -11.5      1.657      2.201
REMARK  1 active torsions:
REMARK  status: ('A' for Active; 'I' for Inactive)
REMARK    1  A    between atoms: C_3  and  C_1 
REMARK       I    between atoms: N_2  and  C_3 
ROOT
ATOM      1  N   UNL d   1     -47.846  13.726  22.736  0.00  0.00    -0.303 N 
ATOM      2  C   UNL d   1     -48.190  14.438  22.443  0.00  0.00     0.244 C 
ATOM      3  C   UNL d   1     -48.389  13.135  22.989  0.00  0.00     0.088 A 
ATOM      4  C   UNL d   1     -46.513  13.069  22.995  0.00  0.00     0.037 A 
ATOM      5  C   UNL d   1     -47.003  13.692  22.741  0.00  0.00     0.051 A 
ATOM      6  C   UNL d   1     -47.478  12.779  23.127  0.00  0.00     0.028 A 
ATOM      7  C   UNL d   1     -47.494  12.015  23.446  0.00  0.00     0.002 A 
ATOM      8  C   UNL d   1     -48.222  12.375  23.304  0.00  0.00     0.023 A 
ATOM      9  O   UNL d   1     -47.716  15.013  22.198  0.00  0.00    -0.271 OA
ATOM     10  C   UNL d   1     -46.739  12.337  23.303  0.00  0.00     0.006 A 
ATOM     11  C   UNL d   1     -45.691  13.268  22.902  0.00  0.00     0.006 C 
ATOM     12  C   UNL d   1     -46.852  11.512  23.648  0.00  0.00     0.000 C 
ATOM     13  C   UNL d   1     -48.037  11.425  23.698  0.00  0.00     0.000 C 
ENDROOT
BRANCH   2  14
ATOM     14  C   UNL d   1     -48.976  14.511  22.422  0.00  0.00     0.111 A 
ATOM     15  C   UNL d   1     -50.292  15.006  22.848  0.00  0.00     0.025 A 
ATOM     16  C   UNL d   1     -49.769  14.598  22.418  0.00  0.00     0.074 A 
ATOM     17  C   UNL d   1     -50.271  15.508  23.470  0.00  0.00     0.002 C 
ATOM     18  C   UNL d   1     -51.064  14.952  22.673  0.00  0.00     0.002 C 
ATOM     19  C   UNL d   1     -50.530  14.551  22.252  0.00  0.00     0.012 C 
ATOM     20  C   UNL d   1     -49.801  14.103  21.803  0.00  0.00    -0.023 A 
ATOM     21  C   UNL d   1     -49.341  14.987  22.958  0.00  0.00     0.172 A 
ATOM     22  C   UNL d   1     -49.017  14.023  21.814  0.00  0.00    -0.018 A 
ATOM     23  C   UNL d   1     -48.548  14.905  22.969  0.00  0.00     0.024 A 
ATOM     24  O   UNL d   1     -49.506  15.486  23.551  0.00  0.00    -0.291 OA
ENDBRANCH   2  14
TORSDOF 1
ENDMDL
MODEL 3
REMARK VINA RESULT:     -10.8      1.306      3.480
REMARK  1 active torsions:
REMARK  status: ('A' for Active; 'I' for Inactive)
REMARK    1  A    between atoms: C_3  and  C_1 
REMARK       I    between atoms: N_2  and  C_3 
ROOT
ATOM      1  N   UNL d   1     -49.121  13.430  22.214  0.00  0.00    -0.303 N 
ATOM      2  C   UNL d   1     -48.597  12.806  21.995  0.00  0.00     0.244 C 
ATOM      3  C   UNL d   1     -48.869  13.909  22.858  0.00  0.00     0.088 A 
ATOM      4  C   UNL d   1     -50.446  14.051  21.849  0.00  0.00     0.037 A 
ATOM      5  C   UNL d   1     -49.830  13.497  21.762  0.00  0.00     0.051 A 
ATOM      6  C   UNL d   1     -49.743  14.254  22.554  0.00  0.00     0.028 A 
ATOM      7  C   UNL d   1     -49.987  14.906  23.003  0.00  0.00     0.002 A 
ATOM      8  C   UNL d   1     -49.262  14.565  23.203  0.00  0.00     0.023 A 
ATOM      9  O   UNL d   1     -48.796  12.337  21.399  0.00  0.00    -0.271 OA
ATOM     10  C   UNL d   1     -50.504  14.666  22.397  0.00  0.00     0.006 A 
ATOM     11  C   UNL d   1     -51.060  13.919  21.275  0.00  0.00     0.006 C 
ATOM     12  C   UNL d   1     -50.688  15.365  22.936  0.00  0.00     0.000 C 
ATOM     13  C   UNL d   1     -49.735  15.385  23.647  0.00  0.00     0.000 C 
ENDROOT
BRANCH   2  14
ATOM     14  C   UNL d   1     -47.921  12.708  22.392  0.00  0.00     0.111 A 
ATOM     15  C   UNL d   1     -46.997  12.062  23.334  0.00  0.00     0.025 A 
ATOM     16  C   UNL d   1     -47.247  12.592  22.802  0.00  0.00     0.074 A 
ATOM     17  C   UNL d   1     -47.294  11.416  23.698  0.00  0.00     0.002 C 
ATOM     18  C   UNL d   1     -46.263  12.128  23.631  0.00  0.00     0.002 C 
ATOM     19  C   UNL d   1     -46.527  12.649  23.099  0.00  0.00     0.012 C 
ATOM     20  C   UNL d   1     -46.943  13.229  22.448  0.00  0.00    -0.023 A 
ATOM     21  C   UNL d   1     -47.853  12.093  22.904  0.00  0.00     0.172 A 
ATOM     22  C   UNL d   1     -47.613  13.337  22.047  0.00  0.00    -0.018 A 
ATOM     23  C   UNL d   1     -48.529  12.202  22.498  0.00  0.00     0.024 A 
ATOM     24  O   UNL d   1     -47.979  11.448  23.348  0.00  0.00    -0.291 OA
ENDBRANCH   2  14
TORSDOF 1
ENDMDL
MODEL 4
REMARK VINA RESULT:     -10.2      1.506      3.739
REMARK  1 active torsions:
REMARK  status: ('A' for Active; 'I' for Inactive)
REMARK    1  A    between atoms: C_3  and  C_1 
REMARK       I    between atoms: N_2  and  C_3 
ROOT
ATOM      1  N   UNL d   1     -49.033  13.621  22.804  0.00  0.00    -0.303 N 
ATOM      2  C   UNL d   1     -48.378  14.066  22.513  0.00  0.00     0.244 C 
ATOM      3  C   UNL d   1     -48.889  12.804  22.941  0.00  0.00     0.088 A 
ATOM      4  C   UNL d   1     -50.483  13.760  23.197  0.00  0.00     0.037 A 
ATOM      5  C   UNL d   1     -49.752  14.048  22.920  0.00  0.00     0.051 A 
ATOM      6  C   UNL d   1     -49.830  12.982  23.178  0.00  0.00     0.028 A 
ATOM      7  C   UNL d   1     -50.214  12.297  23.441  0.00  0.00     0.002 A 
ATOM      8  C   UNL d   1     -49.421  12.221  23.226  0.00  0.00     0.023 A 
ATOM      9  O   UNL d   1     -48.474  14.831  22.373  0.00  0.00    -0.271 OA
ATOM     10  C   UNL d   1     -50.674  12.990  23.423  0.00  0.00     0.006 A 
ATOM     11  C   UNL d   1     -51.064  14.382  23.230  0.00  0.00     0.006 C 
ATOM     12  C   UNL d   1     -51.009  12.198  23.696  0.00  0.00     0.000 C 
ATOM     13  C   UNL d   1     -50.067  11.480  23.579  0.00  0.00     0.000 C 
ENDROOT
BRANCH   2  14
ATOM     14  C   UNL d   1     -47.686  13.705  22.391  0.00  0.00     0.111 A 
ATOM     15  C   UNL d   1     -46.285  13.355  22.663  0.00  0.00     0.025 A 
ATOM     16  C   UNL d   1     -46.980  13.350  22.284  0.00  0.00     0.074 A 
ATOM     17  C   UNL d   1     -45.977  13.708  23.310  0.00  0.00     0.002 C 
ATOM     18  C   UNL d   1     -45.688  12.915  22.382  0.00  0.00     0.002 C 
ATOM     19  C   UNL d   1     -46.387  12.920  22.015  0.00  0.00     0.012 C 
ATOM     20  C   UNL d   1     -47.276  12.996  21.643  0.00  0.00    -0.023 A 
ATOM     21  C   UNL d   1     -47.078  13.839  22.899  0.00  0.00     0.172 A 
ATOM     22  C   UNL d   1     -47.970  13.351  21.755  0.00  0.00    -0.018 A 
ATOM     23  C   UNL d   1     -47.781  14.197  23.012  0.00  0.00     0.024 A 
ATOM     24  O   UNL d   1     -46.618  14.092  23.492  0.00  0.00    -0.291 OA
ENDBRANCH   2  14
TORSDOF 1
ENDMDL
