MODEL 1
REMARK VINA RESULT:       1.0      0.000      0.000
REMARK  4 active torsions:
REMARK  status: ('A' for Active; 'I' for Inactive)
REMARK    1  A    between atoms: N_5  and  C_9 
REMARK    2  A    between atoms: O_11  and  C_8 
REMARK    3  A    between atoms: C_20  and  O_11 
REMARK    4  A    between atoms: C_21  and  C_20 
ROOT
ATOM      1  C   UNL d   1     -41.694-122.406 -53.444  0.00  0.00     0.009 A 
ATOM      2  C   UNL d   1     -41.562-121.774 -52.937  0.00  0.00     0.046 A 
ATOM      3  C   UNL d   1     -41.764-122.289 -54.249  0.00  0.00     0.064 A 
ATOM      4  C   UNL d   1     -41.701-121.529 -54.558  0.00  0.00     0.300 A 
ATOM      5  C   UNL d   1     -41.497-121.009 -53.234  0.00  0.00     0.105 A 
ATOM      6  O   UNL d   1     -41.569-120.889 -54.059  0.00  0.00    -0.273 OA
ATOM      7  C   UNL d   1     -41.491-121.900 -52.118  0.00  0.00     0.102 A 
ATOM      8  C   UNL d   1     -41.365-120.371 -52.738  0.00  0.00     0.025 A 
ATOM      9  C   UNL d   1     -41.356-121.252 -51.609  0.00  0.00     0.025 A 
ATOM     10  O   UNL d   1     -41.771-121.395 -55.380  0.00  0.00    -0.259 OA
ATOM     11  C   UNL d   1     -41.295-120.495 -51.925  0.00  0.00     0.004 A 
ATOM     12  C   UNL d   1     -41.757-123.171 -53.134  0.00  0.00     0.000 A 
ATOM     13  C   UNL d   1     -41.897-122.923 -54.760  0.00  0.00     0.005 A 
ATOM     14  C   UNL d   1     -41.160-119.851 -51.414  0.00  0.00     0.000 C 
ATOM     15  C   UNL d   1     -41.891-123.817 -53.630  0.00  0.00     0.000 A 
ATOM     16  C   UNL d   1     -41.961-123.688 -54.450  0.00  0.00     0.000 A 
ENDROOT
BRANCH   7  17
ATOM     17  O   UNL d   1     -41.554-122.654 -51.817  0.00  0.00    -0.305 OA
BRANCH  17  18
ATOM     18  C   UNL d   1     -41.123-122.870 -51.139  0.00  0.00     0.122 C 
BRANCH  18  19
ATOM     19  C   UNL d   1     -41.526-123.064 -50.448  0.00  0.00     0.025 A 
ATOM     20  C   UNL d   1     -41.238-122.805 -49.720  0.00  0.00     0.004 A 
ATOM     21  C   UNL d   1     -41.631-122.992 -49.026  0.00  0.00     0.024 A 
ATOM     22  C   UNL d   1     -42.320-123.441 -49.057  0.00  0.00     0.127 A 
ATOM     23  C   UNL d   1     -42.619-123.706 -49.778  0.00  0.00     0.024 A 
ATOM     24  C   UNL d   1     -42.214-123.513 -50.484  0.00  0.00     0.004 A 
BRANCH  22  25
ATOM     25  N   UNL d   1     -42.724-123.635 -48.363  0.00  0.00    -0.114 N 
ATOM     26  O   UNL d   1     -42.315-123.817 -47.679  0.00  0.00    -0.532 OA
ATOM     27  O   UNL d   1     -43.550-123.643 -48.368  0.00  0.00    -0.532 OA
ENDBRANCH  22  25
ENDBRANCH  18  19
ENDBRANCH  17  18
ENDBRANCH   7  17
TORSDOF 4
ENDMDL
