MODEL 1
REMARK VINA RESULT:      -3.4      0.000      0.000
REMARK  3 active torsions:
REMARK  status: ('A' for Active; 'I' for Inactive)
REMARK    1  A    between atoms: C_7  and  C_1 
REMARK    2  A    between atoms: C_6  and  C_2 
REMARK    3  A    between atoms: C_3  and  C_6 
REMARK       I    between atoms: N_4  and  C_3 
ROOT
ATOM      1  C   UNL d   1      31.379  16.085 -24.677  0.00  0.00     0.038 A 
ATOM      2  C   UNL d   1      32.240  17.082 -24.346  0.00  0.00     0.043 A 
ATOM      3  C   UNL d   1      31.396  16.870 -24.434  0.00  0.00     0.016 A 
ATOM      4  C   UNL d   1      30.859  15.468 -24.882  0.00  0.00    -0.023 A 
ATOM      5  C   UNL d   1      32.162  15.762 -24.756  0.00  0.00     0.013 A 
ATOM      6  C   UNL d   1      31.745  15.774 -24.763  0.00  0.00    -0.012 A 
ATOM      7  C   UNL d   1      33.002  16.001 -24.660  0.00  0.00     0.023 A 
ATOM      8  C   UNL d   1      33.007  16.779 -24.419  0.00  0.00     0.013 A 
ATOM      9  C   UNL d   1      31.774  16.494 -24.540  0.00  0.00    -0.023 A 
ATOM     10  C   UNL d   1      32.477  15.464 -24.840  0.00  0.00    -0.027 A 
ENDROOT
BRANCH   2  11
ATOM     11  C   UNL d   1      32.562  17.807 -24.113  0.00  0.00     0.038 C 
BRANCH  11  12
ATOM     12  C   UNL d   1      32.766  17.934 -23.324  0.00  0.00     0.261 C 
ATOM     13  N   UNL d   1      32.899  18.704 -23.053  0.00  0.00    -0.268 N 
ATOM     14  C   UNL d   1      33.103  18.831 -22.264  0.00  0.00     0.110 A 
ATOM     15  C   UNL d   1      32.829  19.343 -23.577  0.00  0.00     0.110 A 
ATOM     16  C   UNL d   1      33.237  19.596 -21.991  0.00  0.00     0.142 A 
ATOM     17  O   UNL d   1      33.169  20.240 -22.505  0.00  0.00    -0.300 OA
ATOM     18  C   UNL d   1      32.965  20.113 -23.295  0.00  0.00     0.142 A 
ATOM     19  O   UNL d   1      32.834  17.294 -22.808  0.00  0.00    -0.267 OA
ENDBRANCH  11  12
ENDBRANCH   2  11
BRANCH   1  20
ATOM     20  C   UNL d   1      30.672  16.502 -24.567  0.00  0.00    -0.019 A 
ATOM     21  C   UNL d   1      30.201  16.326 -23.917  0.00  0.00    -0.004 A 
ATOM     22  C   UNL d   1      29.499  16.737 -23.800  0.00  0.00    -0.000 A 
ATOM     23  C   UNL d   1      29.270  17.316 -24.329  0.00  0.00    -0.000 A 
ATOM     24  C   UNL d   1      29.749  17.493 -24.987  0.00  0.00    -0.000 A 
ATOM     25  C   UNL d   1      28.565  17.735 -24.221  0.00  0.00    -0.000 C 
ATOM     26  C   UNL d   1      30.452  17.078 -25.097  0.00  0.00    -0.004 A 
ENDBRANCH   1  20
TORSDOF 3
ENDMDL
MODEL 2
REMARK VINA RESULT:      -2.2      1.644      3.379
REMARK  3 active torsions:
REMARK  status: ('A' for Active; 'I' for Inactive)
REMARK    1  A    between atoms: C_7  and  C_1 
REMARK    2  A    between atoms: C_6  and  C_2 
REMARK    3  A    between atoms: C_3  and  C_6 
REMARK       I    between atoms: N_4  and  C_3 
ROOT
ATOM      1  C   UNL d   1      32.425  16.618 -24.323  0.00  0.00     0.038 A 
ATOM      2  C   UNL d   1      31.092  16.684 -24.580  0.00  0.00     0.043 A 
ATOM      3  C   UNL d   1      31.778  17.122 -24.259  0.00  0.00     0.016 A 
ATOM      4  C   UNL d   1      33.241  16.568 -24.169  0.00  0.00    -0.023 A 
ATOM      5  C   UNL d   1      32.209  15.871 -24.668  0.00  0.00     0.013 A 
ATOM      6  C   UNL d   1      32.453  16.164 -24.499  0.00  0.00    -0.012 A 
ATOM      7  C   UNL d   1      31.504  15.454 -24.985  0.00  0.00     0.023 A 
ATOM      8  C   UNL d   1      30.871  15.962 -24.917  0.00  0.00     0.013 A 
ATOM      9  C   UNL d   1      31.852  16.617 -24.445  0.00  0.00    -0.023 A 
ATOM     10  C   UNL d   1      32.259  15.460 -24.822  0.00  0.00    -0.027 A 
ENDROOT
BRANCH   2  11
ATOM     11  C   UNL d   1      30.309  16.940 -24.645  0.00  0.00     0.038 C 
BRANCH  11  12
ATOM     12  C   UNL d   1      29.728  16.621 -24.152  0.00  0.00     0.261 C 
ATOM     13  N   UNL d   1      29.068  17.075 -23.949  0.00  0.00    -0.268 N 
ATOM     14  C   UNL d   1      28.488  16.757 -23.457  0.00  0.00     0.110 A 
ATOM     15  C   UNL d   1      28.993  17.848 -24.242  0.00  0.00     0.110 A 
ATOM     16  C   UNL d   1      27.829  17.205 -23.253  0.00  0.00     0.142 A 
ATOM     17  O   UNL d   1      27.744  17.977 -23.539  0.00  0.00    -0.300 OA
ATOM     18  C   UNL d   1      28.324  18.295 -24.031  0.00  0.00     0.142 A 
ATOM     19  O   UNL d   1      29.810  15.852 -23.865  0.00  0.00    -0.267 OA
ENDBRANCH  11  12
ENDBRANCH   2  11
BRANCH   1  20
ATOM     20  C   UNL d   1      32.516  17.375 -24.000  0.00  0.00    -0.019 A 
ATOM     21  C   UNL d   1      32.557  18.022 -24.505  0.00  0.00    -0.004 A 
ATOM     22  C   UNL d   1      32.648  18.777 -24.192  0.00  0.00    -0.000 A 
ATOM     23  C   UNL d   1      32.698  18.882 -23.384  0.00  0.00    -0.000 A 
ATOM     24  C   UNL d   1      32.657  18.225 -22.874  0.00  0.00    -0.000 A 
ATOM     25  C   UNL d   1      32.790  19.637 -23.058  0.00  0.00    -0.000 C 
ATOM     26  C   UNL d   1      32.565  17.472 -23.195  0.00  0.00    -0.004 A 
ENDBRANCH   1  20
TORSDOF 3
ENDMDL
MODEL 3
REMARK VINA RESULT:      -1.0      1.561      2.741
REMARK  3 active torsions:
REMARK  status: ('A' for Active; 'I' for Inactive)
REMARK    1  A    between atoms: C_7  and  C_1 
REMARK    2  A    between atoms: C_6  and  C_2 
REMARK    3  A    between atoms: C_3  and  C_6 
REMARK       I    between atoms: N_4  and  C_3 
ROOT
ATOM      1  C   UNL d   1      32.601  18.200 -24.415  0.00  0.00     0.038 A 
ATOM      2  C   UNL d   1      32.864  19.019 -23.363  0.00  0.00     0.043 A 
ATOM      3  C   UNL d   1      32.550  18.236 -23.594  0.00  0.00     0.016 A 
ATOM      4  C   UNL d   1      32.444  17.706 -25.065  0.00  0.00    -0.023 A 
ATOM      5  C   UNL d   1      32.931  18.914 -24.742  0.00  0.00     0.013 A 
ATOM      6  C   UNL d   1      32.767  18.530 -24.734  0.00  0.00    -0.012 A 
ATOM      7  C   UNL d   1      33.241  19.693 -24.481  0.00  0.00     0.023 A 
ATOM      8  C   UNL d   1      33.185  19.717 -23.669  0.00  0.00     0.013 A 
ATOM      9  C   UNL d   1      32.725  18.575 -23.982  0.00  0.00    -0.023 A 
ATOM     10  C   UNL d   1      33.076  19.195 -25.048  0.00  0.00    -0.027 A 
ENDROOT
BRANCH   2  11
ATOM     11  C   UNL d   1      32.936  19.334 -22.602  0.00  0.00     0.038 C 
BRANCH  11  12
ATOM     12  C   UNL d   1      32.536  20.027 -22.402  0.00  0.00     0.261 C 
ATOM     13  N   UNL d   1      32.639  20.360 -21.652  0.00  0.00    -0.268 N 
ATOM     14  C   UNL d   1      32.239  21.053 -21.453  0.00  0.00     0.110 A 
ATOM     15  C   UNL d   1      33.145  19.994 -21.105  0.00  0.00     0.110 A 
ATOM     16  C   UNL d   1      32.339  21.387 -20.707  0.00  0.00     0.142 A 
ATOM     17  O   UNL d   1      32.841  21.030 -20.155  0.00  0.00    -0.300 OA
ATOM     18  C   UNL d   1      33.241  20.337 -20.354  0.00  0.00     0.142 A 
ATOM     19  O   UNL d   1      32.035  20.386 -22.951  0.00  0.00    -0.267 OA
ENDBRANCH  11  12
ENDBRANCH   2  11
BRANCH   1  20
ATOM     20  C   UNL d   1      32.294  17.561 -23.988  0.00  0.00    -0.019 A 
ATOM     21  C   UNL d   1      31.480  17.446 -23.969  0.00  0.00    -0.004 A 
ATOM     22  C   UNL d   1      31.168  16.813 -23.548  0.00  0.00    -0.000 A 
ATOM     23  C   UNL d   1      31.665  16.301 -23.150  0.00  0.00    -0.000 A 
ATOM     24  C   UNL d   1      32.489  16.419 -23.170  0.00  0.00    -0.000 A 
ATOM     25  C   UNL d   1      31.361  15.661 -22.723  0.00  0.00    -0.000 C 
ATOM     26  C   UNL d   1      32.794  17.055 -23.595  0.00  0.00    -0.004 A 
ENDBRANCH   1  20
TORSDOF 3
ENDMDL
