MODEL 1
REMARK VINA RESULT:      -1.0      0.000      0.000
REMARK  9 active torsions:
REMARK  status: ('A' for Active; 'I' for Inactive)
REMARK    1  A    between atoms: C_22  and  N_1 
REMARK    2  A    between atoms: S_10  and  C_2 
REMARK    3  A    between atoms: N_8  and  C_9 
REMARK    4  A    between atoms: C_24  and  S_10 
REMARK    5  A    between atoms: C_11  and  C_24 
REMARK       I    between atoms: N_15  and  C_11 
REMARK    6  A    between atoms: C_13  and  C_25 
REMARK    7  A    between atoms: C_25  and  N_15 
REMARK    8  A    between atoms: C_30  and  C_22 
REMARK    9  A    between atoms: C_31  and  C_30 
ROOT
ATOM      1  N   UNL d   1      57.860  -0.480  30.688  0.00  0.00    -0.253 N 
ATOM      2  C   UNL d   1      57.771  -1.287  30.543  0.00  0.00     0.182 A 
ATOM      3  C   UNL d   1      57.451  -0.127  31.318  0.00  0.00     0.268 A 
ATOM      4  C   UNL d   1      56.958  -0.579  31.798  0.00  0.00     0.076 A 
ATOM      5  N   UNL d   1      57.272  -1.741  31.029  0.00  0.00    -0.222 NA
ATOM      6  C   UNL d   1      56.868  -1.386  31.653  0.00  0.00     0.088 A 
ATOM      7  C   UNL d   1      56.554  -0.225  32.421  0.00  0.00     0.024 A 
ATOM      8  C   UNL d   1      56.061  -0.678  32.901  0.00  0.00     0.065 A 
ATOM      9  O   UNL d   1      57.541   0.681  31.463  0.00  0.00    -0.267 OA
ATOM     10  C   UNL d   1      56.375  -1.840  32.132  0.00  0.00     0.021 A 
ATOM     11  C   UNL d   1      55.972  -1.485  32.756  0.00  0.00     0.019 A 
ENDROOT
BRANCH   2  12
ATOM     12  S   UNL d   1      58.176  -1.646  29.916  0.00  0.00    -0.044 SA
BRANCH  12  13
ATOM     13  C   UNL d   1      58.236  -2.477  29.876  0.00  0.00     0.101 C 
BRANCH  13  14
ATOM     14  C   UNL d   1      58.495  -2.838  29.178  0.00  0.00     0.286 C 
ATOM     15  N   UNL d   1      58.852  -3.586  29.211  0.00  0.00    -0.204 NA
ATOM     16  O   UNL d   1      58.396  -2.450  28.457  0.00  0.00    -0.265 OA
BRANCH  15  17
ATOM     17  C   UNL d   1      59.113  -3.949  28.507  0.00  0.00     0.127 C 
BRANCH  17  18
ATOM     18  C   UNL d   1      59.806  -4.406  28.514  0.00  0.00     0.119 A 
ATOM     19  O   UNL d   1      59.931  -5.216  28.496  0.00  0.00    -0.304 OA
ATOM     20  C   UNL d   1      60.745  -5.351  28.515  0.00  0.00     0.123 A 
ATOM     21  C   UNL d   1      61.130  -4.625  28.545  0.00  0.00     0.029 A 
ATOM     22  C   UNL d   1      60.544  -4.038  28.544  0.00  0.00     0.028 A 
ENDBRANCH  17  18
ENDBRANCH  15  17
ENDBRANCH  13  14
ENDBRANCH  12  13
ENDBRANCH   2  12
BRANCH   1  23
ATOM     23  C   UNL d   1      58.355  -0.027  30.206  0.00  0.00     0.085 C 
BRANCH  23  24
ATOM     24  C   UNL d   1      59.174  -0.115  30.259  0.00  0.00     0.019 C 
BRANCH  24  25
ATOM     25  C   UNL d   1      59.674   0.449  29.910  0.00  0.00     0.002 C 
ATOM     26  C   UNL d   1      60.499   0.412  30.042  0.00  0.00     0.000 C 
ENDBRANCH  24  25
ENDBRANCH  23  24
ENDBRANCH   1  23
BRANCH   8  27
ATOM     27  N   UNL d   1      55.658  -0.324  33.525  0.00  0.00    -0.300 N 
ATOM     28  C   UNL d   1      56.058  -0.147  34.234  0.00  0.00     0.107 A 
ATOM     29  C   UNL d   1      55.654   0.207  34.858  0.00  0.00     0.142 A 
ATOM     30  O   UNL d   1      54.844   0.391  34.785  0.00  0.00    -0.300 OA
ATOM     31  C   UNL d   1      54.443   0.215  34.076  0.00  0.00     0.142 A 
ATOM     32  C   UNL d   1      54.854  -0.143  33.449  0.00  0.00     0.107 A 
ENDBRANCH   8  27
TORSDOF 9
ENDMDL
MODEL 2
REMARK VINA RESULT:      -0.5      1.471      1.938
REMARK  9 active torsions:
REMARK  status: ('A' for Active; 'I' for Inactive)
REMARK    1  A    between atoms: C_22  and  N_1 
REMARK    2  A    between atoms: S_10  and  C_2 
REMARK    3  A    between atoms: N_8  and  C_9 
REMARK    4  A    between atoms: C_24  and  S_10 
REMARK    5  A    between atoms: C_11  and  C_24 
REMARK       I    between atoms: N_15  and  C_11 
REMARK    6  A    between atoms: C_13  and  C_25 
REMARK    7  A    between atoms: C_25  and  N_15 
REMARK    8  A    between atoms: C_30  and  C_22 
REMARK    9  A    between atoms: C_31  and  C_30 
ROOT
ATOM      1  N   UNL d   1      58.575   0.476  31.718  0.00  0.00    -0.253 N 
ATOM      2  C   UNL d   1      58.092   0.412  31.052  0.00  0.00     0.182 A 
ATOM      3  C   UNL d   1      58.233   0.523  32.473  0.00  0.00     0.268 A 
ATOM      4  C   UNL d   1      57.414   0.507  32.558  0.00  0.00     0.076 A 
ATOM      5  N   UNL d   1      57.266   0.396  31.142  0.00  0.00    -0.222 NA
ATOM      6  C   UNL d   1      56.930   0.443  31.893  0.00  0.00     0.088 A 
ATOM      7  C   UNL d   1      57.078   0.554  33.308  0.00  0.00     0.024 A 
ATOM      8  C   UNL d   1      56.259   0.537  33.393  0.00  0.00     0.065 A 
ATOM      9  O   UNL d   1      58.716   0.587  33.138  0.00  0.00    -0.267 OA
ATOM     10  C   UNL d   1      56.112   0.426  31.977  0.00  0.00     0.021 A 
ATOM     11  C   UNL d   1      55.776   0.474  32.728  0.00  0.00     0.019 A 
ENDROOT
BRANCH   2  12
ATOM     12  S   UNL d   1      58.428   0.365  30.296  0.00  0.00    -0.044 SA
BRANCH  12  13
ATOM     13  C   UNL d   1      58.107  -0.155  29.728  0.00  0.00     0.101 C 
BRANCH  13  14
ATOM     14  C   UNL d   1      58.609  -0.539  29.192  0.00  0.00     0.286 C 
ATOM     15  N   UNL d   1      58.619  -1.368  29.162  0.00  0.00    -0.204 NA
ATOM     16  O   UNL d   1      59.093  -0.093  28.695  0.00  0.00    -0.265 OA
BRANCH  15  17
ATOM     17  C   UNL d   1      59.125  -1.753  28.623  0.00  0.00     0.127 C 
BRANCH  17  18
ATOM     18  C   UNL d   1      59.173  -2.583  28.627  0.00  0.00     0.119 A 
ATOM     19  O   UNL d   1      59.803  -3.097  28.525  0.00  0.00    -0.304 OA
ATOM     20  C   UNL d   1      59.517  -3.869  28.587  0.00  0.00     0.123 A 
ATOM     21  C   UNL d   1      58.707  -3.837  28.728  0.00  0.00     0.029 A 
ATOM     22  C   UNL d   1      58.495  -3.036  28.752  0.00  0.00     0.028 A 
ENDBRANCH  17  18
ENDBRANCH  15  17
ENDBRANCH  13  14
ENDBRANCH  12  13
ENDBRANCH   2  12
BRANCH   1  23
ATOM     23  C   UNL d   1      59.396   0.492  31.631  0.00  0.00     0.085 C 
BRANCH  23  24
ATOM     24  C   UNL d   1      59.875   0.682  32.275  0.00  0.00     0.019 C 
BRANCH  24  25
ATOM     25  C   UNL d   1      60.677   0.465  32.272  0.00  0.00     0.002 C 
ATOM     26  C   UNL d   1      61.122   0.505  32.981  0.00  0.00     0.000 C 
ENDBRANCH  24  25
ENDBRANCH  23  24
ENDBRANCH   1  23
BRANCH   8  27
ATOM     27  N   UNL d   1      55.924   0.584  34.143  0.00  0.00    -0.300 N 
ATOM     28  C   UNL d   1      56.413   0.627  34.817  0.00  0.00     0.107 A 
ATOM     29  C   UNL d   1      56.077   0.674  35.568  0.00  0.00     0.142 A 
ATOM     30  O   UNL d   1      55.248   0.679  35.659  0.00  0.00    -0.300 OA
ATOM     31  C   UNL d   1      54.759   0.637  34.984  0.00  0.00     0.142 A 
ATOM     32  C   UNL d   1      55.102   0.589  34.229  0.00  0.00     0.107 A 
ENDBRANCH   8  27
TORSDOF 9
ENDMDL
