MODEL 1
REMARK VINA RESULT:      55.8      0.000      0.000
REMARK  1 active torsions:
REMARK  status: ('A' for Active; 'I' for Inactive)
REMARK    1  A    between atoms: C_9  and  C_3 
REMARK       I    between atoms: C_10  and  N_4 
ROOT
ATOM      1  N   UNL d   1      13.570  13.083  -3.859  0.00  0.00    -0.047 N 
ATOM      2  N   UNL d   1      13.843  13.077  -3.087  0.00  0.00    -0.188 N 
ATOM      3  C   UNL d   1      13.859  12.308  -2.787  0.00  0.00     0.194 A 
ATOM      4  N   UNL d   1      13.555  13.796  -4.136  0.00  0.00    -0.172 N 
ATOM      5  N   UNL d   1      13.586  11.790  -3.388  0.00  0.00    -0.083 NA
ATOM      6  C   UNL d   1      13.997  13.837  -2.901  0.00  0.00     0.104 A 
ATOM      7  O   UNL d   1      13.405  12.281  -4.061  0.00  0.00    -0.089 OA
ATOM      8  C   UNL d   1      13.817  14.297  -3.562  0.00  0.00     0.106 A 
ATOM      9  C   UNL d   1      13.301  14.001  -4.919  0.00  0.00     0.282 C 
ATOM     10  O   UNL d   1      13.051  13.422  -5.436  0.00  0.00    -0.265 OA
ATOM     11  C   UNL d   1      14.286  14.194  -2.205  0.00  0.00     0.021 A 
ATOM     12  C   UNL d   1      13.925  15.108  -3.524  0.00  0.00     0.021 A 
ATOM     13  C   UNL d   1      13.306  14.796  -5.169  0.00  0.00     0.068 C 
ATOM     14  C   UNL d   1      14.202  15.477  -2.864  0.00  0.00     0.002 A 
ATOM     15  C   UNL d   1      14.391  15.020  -2.179  0.00  0.00     0.002 A 
ENDROOT
BRANCH   3  16
ATOM     16  C   UNL d   1      14.112  12.160  -2.027  0.00  0.00     0.038 A 
ATOM     17  C   UNL d   1      13.588  12.064  -1.432  0.00  0.00     0.003 A 
ATOM     18  C   UNL d   1      13.874  11.911  -0.651  0.00  0.00     0.000 A 
ATOM     19  C   UNL d   1      12.773  12.109  -1.553  0.00  0.00     0.000 C 
ATOM     20  C   UNL d   1      13.357  11.807  -0.015  0.00  0.00     0.000 C 
ATOM     21  C   UNL d   1      14.652  11.867  -0.527  0.00  0.00     0.000 A 
ATOM     22  C   UNL d   1      15.175  11.964  -1.122  0.00  0.00     0.000 A 
ATOM     23  C   UNL d   1      14.923  12.112  -1.883  0.00  0.00     0.003 A 
ATOM     24  C   UNL d   1      16.024  11.914  -0.981  0.00  0.00     0.000 C 
ATOM     25  C   UNL d   1      15.464  12.211  -2.497  0.00  0.00     0.000 C 
ENDBRANCH   3  16
TORSDOF 1
ENDMDL
