MODEL 1
REMARK VINA RESULT:      92.7      0.000      0.000
REMARK  4 active torsions:
REMARK  status: ('A' for Active; 'I' for Inactive)
REMARK    1  A    between atoms: S_5  and  C_3 
REMARK    2  A    between atoms: C_13  and  S_5 
REMARK    3  A    between atoms: C_23  and  N_7 
REMARK    4  A    between atoms: C_29  and  C_23 
ROOT
ATOM      1  C   UNL d   1      57.933  49.620  53.099  0.00  0.00     0.155 A 
ATOM      2  C   UNL d   1      58.698  49.616  53.372  0.00  0.00     0.092 A 
ATOM      3  C   UNL d   1      59.175  49.600  52.046  0.00  0.00     0.124 A 
ATOM      4  N   UNL d   1      57.308  49.630  53.630  0.00  0.00    -0.210 NA
ATOM      5  N   UNL d   1      58.224  49.632  54.704  0.00  0.00    -0.258 N 
ATOM      6  N   UNL d   1      57.784  49.614  52.304  0.00  0.00    -0.273 N 
ATOM      7  C   UNL d   1      57.452  49.636  54.423  0.00  0.00     0.152 A 
ATOM      8  C   UNL d   1      58.400  49.604  51.770  0.00  0.00     0.181 A 
ATOM      9  C   UNL d   1      58.848  49.622  54.176  0.00  0.00     0.269 A 
ATOM     10  C   UNL d   1      59.320  49.606  52.848  0.00  0.00     0.022 A 
ATOM     11  C   UNL d   1      56.827  49.647  54.955  0.00  0.00     0.035 A 
ATOM     12  C   UNL d   1      58.363  49.639  55.512  0.00  0.00     0.084 A 
ATOM     13  N   UNL d   1      58.244  49.598  50.959  0.00  0.00    -0.128 N 
ATOM     14  O   UNL d   1      59.629  49.618  54.460  0.00  0.00    -0.266 OA
ATOM     15  C   UNL d   1      57.740  49.649  56.036  0.00  0.00     0.019 A 
ATOM     16  C   UNL d   1      56.968  49.653  55.756  0.00  0.00     0.005 A 
ATOM     17  C   UNL d   1      56.046  49.651  54.671  0.00  0.00     0.003 C 
ENDROOT
BRANCH   3  18
ATOM     18  S   UNL d   1      59.802  49.590  51.511  0.00  0.00     0.213 S 
ATOM     19  O   UNL d   1      59.271  49.647  50.871  0.00  0.00    -0.217 OA
ATOM     20  O   UNL d   1      60.335  49.533  52.136  0.00  0.00    -0.217 OA
BRANCH  18  21
ATOM     21  C   UNL d   1      60.441  49.579  50.979  0.00  0.00     0.088 A 
ATOM     22  C   UNL d   1      60.311  49.685  50.171  0.00  0.00     0.014 A 
ATOM     23  C   UNL d   1      60.951  49.674  49.640  0.00  0.00     0.030 A 
ATOM     24  C   UNL d   1      61.719  49.556  49.920  0.00  0.00     0.140 A 
ATOM     25  C   UNL d   1      61.845  49.449  50.741  0.00  0.00     0.030 A 
ATOM     26  F   UNL d   1      62.360  49.544  49.398  0.00  0.00    -0.204 F 
ATOM     27  C   UNL d   1      61.207  49.460  51.267  0.00  0.00     0.014 A 
ENDBRANCH  18  21
ENDBRANCH   3  18
BRANCH   6  28
ATOM     28  C   UNL d   1      56.997  49.618  52.024  0.00  0.00     0.083 C 
BRANCH  28  29
ATOM     29  C   UNL d   1      56.812  49.224  51.314  0.00  0.00     0.019 C 
ATOM     30  C   UNL d   1      56.144  48.730  51.268  0.00  0.00     0.002 C 
ENDBRANCH  28  29
ENDBRANCH   6  28
TORSDOF 4
ENDMDL
