MODEL 1
REMARK VINA RESULT:      -2.2      0.000      0.000
REMARK  4 active torsions:
REMARK  status: ('A' for Active; 'I' for Inactive)
REMARK    1  A    between atoms: C_10  and  C_3 
REMARK    2  A    between atoms: C_11  and  N_5 
REMARK    3  A    between atoms: O_17  and  C_10 
REMARK    4  A    between atoms: C_21  and  O_17 
ROOT
ATOM      1  C   UNL d   1      59.262  -0.140  30.542  0.00  0.00     0.086 A 
ATOM      2  C   UNL d   1      59.165  -0.654  29.909  0.00  0.00     0.038 A 
ATOM      3  C   UNL d   1      58.441  -1.029  29.788  0.00  0.00     0.165 A 
ATOM      4  C   UNL d   1      58.631   0.003  31.059  0.00  0.00     0.282 A 
ATOM      5  N   UNL d   1      57.909  -0.369  30.940  0.00  0.00    -0.194 N 
ATOM      6  N   UNL d   1      57.810  -0.886  30.305  0.00  0.00    -0.157 NA
ATOM      7  C   UNL d   1      60.037   0.145  30.518  0.00  0.00     0.137 A 
ATOM      8  C   UNL d   1      59.881  -0.684  29.498  0.00  0.00     0.039 A 
ATOM      9  S   UNL d   1      60.413  -0.195  29.872  0.00  0.00    -0.066 SA
ATOM     10  O   UNL d   1      58.726   0.524  31.702  0.00  0.00    -0.265 OA
ATOM     11  N   UNL d   1      60.395   0.682  31.045  0.00  0.00    -0.141 N 
ENDROOT
BRANCH   5  12
ATOM     12  C   UNL d   1      57.282  -0.226  31.454  0.00  0.00     0.086 A 
ATOM     13  C   UNL d   1      56.860   0.481  31.404  0.00  0.00     0.019 A 
ATOM     14  C   UNL d   1      56.228   0.625  31.923  0.00  0.00     0.002 A 
ATOM     15  C   UNL d   1      56.022   0.060  32.488  0.00  0.00     0.000 A 
ATOM     16  C   UNL d   1      56.443  -0.644  32.536  0.00  0.00     0.002 A 
ATOM     17  C   UNL d   1      55.395   0.202  33.002  0.00  0.00     0.000 C 
ATOM     18  C   UNL d   1      57.075  -0.788  32.017  0.00  0.00     0.019 A 
ENDBRANCH   5  12
BRANCH   3  19
ATOM     19  C   UNL d   1      58.346  -1.550  29.145  0.00  0.00     0.320 C 
ATOM     20  O   UNL d   1      57.989  -1.284  28.455  0.00  0.00    -0.257 OA
BRANCH  19  21
ATOM     21  O   UNL d   1      58.610  -2.332  29.201  0.00  0.00    -0.270 OA
BRANCH  21  22
ATOM     22  C   UNL d   1      58.254  -2.919  28.750  0.00  0.00     0.126 C 
ATOM     23  C   UNL d   1      58.620  -3.662  28.670  0.00  0.00     0.029 C 
ENDBRANCH  21  22
ENDBRANCH  19  21
ENDBRANCH   3  19
TORSDOF 4
ENDMDL
MODEL 2
REMARK VINA RESULT:      -0.4      1.225      2.485
REMARK  4 active torsions:
REMARK  status: ('A' for Active; 'I' for Inactive)
REMARK    1  A    between atoms: C_10  and  C_3 
REMARK    2  A    between atoms: C_11  and  N_5 
REMARK    3  A    between atoms: O_17  and  C_10 
REMARK    4  A    between atoms: C_21  and  O_17 
ROOT
ATOM      1  C   UNL d   1      58.554  -1.487  29.621  0.00  0.00     0.086 A 
ATOM      2  C   UNL d   1      59.201  -0.990  29.529  0.00  0.00     0.038 A 
ATOM      3  C   UNL d   1      59.270  -0.311  29.992  0.00  0.00     0.165 A 
ATOM      4  C   UNL d   1      57.970  -1.308  30.180  0.00  0.00     0.282 A 
ATOM      5  N   UNL d   1      58.037  -0.633  30.642  0.00  0.00    -0.194 N 
ATOM      6  N   UNL d   1      58.686  -0.132  30.551  0.00  0.00    -0.157 NA
ATOM      7  C   UNL d   1      58.641  -2.112  29.086  0.00  0.00     0.137 A 
ATOM      8  C   UNL d   1      59.683  -1.309  28.939  0.00  0.00     0.039 A 
ATOM      9  S   UNL d   1      59.338  -1.996  28.669  0.00  0.00    -0.066 SA
ATOM     10  O   UNL d   1      57.313  -1.810  30.275  0.00  0.00    -0.265 OA
ATOM     11  N   UNL d   1      58.124  -2.755  28.974  0.00  0.00    -0.141 N 
ENDROOT
BRANCH   5  12
ATOM     12  C   UNL d   1      57.456  -0.454  31.197  0.00  0.00     0.086 A 
ATOM     13  C   UNL d   1      57.176   0.319  31.267  0.00  0.00     0.019 A 
ATOM     14  C   UNL d   1      56.590   0.499  31.827  0.00  0.00     0.002 A 
ATOM     15  C   UNL d   1      56.288  -0.096  32.314  0.00  0.00     0.000 A 
ATOM     16  C   UNL d   1      56.568  -0.865  32.243  0.00  0.00     0.002 A 
ATOM     17  C   UNL d   1      55.707   0.082  32.869  0.00  0.00     0.000 C 
ATOM     18  C   UNL d   1      57.155  -1.045  31.682  0.00  0.00     0.019 A 
ENDBRANCH   5  12
BRANCH   3  19
ATOM     19  C   UNL d   1      59.927   0.191  29.897  0.00  0.00     0.320 C 
ATOM     20  O   UNL d   1      60.327   0.206  29.180  0.00  0.00    -0.257 OA
BRANCH  19  21
ATOM     21  O   UNL d   1      60.176   0.674  30.521  0.00  0.00    -0.270 OA
BRANCH  21  22
ATOM     22  C   UNL d   1      60.957   0.649  30.774  0.00  0.00     0.126 C 
ATOM     23  C   UNL d   1      61.133   0.682  31.586  0.00  0.00     0.029 C 
ENDBRANCH  21  22
ENDBRANCH  19  21
ENDBRANCH   3  19
TORSDOF 4
ENDMDL
