MODEL 1
REMARK VINA RESULT:      27.4      0.000      0.000
REMARK  7 active torsions:
REMARK  status: ('A' for Active; 'I' for Inactive)
REMARK    1  A    between atoms: O_9  and  N_1 
REMARK    2  A    between atoms: C_8  and  O_11 
REMARK    3  A    between atoms: C_15  and  O_9 
REMARK    4  A    between atoms: O_11  and  C_16 
REMARK    5  A    between atoms: C_18  and  C_15 
REMARK    6  A    between atoms: C_16  and  C_17 
REMARK    7  A    between atoms: C_17  and  C_18 
ROOT
ATOM      1  N   UNL d   1     -51.062  25.519  33.312  0.00  0.00    -0.139 N 
ATOM      2  C   UNL d   1     -50.870  24.708  33.309  0.00  0.00     0.287 A 
ATOM      3  C   UNL d   1     -51.889  25.587  33.313  0.00  0.00     0.287 A 
ATOM      4  C   UNL d   1     -51.580  24.281  33.308  0.00  0.00     0.063 A 
ATOM      5  C   UNL d   1     -52.207  24.822  33.311  0.00  0.00     0.063 A 
ATOM      6  O   UNL d   1     -52.355  26.270  33.316  0.00  0.00    -0.265 OA
ATOM      7  O   UNL d   1     -50.131  24.353  33.307  0.00  0.00    -0.265 OA
ATOM      8  C   UNL d   1     -52.987  24.549  33.311  0.00  0.00     0.005 A 
ATOM      9  C   UNL d   1     -51.734  23.469  33.306  0.00  0.00     0.005 A 
ATOM     10  C   UNL d   1     -53.139  23.741  33.308  0.00  0.00     0.000 A 
ATOM     11  C   UNL d   1     -52.512  23.200  33.306  0.00  0.00     0.000 A 
ENDROOT
BRANCH   1  12
ATOM     12  O   UNL d   1     -50.524  26.143  33.314  0.00  0.00    -0.221 OA
BRANCH  12  13
ATOM     13  C   UNL d   1     -49.958  26.593  33.714  0.00  0.00     0.148 C 
BRANCH  13  14
ATOM     14  C   UNL d   1     -49.789  27.356  33.451  0.00  0.00     0.031 C 
BRANCH  14  15
ATOM     15  C   UNL d   1     -49.703  27.967  33.995  0.00  0.00     0.029 C 
BRANCH  15  16
ATOM     16  C   UNL d   1     -49.035  27.996  34.475  0.00  0.00     0.126 C 
BRANCH  16  17
ATOM     17  O   UNL d   1     -48.810  28.712  34.816  0.00  0.00    -0.271 OA
BRANCH  17  18
ATOM     18  C   UNL d   1     -48.145  28.741  35.300  0.00  0.00     0.300 C 
ATOM     19  O   UNL d   1     -47.679  28.068  35.402  0.00  0.00    -0.259 OA
ATOM     20  C   UNL d   1     -47.946  29.442  35.682  0.00  0.00     0.074 C 
ENDBRANCH  17  18
ENDBRANCH  16  17
ENDBRANCH  15  16
ENDBRANCH  14  15
ENDBRANCH  13  14
ENDBRANCH  12  13
ENDBRANCH   1  12
TORSDOF 7
ENDMDL
