MODEL 1
REMARK VINA RESULT:      -3.1      0.000      0.000
REMARK  3 active torsions:
REMARK  status: ('A' for Active; 'I' for Inactive)
REMARK    1  A    between atoms: C_7  and  N_1 
REMARK    2  A    between atoms: C_2  and  C_5 
REMARK    3  A    between atoms: N_3  and  C_2 
REMARK       I    between atoms: C_6  and  N_4 
ROOT
ATOM      1  C   UNL d   1      31.546  16.192 -24.212  0.00  0.00     0.120 C 
ATOM      2  S   UNL d   1      31.934  15.589 -24.623  0.00  0.00    -0.059 SA
ENDROOT
BRANCH   1   3
ATOM      3  C   UNL d   1      30.796  16.050 -23.880  0.00  0.00     0.028 A 
ATOM      4  C   UNL d   1      30.121  16.368 -24.235  0.00  0.00     0.026 A 
ATOM      5  C   UNL d   1      29.377  16.229 -23.908  0.00  0.00     0.127 A 
ATOM      6  C   UNL d   1      29.307  15.771 -23.225  0.00  0.00     0.024 A 
ATOM      7  C   UNL d   1      29.982  15.453 -22.870  0.00  0.00     0.002 A 
ATOM      8  C   UNL d   1      30.727  15.591 -23.197  0.00  0.00     0.002 A 
BRANCH   5   9
ATOM      9  N   UNL d   1      28.699  16.546 -24.260  0.00  0.00    -0.114 N 
ATOM     10  O   UNL d   1      28.357  17.242 -23.975  0.00  0.00    -0.532 OA
ATOM     11  O   UNL d   1      28.367  16.153 -24.906  0.00  0.00    -0.532 OA
ENDBRANCH   5   9
ENDBRANCH   1   3
BRANCH   1  12
ATOM     12  N   UNL d   1      31.900  16.933 -24.132  0.00  0.00    -0.293 N 
ATOM     13  C   UNL d   1      32.178  17.180 -23.391  0.00  0.00     0.100 A 
ATOM     14  C   UNL d   1      32.532  17.921 -23.311  0.00  0.00     0.102 A 
ATOM     15  N   UNL d   1      32.610  18.417 -23.968  0.00  0.00    -0.269 N 
ATOM     16  C   UNL d   1      32.331  18.170 -24.708  0.00  0.00     0.102 A 
ATOM     17  C   UNL d   1      32.964  19.158 -23.887  0.00  0.00     0.265 C 
ATOM     18  C   UNL d   1      31.977  17.429 -24.789  0.00  0.00     0.100 A 
ATOM     19  O   UNL d   1      33.041  19.654 -24.544  0.00  0.00    -0.267 OA
ATOM     20  C   UNL d   1      33.241  19.405 -23.153  0.00  0.00     0.066 C 
ENDBRANCH   1  12
TORSDOF 3
ENDMDL
MODEL 2
REMARK VINA RESULT:      -2.9      1.015      3.956
REMARK  3 active torsions:
REMARK  status: ('A' for Active; 'I' for Inactive)
REMARK    1  A    between atoms: C_7  and  N_1 
REMARK    2  A    between atoms: C_2  and  C_5 
REMARK    3  A    between atoms: N_3  and  C_2 
REMARK       I    between atoms: C_6  and  N_4 
ROOT
ATOM      1  C   UNL d   1      32.105  16.513 -24.229  0.00  0.00     0.120 C 
ATOM      2  S   UNL d   1      32.660  15.914 -24.354  0.00  0.00    -0.059 SA
ENDROOT
BRANCH   1   3
ATOM      3  C   UNL d   1      32.350  17.308 -24.213  0.00  0.00     0.028 A 
ATOM      4  C   UNL d   1      32.490  17.681 -23.488  0.00  0.00     0.026 A 
ATOM      5  C   UNL d   1      32.734  18.469 -23.470  0.00  0.00     0.127 A 
ATOM      6  C   UNL d   1      32.837  18.884 -24.175  0.00  0.00     0.024 A 
ATOM      7  C   UNL d   1      32.697  18.511 -24.899  0.00  0.00     0.002 A 
ATOM      8  C   UNL d   1      32.454  17.723 -24.919  0.00  0.00     0.002 A 
BRANCH   5   9
ATOM      9  N   UNL d   1      32.875  18.846 -22.747  0.00  0.00    -0.114 N 
ATOM     10  O   UNL d   1      33.241  18.447 -22.123  0.00  0.00    -0.532 OA
ATOM     11  O   UNL d   1      32.643  19.633 -22.659  0.00  0.00    -0.532 OA
ENDBRANCH   5   9
ENDBRANCH   1   3
BRANCH   1  12
ATOM     12  N   UNL d   1      31.309  16.324 -24.119  0.00  0.00    -0.293 N 
ATOM     13  C   UNL d   1      31.052  16.020 -23.392  0.00  0.00     0.100 A 
ATOM     14  C   UNL d   1      30.257  15.831 -23.282  0.00  0.00     0.102 A 
ATOM     15  N   UNL d   1      29.715  15.944 -23.897  0.00  0.00    -0.269 N 
ATOM     16  C   UNL d   1      29.972  16.247 -24.624  0.00  0.00     0.102 A 
ATOM     17  C   UNL d   1      28.920  15.754 -23.787  0.00  0.00     0.265 C 
ATOM     18  C   UNL d   1      30.767  16.437 -24.734  0.00  0.00     0.100 A 
ATOM     19  O   UNL d   1      28.378  15.867 -24.401  0.00  0.00    -0.267 OA
ATOM     20  C   UNL d   1      28.663  15.453 -23.065  0.00  0.00     0.066 C 
ENDBRANCH   1  12
TORSDOF 3
ENDMDL
MODEL 3
REMARK VINA RESULT:      -1.2      1.116      3.932
REMARK  3 active torsions:
REMARK  status: ('A' for Active; 'I' for Inactive)
REMARK    1  A    between atoms: C_7  and  N_1 
REMARK    2  A    between atoms: C_2  and  C_5 
REMARK    3  A    between atoms: N_3  and  C_2 
REMARK       I    between atoms: C_6  and  N_4 
ROOT
ATOM      1  C   UNL d   1      31.617  15.871 -23.405  0.00  0.00     0.120 C 
ATOM      2  S   UNL d   1      31.920  15.453 -22.761  0.00  0.00    -0.059 SA
ENDROOT
BRANCH   1   3
ATOM      3  C   UNL d   1      32.110  16.387 -23.833  0.00  0.00     0.028 A 
ATOM      4  C   UNL d   1      32.072  17.202 -23.695  0.00  0.00     0.026 A 
ATOM      5  C   UNL d   1      32.560  17.715 -24.118  0.00  0.00     0.127 A 
ATOM      6  C   UNL d   1      33.086  17.416 -24.678  0.00  0.00     0.024 A 
ATOM      7  C   UNL d   1      33.124  16.601 -24.816  0.00  0.00     0.002 A 
ATOM      8  C   UNL d   1      32.636  16.086 -24.394  0.00  0.00     0.002 A 
BRANCH   5   9
ATOM      9  N   UNL d   1      32.526  18.531 -23.983  0.00  0.00    -0.114 N 
ATOM     10  O   UNL d   1      32.423  19.061 -24.608  0.00  0.00    -0.532 OA
ATOM     11  O   UNL d   1      32.596  18.808 -23.209  0.00  0.00    -0.532 OA
ENDBRANCH   5   9
ENDBRANCH   1   3
BRANCH   1  12
ATOM     12  N   UNL d   1      30.826  15.778 -23.624  0.00  0.00    -0.293 N 
ATOM     13  C   UNL d   1      30.239  15.731 -23.042  0.00  0.00     0.100 A 
ATOM     14  C   UNL d   1      29.448  15.638 -23.261  0.00  0.00     0.102 A 
ATOM     15  N   UNL d   1      29.242  15.593 -24.060  0.00  0.00    -0.269 N 
ATOM     16  C   UNL d   1      29.830  15.640 -24.642  0.00  0.00     0.102 A 
ATOM     17  C   UNL d   1      28.452  15.500 -24.278  0.00  0.00     0.265 C 
ATOM     18  C   UNL d   1      30.620  15.733 -24.424  0.00  0.00     0.100 A 
ATOM     19  O   UNL d   1      28.246  15.454 -25.078  0.00  0.00    -0.267 OA
ATOM     20  C   UNL d   1      27.867  15.453 -23.702  0.00  0.00     0.066 C 
ENDBRANCH   1  12
TORSDOF 3
ENDMDL
MODEL 4
REMARK VINA RESULT:      -0.9      1.949      2.926
REMARK  3 active torsions:
REMARK  status: ('A' for Active; 'I' for Inactive)
REMARK    1  A    between atoms: C_7  and  N_1 
REMARK    2  A    between atoms: C_2  and  C_5 
REMARK    3  A    between atoms: N_3  and  C_2 
REMARK       I    between atoms: C_6  and  N_4 
ROOT
ATOM      1  C   UNL d   1      32.885  18.431 -22.999  0.00  0.00     0.120 C 
ATOM      2  S   UNL d   1      33.241  17.845 -22.537  0.00  0.00    -0.059 SA
ENDROOT
BRANCH   1   3
ATOM      3  C   UNL d   1      32.452  18.218 -23.676  0.00  0.00     0.028 A 
ATOM      4  C   UNL d   1      31.701  17.880 -23.595  0.00  0.00     0.026 A 
ATOM      5  C   UNL d   1      31.269  17.668 -24.264  0.00  0.00     0.127 A 
ATOM      6  C   UNL d   1      31.586  17.793 -25.015  0.00  0.00     0.024 A 
ATOM      7  C   UNL d   1      32.337  18.131 -25.097  0.00  0.00     0.002 A 
ATOM      8  C   UNL d   1      32.770  18.343 -24.427  0.00  0.00     0.002 A 
BRANCH   5   9
ATOM      9  N   UNL d   1      30.518  17.330 -24.188  0.00  0.00    -0.114 N 
ATOM     10  O   UNL d   1      29.836  17.764 -24.362  0.00  0.00    -0.532 OA
ATOM     11  O   UNL d   1      30.460  16.547 -23.934  0.00  0.00    -0.532 OA
ENDBRANCH   5   9
ENDBRANCH   1   3
BRANCH   1  12
ATOM     12  N   UNL d   1      32.960  19.226 -22.788  0.00  0.00    -0.293 N 
ATOM     13  C   UNL d   1      32.977  19.442 -21.989  0.00  0.00     0.100 A 
ATOM     14  C   UNL d   1      33.052  20.237 -21.778  0.00  0.00     0.102 A 
ATOM     15  N   UNL d   1      33.109  20.817 -22.364  0.00  0.00    -0.269 N 
ATOM     16  C   UNL d   1      33.091  20.600 -23.164  0.00  0.00     0.102 A 
ATOM     17  C   UNL d   1      33.184  21.611 -22.154  0.00  0.00     0.265 C 
ATOM     18  C   UNL d   1      33.017  19.806 -23.375  0.00  0.00     0.100 A 
ATOM     19  O   UNL d   1      33.241  22.192 -22.740  0.00  0.00    -0.267 OA
ATOM     20  C   UNL d   1      33.201  21.828 -21.360  0.00  0.00     0.066 C 
ENDBRANCH   1  12
TORSDOF 3
ENDMDL
