MODEL 1
REMARK VINA RESULT:      -2.6      0.000      0.000
REMARK  3 active torsions:
REMARK  status: ('A' for Active; 'I' for Inactive)
REMARK    1  A    between atoms: S_3  and  C_1 
REMARK    2  A    between atoms: C_7  and  N_2 
REMARK    3  A    between atoms: C_11  and  C_7 
ROOT
ATOM      1  C   UNL d   1      31.749  16.222 -23.888  0.00  0.00     0.255 A 
ATOM      2  N   UNL d   1      31.769  16.840 -24.411  0.00  0.00    -0.278 N 
ATOM      3  N   UNL d   1      30.984  16.039 -23.709  0.00  0.00    -0.215 NA
ATOM      4  C   UNL d   1      30.978  17.061 -24.571  0.00  0.00     0.084 A 
ATOM      5  C   UNL d   1      30.489  16.561 -24.134  0.00  0.00     0.100 A 
ATOM      6  C   UNL d   1      30.649  17.643 -25.053  0.00  0.00     0.019 A 
ATOM      7  C   UNL d   1      29.669  16.644 -24.177  0.00  0.00     0.021 A 
ATOM      8  C   UNL d   1      29.829  17.727 -25.097  0.00  0.00     0.002 A 
ATOM      9  C   UNL d   1      29.339  17.228 -24.659  0.00  0.00     0.002 A 
ENDROOT
BRANCH   2  10
ATOM     10  C   UNL d   1      32.439  17.204 -24.740  0.00  0.00     0.082 C 
BRANCH  10  11
ATOM     11  C   UNL d   1      32.644  17.965 -24.523  0.00  0.00     0.018 A 
ATOM     12  C   UNL d   1      32.742  18.559 -25.096  0.00  0.00     0.002 A 
ATOM     13  C   UNL d   1      32.948  19.322 -24.883  0.00  0.00     0.000 A 
ATOM     14  C   UNL d   1      33.060  19.510 -24.100  0.00  0.00     0.000 A 
ATOM     15  C   UNL d   1      32.963  18.918 -23.522  0.00  0.00     0.000 A 
ATOM     16  C   UNL d   1      32.758  18.156 -23.739  0.00  0.00     0.002 A 
ENDBRANCH  10  11
ENDBRANCH   2  10
BRANCH   1  17
ATOM     17  S   UNL d   1      32.412  15.837 -23.585  0.00  0.00     0.174 S 
ATOM     18  O   UNL d   1      32.574  15.527 -24.332  0.00  0.00    -0.589 OA
ATOM     19  O   UNL d   1      33.076  15.453 -23.282  0.00  0.00    -0.589 OA
ATOM     20  O   UNL d   1      32.250  16.148 -22.837  0.00  0.00    -0.589 OA
ENDBRANCH   1  17
TORSDOF 3
ENDMDL
MODEL 2
REMARK VINA RESULT:      -1.6      1.766      3.144
REMARK  3 active torsions:
REMARK  status: ('A' for Active; 'I' for Inactive)
REMARK    1  A    between atoms: S_3  and  C_1 
REMARK    2  A    between atoms: C_7  and  N_2 
REMARK    3  A    between atoms: C_11  and  C_7 
ROOT
ATOM      1  C   UNL d   1      32.639  18.071 -24.117  0.00  0.00     0.255 A 
ATOM      2  N   UNL d   1      32.188  17.458 -24.391  0.00  0.00    -0.278 N 
ATOM      3  N   UNL d   1      33.103  17.820 -23.506  0.00  0.00    -0.215 NA
ATOM      4  C   UNL d   1      32.374  16.783 -23.933  0.00  0.00     0.084 A 
ATOM      5  C   UNL d   1      32.944  17.009 -23.381  0.00  0.00     0.100 A 
ATOM      6  C   UNL d   1      32.099  16.005 -23.949  0.00  0.00     0.019 A 
ATOM      7  C   UNL d   1      33.241  16.457 -22.845  0.00  0.00     0.021 A 
ATOM      8  C   UNL d   1      32.396  15.453 -23.412  0.00  0.00     0.002 A 
ATOM      9  C   UNL d   1      32.967  15.678 -22.860  0.00  0.00     0.002 A 
ENDROOT
BRANCH   2  10
ATOM     10  C   UNL d   1      31.636  17.472 -25.012  0.00  0.00     0.082 C 
BRANCH  10  11
ATOM     11  C   UNL d   1      30.846  17.321 -24.865  0.00  0.00     0.018 A 
ATOM     12  C   UNL d   1      30.500  16.601 -25.097  0.00  0.00     0.002 A 
ATOM     13  C   UNL d   1      29.710  16.446 -24.952  0.00  0.00     0.000 A 
ATOM     14  C   UNL d   1      29.248  17.000 -24.577  0.00  0.00     0.000 A 
ATOM     15  C   UNL d   1      29.590  17.723 -24.342  0.00  0.00     0.000 A 
ATOM     16  C   UNL d   1      30.381  17.875 -24.489  0.00  0.00     0.002 A 
ENDBRANCH  10  11
ENDBRANCH   2  10
BRANCH   1  17
ATOM     17  S   UNL d   1      32.626  18.839 -24.417  0.00  0.00     0.174 S 
ATOM     18  O   UNL d   1      33.035  18.584 -25.087  0.00  0.00    -0.589 OA
ATOM     19  O   UNL d   1      32.613  19.607 -24.718  0.00  0.00    -0.589 OA
ATOM     20  O   UNL d   1      32.217  19.095 -23.747  0.00  0.00    -0.589 OA
ENDBRANCH   1  17
TORSDOF 3
ENDMDL
MODEL 3
REMARK VINA RESULT:      -0.8      2.680      3.349
REMARK  3 active torsions:
REMARK  status: ('A' for Active; 'I' for Inactive)
REMARK    1  A    between atoms: S_3  and  C_1 
REMARK    2  A    between atoms: C_7  and  N_2 
REMARK    3  A    between atoms: C_11  and  C_7 
ROOT
ATOM      1  C   UNL d   1      28.550  16.575 -23.936  0.00  0.00     0.255 A 
ATOM      2  N   UNL d   1      29.297  16.427 -24.209  0.00  0.00    -0.278 N 
ATOM      3  N   UNL d   1      28.367  17.353 -24.046  0.00  0.00    -0.215 NA
ATOM      4  C   UNL d   1      29.605  17.145 -24.507  0.00  0.00     0.084 A 
ATOM      5  C   UNL d   1      29.025  17.723 -24.406  0.00  0.00     0.100 A 
ATOM      6  C   UNL d   1      30.328  17.341 -24.852  0.00  0.00     0.019 A 
ATOM      7  C   UNL d   1      29.167  18.498 -24.650  0.00  0.00     0.021 A 
ATOM      8  C   UNL d   1      30.471  18.117 -25.097  0.00  0.00     0.002 A 
ATOM      9  C   UNL d   1      29.891  18.695 -24.995  0.00  0.00     0.002 A 
ENDROOT
BRANCH   2  10
ATOM     10  C   UNL d   1      29.705  15.702 -24.204  0.00  0.00     0.082 C 
BRANCH  10  11
ATOM     11  C   UNL d   1      30.404  15.625 -23.787  0.00  0.00     0.018 A 
ATOM     12  C   UNL d   1      31.130  15.550 -24.186  0.00  0.00     0.002 A 
ATOM     13  C   UNL d   1      31.832  15.472 -23.773  0.00  0.00     0.000 A 
ATOM     14  C   UNL d   1      31.829  15.466 -22.960  0.00  0.00     0.000 A 
ATOM     15  C   UNL d   1      31.103  15.540 -22.556  0.00  0.00     0.000 A 
ATOM     16  C   UNL d   1      30.403  15.618 -22.973  0.00  0.00     0.002 A 
ENDBRANCH  10  11
ENDBRANCH   2  10
BRANCH   1  17
ATOM     17  S   UNL d   1      28.050  16.014 -23.596  0.00  0.00     0.174 S 
ATOM     18  O   UNL d   1      27.923  15.677 -24.338  0.00  0.00    -0.589 OA
ATOM     19  O   UNL d   1      27.551  15.453 -23.256  0.00  0.00    -0.589 OA
ATOM     20  O   UNL d   1      28.178  16.351 -22.853  0.00  0.00    -0.589 OA
ENDBRANCH   1  17
TORSDOF 3
ENDMDL
MODEL 4
REMARK VINA RESULT:      -0.4      5.817      7.140
REMARK  3 active torsions:
REMARK  status: ('A' for Active; 'I' for Inactive)
REMARK    1  A    between atoms: S_3  and  C_1 
REMARK    2  A    between atoms: C_7  and  N_2 
REMARK    3  A    between atoms: C_11  and  C_7 
ROOT
ATOM      1  C   UNL d   1      32.173  23.330 -20.834  0.00  0.00     0.255 A 
ATOM      2  N   UNL d   1      32.750  22.819 -20.588  0.00  0.00    -0.278 N 
ATOM      3  N   UNL d   1      31.829  23.684 -20.196  0.00  0.00    -0.215 NA
ATOM      4  C   UNL d   1      32.775  22.850 -19.752  0.00  0.00     0.084 A 
ATOM      5  C   UNL d   1      32.201  23.389 -19.508  0.00  0.00     0.100 A 
ATOM      6  C   UNL d   1      33.241  22.461 -19.194  0.00  0.00     0.019 A 
ATOM      7  C   UNL d   1      32.091  23.540 -18.704  0.00  0.00     0.021 A 
ATOM      8  C   UNL d   1      33.131  22.611 -18.389  0.00  0.00     0.002 A 
ATOM      9  C   UNL d   1      32.557  23.151 -18.145  0.00  0.00     0.002 A 
ENDROOT
BRANCH   2  10
ATOM     10  C   UNL d   1      33.241  22.342 -21.059  0.00  0.00     0.082 C 
BRANCH  10  11
ATOM     11  C   UNL d   1      33.119  21.535 -21.096  0.00  0.00     0.018 A 
ATOM     12  C   UNL d   1      32.901  21.170 -21.811  0.00  0.00     0.002 A 
ATOM     13  C   UNL d   1      32.779  20.362 -21.853  0.00  0.00     0.000 A 
ATOM     14  C   UNL d   1      32.870  19.901 -21.190  0.00  0.00     0.000 A 
ATOM     15  C   UNL d   1      33.088  20.262 -20.471  0.00  0.00     0.000 A 
ATOM     16  C   UNL d   1      33.210  21.071 -20.433  0.00  0.00     0.002 A 
ENDBRANCH  10  11
ENDBRANCH   2  10
BRANCH   1  17
ATOM     17  S   UNL d   1      31.968  23.468 -21.621  0.00  0.00     0.174 S 
ATOM     18  O   UNL d   1      32.742  23.701 -21.782  0.00  0.00    -0.589 OA
ATOM     19  O   UNL d   1      31.762  23.605 -22.408  0.00  0.00    -0.589 OA
ATOM     20  O   UNL d   1      31.192  23.234 -21.459  0.00  0.00    -0.589 OA
ENDBRANCH   1  17
TORSDOF 3
ENDMDL
MODEL 5
REMARK VINA RESULT:      -0.2      2.436      2.993
REMARK  3 active torsions:
REMARK  status: ('A' for Active; 'I' for Inactive)
REMARK    1  A    between atoms: S_3  and  C_1 
REMARK    2  A    between atoms: C_7  and  N_2 
REMARK    3  A    between atoms: C_11  and  C_7 
ROOT
ATOM      1  C   UNL d   1      28.891  17.549 -24.006  0.00  0.00     0.255 A 
ATOM      2  N   UNL d   1      29.587  17.170 -24.170  0.00  0.00    -0.278 N 
ATOM      3  N   UNL d   1      28.538  17.209 -23.365  0.00  0.00    -0.215 NA
ATOM      4  C   UNL d   1      29.682  16.559 -23.607  0.00  0.00     0.084 A 
ATOM      5  C   UNL d   1      29.028  16.584 -23.104  0.00  0.00     0.100 A 
ATOM      6  C   UNL d   1      30.271  15.994 -23.490  0.00  0.00     0.019 A 
ATOM      7  C   UNL d   1      28.962  16.043 -22.485  0.00  0.00     0.021 A 
ATOM      8  C   UNL d   1      30.206  15.453 -22.870  0.00  0.00     0.002 A 
ATOM      9  C   UNL d   1      29.552  15.477 -22.368  0.00  0.00     0.002 A 
ENDROOT
BRANCH   2  10
ATOM     10  C   UNL d   1      30.125  17.338 -24.781  0.00  0.00     0.082 C 
BRANCH  10  11
ATOM     11  C   UNL d   1      30.887  17.576 -24.606  0.00  0.00     0.018 A 
ATOM     12  C   UNL d   1      31.540  17.193 -24.949  0.00  0.00     0.002 A 
ATOM     13  C   UNL d   1      32.306  17.427 -24.778  0.00  0.00     0.000 A 
ATOM     14  C   UNL d   1      32.438  18.043 -24.264  0.00  0.00     0.000 A 
ATOM     15  C   UNL d   1      31.786  18.430 -23.917  0.00  0.00     0.000 A 
ATOM     16  C   UNL d   1      31.022  18.193 -24.092  0.00  0.00     0.002 A 
ENDBRANCH  10  11
ENDBRANCH   2  10
BRANCH   1  17
ATOM     17  S   UNL d   1      28.588  18.188 -24.431  0.00  0.00     0.174 S 
ATOM     18  O   UNL d   1      28.510  17.707 -25.097  0.00  0.00    -0.589 OA
ATOM     19  O   UNL d   1      28.285  18.826 -24.856  0.00  0.00    -0.589 OA
ATOM     20  O   UNL d   1      28.667  18.669 -23.764  0.00  0.00    -0.589 OA
ENDBRANCH   1  17
TORSDOF 3
ENDMDL
MODEL 6
REMARK VINA RESULT:      -0.0      1.924      2.677
REMARK  3 active torsions:
REMARK  status: ('A' for Active; 'I' for Inactive)
REMARK    1  A    between atoms: S_3  and  C_1 
REMARK    2  A    between atoms: C_7  and  N_2 
REMARK    3  A    between atoms: C_11  and  C_7 
ROOT
ATOM      1  C   UNL d   1      32.120  18.704 -24.025  0.00  0.00     0.255 A 
ATOM      2  N   UNL d   1      32.273  17.946 -24.261  0.00  0.00    -0.278 N 
ATOM      3  N   UNL d   1      31.342  18.878 -24.147  0.00  0.00    -0.215 NA
ATOM      4  C   UNL d   1      31.558  17.621 -24.547  0.00  0.00     0.084 A 
ATOM      5  C   UNL d   1      30.977  18.202 -24.476  0.00  0.00     0.100 A 
ATOM      6  C   UNL d   1      31.366  16.881 -24.857  0.00  0.00     0.019 A 
ATOM      7  C   UNL d   1      30.204  18.045 -24.715  0.00  0.00     0.021 A 
ATOM      8  C   UNL d   1      30.592  16.723 -25.097  0.00  0.00     0.002 A 
ATOM      9  C   UNL d   1      30.011  17.304 -25.026  0.00  0.00     0.002 A 
ENDROOT
BRANCH   2  10
ATOM     10  C   UNL d   1      32.999  17.542 -24.234  0.00  0.00     0.082 C 
BRANCH  10  11
ATOM     11  C   UNL d   1      33.079  16.865 -23.783  0.00  0.00     0.018 A 
ATOM     12  C   UNL d   1      33.149  16.910 -22.956  0.00  0.00     0.002 A 
ATOM     13  C   UNL d   1      33.229  16.234 -22.501  0.00  0.00     0.000 A 
ATOM     14  C   UNL d   1      33.241  15.503 -22.856  0.00  0.00     0.000 A 
ATOM     15  C   UNL d   1      33.171  15.453 -23.686  0.00  0.00     0.000 A 
ATOM     16  C   UNL d   1      33.092  16.131 -24.137  0.00  0.00     0.002 A 
ENDBRANCH  10  11
ENDBRANCH   2  10
BRANCH   1  17
ATOM     17  S   UNL d   1      32.678  19.223 -23.708  0.00  0.00     0.174 S 
ATOM     18  O   UNL d   1      32.373  19.089 -22.953  0.00  0.00    -0.589 OA
ATOM     19  O   UNL d   1      33.236  19.741 -23.390  0.00  0.00    -0.589 OA
ATOM     20  O   UNL d   1      32.984  19.357 -24.463  0.00  0.00    -0.589 OA
ENDBRANCH   1  17
TORSDOF 3
ENDMDL
MODEL 7
REMARK VINA RESULT:       0.1      1.626      2.284
REMARK  3 active torsions:
REMARK  status: ('A' for Active; 'I' for Inactive)
REMARK    1  A    between atoms: S_3  and  C_1 
REMARK    2  A    between atoms: C_7  and  N_2 
REMARK    3  A    between atoms: C_11  and  C_7 
ROOT
ATOM      1  C   UNL d   1      30.713  17.054 -24.141  0.00  0.00     0.255 A 
ATOM      2  N   UNL d   1      31.451  17.328 -24.325  0.00  0.00    -0.278 N 
ATOM      3  N   UNL d   1      30.769  16.336 -23.777  0.00  0.00    -0.215 NA
ATOM      4  C   UNL d   1      32.005  16.757 -24.066  0.00  0.00     0.084 A 
ATOM      5  C   UNL d   1      31.579  16.139 -23.724  0.00  0.00     0.100 A 
ATOM      6  C   UNL d   1      32.828  16.724 -24.097  0.00  0.00     0.019 A 
ATOM      7  C   UNL d   1      31.977  15.486 -23.413  0.00  0.00     0.021 A 
ATOM      8  C   UNL d   1      33.227  16.071 -23.786  0.00  0.00     0.002 A 
ATOM      9  C   UNL d   1      32.801  15.452 -23.444  0.00  0.00     0.002 A 
ENDROOT
BRANCH   2  10
ATOM     10  C   UNL d   1      31.648  18.042 -24.703  0.00  0.00     0.082 C 
BRANCH  10  11
ATOM     11  C   UNL d   1      32.135  18.584 -24.332  0.00  0.00     0.018 A 
ATOM     12  C   UNL d   1      32.749  18.958 -24.749  0.00  0.00     0.002 A 
ATOM     13  C   UNL d   1      33.239  19.502 -24.383  0.00  0.00     0.000 A 
ATOM     14  C   UNL d   1      33.130  19.685 -23.598  0.00  0.00     0.000 A 
ATOM     15  C   UNL d   1      32.515  19.312 -23.176  0.00  0.00     0.000 A 
ATOM     16  C   UNL d   1      32.028  18.769 -23.546  0.00  0.00     0.002 A 
ENDBRANCH  10  11
ENDBRANCH   2  10
BRANCH   1  17
ATOM     17  S   UNL d   1      30.007  17.450 -24.303  0.00  0.00     0.174 S 
ATOM     18  O   UNL d   1      30.222  17.510 -25.097  0.00  0.00    -0.589 OA
ATOM     19  O   UNL d   1      29.302  17.846 -24.464  0.00  0.00    -0.589 OA
ATOM     20  O   UNL d   1      29.792  17.390 -23.508  0.00  0.00    -0.589 OA
ENDBRANCH   1  17
TORSDOF 3
ENDMDL
