MODEL 1
REMARK VINA RESULT:      -6.4      0.000      0.000
REMARK  3 active torsions:
REMARK  status: ('A' for Active; 'I' for Inactive)
REMARK    1  A    between atoms: C_5  and  C_1 
REMARK    2  A    between atoms: N_8  and  C_5 
REMARK    3  A    between atoms: C_10  and  C_5 
ROOT
ATOM      1  C   UNL d   1     -39.456  14.368  18.238  0.00  0.00     0.067 C 
ENDROOT
BRANCH   1   2
ATOM      2  C   UNL d   1     -39.408  14.540  19.047  0.00  0.00     0.057 A 
ATOM      3  C   UNL d   1     -38.831  15.062  19.314  0.00  0.00     0.214 A 
ATOM      4  C   UNL d   1     -38.785  15.232  20.120  0.00  0.00     0.121 A 
ATOM      5  O   UNL d   1     -38.303  15.416  18.795  0.00  0.00    -0.285 OA
ATOM      6  N   UNL d   1     -38.207  15.756  20.391  0.00  0.00    -0.241 NA
ATOM      7  C   UNL d   1     -39.316  14.879  20.656  0.00  0.00     0.032 A 
ATOM      8  C   UNL d   1     -38.164  15.922  21.191  0.00  0.00     0.099 A 
ATOM      9  C   UNL d   1     -38.696  15.569  21.727  0.00  0.00     0.021 A 
ATOM     10  C   UNL d   1     -39.259  15.056  21.452  0.00  0.00     0.004 A 
ATOM     11  C   UNL d   1     -39.892  14.357  20.384  0.00  0.00     0.059 A 
ATOM     12  C   UNL d   1     -39.939  14.187  19.582  0.00  0.00     0.016 A 
ATOM     13 CL   UNL d   1     -40.407  14.016  20.918  0.00  0.00    -0.082 Cl
ENDBRANCH   1   2
BRANCH   1  14
ATOM     14  N   UNL d   1     -38.956  13.809  17.904  0.00  0.00    -0.304 N 
ATOM     15  C   UNL d   1     -38.964  13.033  18.178  0.00  0.00     0.080 A 
ATOM     16  C   UNL d   1     -38.471  12.468  17.853  0.00  0.00     0.021 A 
ATOM     17  C   UNL d   1     -37.940  13.462  16.955  0.00  0.00     0.021 A 
ATOM     18  C   UNL d   1     -38.442  14.024  17.291  0.00  0.00     0.080 A 
ENDBRANCH   1  14
BRANCH   1  19
ATOM     19  C   UNL d   1     -40.015  14.766  17.760  0.00  0.00     0.016 A 
ATOM     20  C   UNL d   1     -39.819  15.465  17.389  0.00  0.00     0.002 A 
ATOM     21  C   UNL d   1     -40.363  15.858  16.920  0.00  0.00     0.011 A 
ATOM     22  C   UNL d   1     -41.126  15.539  16.821  0.00  0.00     0.058 A 
ATOM     23  C   UNL d   1     -41.328  14.827  17.198  0.00  0.00     0.011 A 
ATOM     24 CL   UNL d   1     -41.677  15.922  16.356  0.00  0.00    -0.082 Cl
ATOM     25  C   UNL d   1     -40.764  14.442  17.669  0.00  0.00     0.002 A 
ENDBRANCH   1  19
TORSDOF 3
ENDMDL
MODEL 2
REMARK VINA RESULT:      -6.2      1.227      2.340
REMARK  3 active torsions:
REMARK  status: ('A' for Active; 'I' for Inactive)
REMARK    1  A    between atoms: C_5  and  C_1 
REMARK    2  A    between atoms: N_8  and  C_5 
REMARK    3  A    between atoms: C_10  and  C_5 
ROOT
ATOM      1  C   UNL d   1     -39.566  14.509  18.221  0.00  0.00     0.067 C 
ENDROOT
BRANCH   1   2
ATOM      2  C   UNL d   1     -39.756  14.657  19.014  0.00  0.00     0.057 A 
ATOM      3  C   UNL d   1     -39.266  15.144  19.461  0.00  0.00     0.214 A 
ATOM      4  C   UNL d   1     -39.457  15.290  20.251  0.00  0.00     0.121 A 
ATOM      5  O   UNL d   1     -38.594  15.486  19.137  0.00  0.00    -0.285 OA
ATOM      6  N   UNL d   1     -38.966  15.779  20.701  0.00  0.00    -0.241 NA
ATOM      7  C   UNL d   1     -40.137  14.949  20.590  0.00  0.00     0.032 A 
ATOM      8  C   UNL d   1     -39.159  15.922  21.484  0.00  0.00     0.099 A 
ATOM      9  C   UNL d   1     -39.839  15.580  21.823  0.00  0.00     0.021 A 
ATOM     10  C   UNL d   1     -40.313  15.102  21.373  0.00  0.00     0.004 A 
ATOM     11  C   UNL d   1     -40.623  14.462  20.138  0.00  0.00     0.059 A 
ATOM     12  C   UNL d   1     -40.435  14.315  19.353  0.00  0.00     0.016 A 
ATOM     13 CL   UNL d   1     -41.288  14.132  20.482  0.00  0.00    -0.082 Cl
ENDBRANCH   1   2
BRANCH   1  14
ATOM     14  N   UNL d   1     -39.785  15.042  17.637  0.00  0.00    -0.304 N 
ATOM     15  C   UNL d   1     -39.211  15.389  17.160  0.00  0.00     0.080 A 
ATOM     16  C   UNL d   1     -39.418  15.922  16.576  0.00  0.00     0.021 A 
ATOM     17  C   UNL d   1     -40.804  15.770  16.940  0.00  0.00     0.021 A 
ATOM     18  C   UNL d   1     -40.583  15.233  17.527  0.00  0.00     0.080 A 
ENDBRANCH   1  14
BRANCH   1  19
ATOM     19  C   UNL d   1     -39.149  13.813  18.016  0.00  0.00     0.016 A 
ATOM     20  C   UNL d   1     -38.371  13.718  18.236  0.00  0.00     0.002 A 
ATOM     21  C   UNL d   1     -37.958  13.039  18.037  0.00  0.00     0.011 A 
ATOM     22  C   UNL d   1     -38.341  12.438  17.604  0.00  0.00     0.058 A 
ATOM     23  C   UNL d   1     -39.135  12.534  17.378  0.00  0.00     0.011 A 
ATOM     24 CL   UNL d   1     -37.940  11.757  17.400  0.00  0.00    -0.082 Cl
ATOM     25  C   UNL d   1     -39.536  13.228  17.588  0.00  0.00     0.002 A 
ENDBRANCH   1  19
TORSDOF 3
ENDMDL
MODEL 3
REMARK VINA RESULT:      -6.1      9.346     10.371
REMARK  3 active torsions:
REMARK  status: ('A' for Active; 'I' for Inactive)
REMARK    1  A    between atoms: C_5  and  C_1 
REMARK    2  A    between atoms: N_8  and  C_5 
REMARK    3  A    between atoms: C_10  and  C_5 
ROOT
ATOM      1  C   UNL d   1     -48.246  12.836  22.533  0.00  0.00     0.067 C 
ENDROOT
BRANCH   1   2
ATOM      2  C   UNL d   1     -48.862  13.379  22.426  0.00  0.00     0.057 A 
ATOM      3  C   UNL d   1     -49.013  13.938  23.010  0.00  0.00     0.214 A 
ATOM      4  C   UNL d   1     -49.627  14.478  22.901  0.00  0.00     0.121 A 
ATOM      5  O   UNL d   1     -48.566  13.967  23.698  0.00  0.00    -0.285 OA
ATOM      6  N   UNL d   1     -49.781  15.039  23.487  0.00  0.00    -0.241 NA
ATOM      7  C   UNL d   1     -50.088  14.457  22.208  0.00  0.00     0.032 A 
ATOM      8  C   UNL d   1     -50.391  15.573  23.376  0.00  0.00     0.099 A 
ATOM      9  C   UNL d   1     -50.851  15.553  22.682  0.00  0.00     0.021 A 
ATOM     10  C   UNL d   1     -50.693  14.999  22.113  0.00  0.00     0.004 A 
ATOM     11  C   UNL d   1     -49.933  13.897  21.625  0.00  0.00     0.059 A 
ATOM     12  C   UNL d   1     -49.323  13.359  21.732  0.00  0.00     0.016 A 
ATOM     13 CL   UNL d   1     -50.391  13.886  20.949  0.00  0.00    -0.082 Cl
ENDBRANCH   1   2
BRANCH   1  14
ATOM     14  N   UNL d   1     -48.412  12.054  22.722  0.00  0.00    -0.304 N 
ATOM     15  C   UNL d   1     -48.436  11.483  22.129  0.00  0.00     0.080 A 
ATOM     16  C   UNL d   1     -48.601  10.703  22.306  0.00  0.00     0.021 A 
ATOM     17  C   UNL d   1     -48.724  11.053  23.698  0.00  0.00     0.021 A 
ATOM     18  C   UNL d   1     -48.557  11.838  23.508  0.00  0.00     0.080 A 
ENDBRANCH   1  14
BRANCH   1  19
ATOM     19  C   UNL d   1     -47.452  13.084  22.449  0.00  0.00     0.016 A 
ATOM     20  C   UNL d   1     -47.000  13.251  23.107  0.00  0.00     0.002 A 
ATOM     21  C   UNL d   1     -46.221  13.495  23.029  0.00  0.00     0.011 A 
ATOM     22  C   UNL d   1     -45.889  13.573  22.270  0.00  0.00     0.058 A 
ATOM     23  C   UNL d   1     -46.349  13.404  21.598  0.00  0.00     0.011 A 
ATOM     24 CL   UNL d   1     -45.115  13.815  22.181  0.00  0.00    -0.082 Cl
ATOM     25  C   UNL d   1     -47.135  13.158  21.695  0.00  0.00     0.002 A 
ENDBRANCH   1  19
TORSDOF 3
ENDMDL
MODEL 4
REMARK VINA RESULT:      -5.7      9.227     10.188
REMARK  3 active torsions:
REMARK  status: ('A' for Active; 'I' for Inactive)
REMARK    1  A    between atoms: C_5  and  C_1 
REMARK    2  A    between atoms: N_8  and  C_5 
REMARK    3  A    between atoms: C_10  and  C_5 
ROOT
ATOM      1  C   UNL d   1     -48.919  13.312  22.179  0.00  0.00     0.067 C 
ENDROOT
BRANCH   1   2
ATOM      2  C   UNL d   1     -48.180  13.028  22.426  0.00  0.00     0.057 A 
ATOM      3  C   UNL d   1     -48.137  12.306  22.817  0.00  0.00     0.214 A 
ATOM      4  C   UNL d   1     -47.401  12.025  23.062  0.00  0.00     0.121 A 
ATOM      5  O   UNL d   1     -48.810  11.861  22.968  0.00  0.00    -0.285 OA
ATOM      6  N   UNL d   1     -47.355  11.300  23.455  0.00  0.00    -0.241 NA
ATOM      7  C   UNL d   1     -46.711  12.467  22.914  0.00  0.00     0.032 A 
ATOM      8  C   UNL d   1     -46.623  11.024  23.697  0.00  0.00     0.099 A 
ATOM      9  C   UNL d   1     -45.933  11.467  23.549  0.00  0.00     0.021 A 
ATOM     10  C   UNL d   1     -45.988  12.176  23.163  0.00  0.00     0.004 A 
ATOM     11  C   UNL d   1     -46.759  13.189  22.522  0.00  0.00     0.059 A 
ATOM     12  C   UNL d   1     -47.490  13.470  22.278  0.00  0.00     0.016 A 
ATOM     13 CL   UNL d   1     -46.076  13.615  22.383  0.00  0.00    -0.082 Cl
ENDBRANCH   1   2
BRANCH   1  14
ATOM     14  N   UNL d   1     -49.314  12.949  21.558  0.00  0.00    -0.304 N 
ATOM     15  C   UNL d   1     -50.054  12.609  21.683  0.00  0.00     0.080 A 
ATOM     16  C   UNL d   1     -50.457  12.245  21.072  0.00  0.00     0.021 A 
ATOM     17  C   UNL d   1     -49.369  12.559  20.180  0.00  0.00     0.021 A 
ATOM     18  C   UNL d   1     -48.972  12.924  20.804  0.00  0.00     0.080 A 
ENDBRANCH   1  14
BRANCH   1  19
ATOM     19  C   UNL d   1     -49.262  13.970  22.564  0.00  0.00     0.016 A 
ATOM     20  C   UNL d   1     -49.853  13.863  23.115  0.00  0.00     0.002 A 
ATOM     21  C   UNL d   1     -50.193  14.505  23.495  0.00  0.00     0.011 A 
ATOM     22  C   UNL d   1     -49.929  15.275  23.316  0.00  0.00     0.058 A 
ATOM     23  C   UNL d   1     -49.326  15.385  22.755  0.00  0.00     0.011 A 
ATOM     24 CL   UNL d   1     -50.260  15.922  23.688  0.00  0.00    -0.082 Cl
ATOM     25  C   UNL d   1     -48.994  14.724  22.380  0.00  0.00     0.002 A 
ENDBRANCH   1  19
TORSDOF 3
ENDMDL
MODEL 5
REMARK VINA RESULT:      -5.4      2.106      3.330
REMARK  3 active torsions:
REMARK  status: ('A' for Active; 'I' for Inactive)
REMARK    1  A    between atoms: C_5  and  C_1 
REMARK    2  A    between atoms: N_8  and  C_5 
REMARK    3  A    between atoms: C_10  and  C_5 
ROOT
ATOM      1  C   UNL d   1     -39.783  15.031  20.726  0.00  0.00     0.067 C 
ENDROOT
BRANCH   1   2
ATOM      2  C   UNL d   1     -39.365  14.866  21.422  0.00  0.00     0.057 A 
ATOM      3  C   UNL d   1     -39.186  14.085  21.608  0.00  0.00     0.214 A 
ATOM      4  C   UNL d   1     -38.770  13.922  22.302  0.00  0.00     0.121 A 
ATOM      5  O   UNL d   1     -39.414  13.466  21.118  0.00  0.00    -0.285 OA
ATOM      6  N   UNL d   1     -38.590  13.138  22.491  0.00  0.00    -0.241 NA
ATOM      7  C   UNL d   1     -38.534  14.541  22.806  0.00  0.00     0.032 A 
ATOM      8  C   UNL d   1     -38.177  12.980  23.179  0.00  0.00     0.099 A 
ATOM      9  C   UNL d   1     -37.941  13.599  23.684  0.00  0.00     0.021 A 
ATOM     10  C   UNL d   1     -38.122  14.364  23.490  0.00  0.00     0.004 A 
ATOM     11  C   UNL d   1     -38.715  15.321  22.616  0.00  0.00     0.059 A 
ATOM     12  C   UNL d   1     -39.129  15.485  21.927  0.00  0.00     0.016 A 
ATOM     13 CL   UNL d   1     -38.478  15.920  23.118  0.00  0.00    -0.082 Cl
ENDBRANCH   1   2
BRANCH   1  14
ATOM     14  N   UNL d   1     -40.601  15.101  20.742  0.00  0.00    -0.304 N 
ATOM     15  C   UNL d   1     -40.949  15.840  20.851  0.00  0.00     0.080 A 
ATOM     16  C   UNL d   1     -41.762  15.921  20.869  0.00  0.00     0.021 A 
ATOM     17  C   UNL d   1     -41.899  14.502  20.664  0.00  0.00     0.021 A 
ATOM     18  C   UNL d   1     -41.078  14.431  20.648  0.00  0.00     0.080 A 
ENDBRANCH   1  14
BRANCH   1  19
ATOM     19  C   UNL d   1     -39.370  15.128  20.005  0.00  0.00     0.016 A 
ATOM     20  C   UNL d   1     -38.975  15.823  19.845  0.00  0.00     0.002 A 
ATOM     21  C   UNL d   1     -38.569  15.922  19.140  0.00  0.00     0.011 A 
ATOM     22  C   UNL d   1     -38.561  15.304  18.581  0.00  0.00     0.058 A 
ATOM     23  C   UNL d   1     -38.963  14.595  18.743  0.00  0.00     0.011 A 
ATOM     24 CL   UNL d   1     -38.160  15.392  17.876  0.00  0.00    -0.082 Cl
ATOM     25  C   UNL d   1     -39.368  14.512  19.461  0.00  0.00     0.002 A 
ENDBRANCH   1  19
TORSDOF 3
ENDMDL
MODEL 6
REMARK VINA RESULT:      -5.4      9.304     10.377
REMARK  3 active torsions:
REMARK  status: ('A' for Active; 'I' for Inactive)
REMARK    1  A    between atoms: C_5  and  C_1 
REMARK    2  A    between atoms: N_8  and  C_5 
REMARK    3  A    between atoms: C_10  and  C_5 
ROOT
ATOM      1  C   UNL d   1     -49.046  13.618  22.709  0.00  0.00     0.067 C 
ENDROOT
BRANCH   1   2
ATOM      2  C   UNL d   1     -48.277  13.445  22.452  0.00  0.00     0.057 A 
ATOM      3  C   UNL d   1     -47.641  13.614  22.945  0.00  0.00     0.214 A 
ATOM      4  C   UNL d   1     -46.876  13.441  22.687  0.00  0.00     0.121 A 
ATOM      5  O   UNL d   1     -47.752  13.949  23.686  0.00  0.00    -0.285 OA
ATOM      6  N   UNL d   1     -46.235  13.609  23.181  0.00  0.00    -0.241 NA
ATOM      7  C   UNL d   1     -46.751  13.100  21.937  0.00  0.00     0.032 A 
ATOM      8  C   UNL d   1     -45.478  13.437  22.922  0.00  0.00     0.099 A 
ATOM      9  C   UNL d   1     -45.354  13.096  22.172  0.00  0.00     0.021 A 
ATOM     10  C   UNL d   1     -45.988  12.935  21.695  0.00  0.00     0.004 A 
ATOM     11  C   UNL d   1     -47.391  12.934  21.448  0.00  0.00     0.059 A 
ATOM     12  C   UNL d   1     -48.153  13.105  21.702  0.00  0.00     0.016 A 
ATOM     13 CL   UNL d   1     -47.257  12.599  20.714  0.00  0.00    -0.082 Cl
ENDBRANCH   1   2
BRANCH   1  14
ATOM     14  N   UNL d   1     -49.315  14.394  22.716  0.00  0.00    -0.304 N 
ATOM     15  C   UNL d   1     -49.477  14.780  22.007  0.00  0.00     0.080 A 
ATOM     16  C   UNL d   1     -49.745  15.551  22.002  0.00  0.00     0.021 A 
ATOM     17  C   UNL d   1     -49.693  15.569  23.442  0.00  0.00     0.021 A 
ATOM     18  C   UNL d   1     -49.423  14.790  23.435  0.00  0.00     0.080 A 
ENDBRANCH   1  14
BRANCH   1  19
ATOM     19  C   UNL d   1     -49.549  13.000  22.962  0.00  0.00     0.016 A 
ATOM     20  C   UNL d   1     -49.265  12.409  23.447  0.00  0.00     0.002 A 
ATOM     21  C   UNL d   1     -49.755  11.801  23.698  0.00  0.00     0.011 A 
ATOM     22  C   UNL d   1     -50.551  11.788  23.454  0.00  0.00     0.058 A 
ATOM     23  C   UNL d   1     -50.842  12.390  22.960  0.00  0.00     0.011 A 
ATOM     24 CL   UNL d   1     -51.048  11.188  23.697  0.00  0.00    -0.082 Cl
ATOM     25  C   UNL d   1     -50.333  12.997  22.716  0.00  0.00     0.002 A 
ENDBRANCH   1  19
TORSDOF 3
ENDMDL
MODEL 7
REMARK VINA RESULT:      -4.9      1.505      4.093
REMARK  3 active torsions:
REMARK  status: ('A' for Active; 'I' for Inactive)
REMARK    1  A    between atoms: C_5  and  C_1 
REMARK    2  A    between atoms: N_8  and  C_5 
REMARK    3  A    between atoms: C_10  and  C_5 
ROOT
ATOM      1  C   UNL d   1     -40.217  14.696  20.393  0.00  0.00     0.067 C 
ENDROOT
BRANCH   1   2
ATOM      2  C   UNL d   1     -40.020  14.670  19.588  0.00  0.00     0.057 A 
ATOM      3  C   UNL d   1     -39.651  14.001  19.285  0.00  0.00     0.214 A 
ATOM      4  C   UNL d   1     -39.456  13.977  18.484  0.00  0.00     0.121 A 
ATOM      5  O   UNL d   1     -39.474  13.358  19.764  0.00  0.00    -0.285 OA
ATOM      6  N   UNL d   1     -39.085  13.306  18.177  0.00  0.00    -0.241 NA
ATOM      7  C   UNL d   1     -39.631  14.624  17.988  0.00  0.00     0.032 A 
ATOM      8  C   UNL d   1     -38.893  13.286  17.382  0.00  0.00     0.099 A 
ATOM      9  C   UNL d   1     -39.068  13.933  16.887  0.00  0.00     0.021 A 
ATOM     10  C   UNL d   1     -39.432  14.587  17.196  0.00  0.00     0.004 A 
ATOM     11  C   UNL d   1     -40.000  15.292  18.296  0.00  0.00     0.059 A 
ATOM     12  C   UNL d   1     -40.195  15.317  19.093  0.00  0.00     0.016 A 
ATOM     13 CL   UNL d   1     -40.167  15.920  17.801  0.00  0.00    -0.082 Cl
ENDBRANCH   1   2
BRANCH   1  14
ATOM     14  N   UNL d   1     -40.976  14.503  20.639  0.00  0.00    -0.304 N 
ATOM     15  C   UNL d   1     -41.534  15.097  20.759  0.00  0.00     0.080 A 
ATOM     16  C   UNL d   1     -42.292  14.917  21.004  0.00  0.00     0.021 A 
ATOM     17  C   UNL d   1     -41.947  13.518  21.013  0.00  0.00     0.021 A 
ATOM     18  C   UNL d   1     -41.184  13.712  20.766  0.00  0.00     0.080 A 
ENDBRANCH   1  14
BRANCH   1  19
ATOM     19  C   UNL d   1     -39.640  14.919  20.956  0.00  0.00     0.016 A 
ATOM     20  C   UNL d   1     -39.408  15.698  21.021  0.00  0.00     0.002 A 
ATOM     21  C   UNL d   1     -38.843  15.921  21.572  0.00  0.00     0.011 A 
ATOM     22  C   UNL d   1     -38.504  15.345  22.069  0.00  0.00     0.058 A 
ATOM     23  C   UNL d   1     -38.740  14.552  22.003  0.00  0.00     0.011 A 
ATOM     24 CL   UNL d   1     -37.940  15.556  22.621  0.00  0.00    -0.082 Cl
ATOM     25  C   UNL d   1     -39.313  14.343  21.441  0.00  0.00     0.002 A 
ENDBRANCH   1  19
TORSDOF 3
ENDMDL
MODEL 8
REMARK VINA RESULT:      -4.8      1.614      2.066
REMARK  3 active torsions:
REMARK  status: ('A' for Active; 'I' for Inactive)
REMARK    1  A    between atoms: C_5  and  C_1 
REMARK    2  A    between atoms: N_8  and  C_5 
REMARK    3  A    between atoms: C_10  and  C_5 
ROOT
ATOM      1  C   UNL d   1     -38.841  14.049  18.176  0.00  0.00     0.067 C 
ENDROOT
BRANCH   1   2
ATOM      2  C   UNL d   1     -39.168  14.383  18.860  0.00  0.00     0.057 A 
ATOM      3  C   UNL d   1     -39.959  14.247  19.036  0.00  0.00     0.214 A 
ATOM      4  C   UNL d   1     -40.283  14.581  19.718  0.00  0.00     0.121 A 
ATOM      5  O   UNL d   1     -40.432  13.785  18.548  0.00  0.00    -0.285 OA
ATOM      6  N   UNL d   1     -41.078  14.444  19.896  0.00  0.00    -0.241 NA
ATOM      7  C   UNL d   1     -39.814  15.050  20.220  0.00  0.00     0.032 A 
ATOM      8  C   UNL d   1     -41.396  14.777  20.573  0.00  0.00     0.099 A 
ATOM      9  C   UNL d   1     -40.926  15.247  21.076  0.00  0.00     0.021 A 
ATOM     10  C   UNL d   1     -40.148  15.375  20.892  0.00  0.00     0.004 A 
ATOM     11  C   UNL d   1     -39.022  15.184  20.040  0.00  0.00     0.059 A 
ATOM     12  C   UNL d   1     -38.698  14.853  19.363  0.00  0.00     0.016 A 
ATOM     13 CL   UNL d   1     -38.571  15.647  20.540  0.00  0.00    -0.082 Cl
ENDBRANCH   1   2
BRANCH   1  14
ATOM     14  N   UNL d   1     -38.632  13.255  18.164  0.00  0.00    -0.304 N 
ATOM     15  C   UNL d   1     -38.902  12.767  17.558  0.00  0.00     0.080 A 
ATOM     16  C   UNL d   1     -38.700  11.976  17.535  0.00  0.00     0.021 A 
ATOM     17  C   UNL d   1     -37.940  12.145  18.748  0.00  0.00     0.021 A 
ATOM     18  C   UNL d   1     -38.149  12.942  18.760  0.00  0.00     0.080 A 
ENDBRANCH   1  14
BRANCH   1  19
ATOM     19  C   UNL d   1     -38.723  14.522  17.496  0.00  0.00     0.016 A 
ATOM     20  C   UNL d   1     -39.244  14.480  16.870  0.00  0.00     0.002 A 
ATOM     21  C   UNL d   1     -39.133  14.941  16.202  0.00  0.00     0.011 A 
ATOM     22  C   UNL d   1     -38.480  15.458  16.163  0.00  0.00     0.058 A 
ATOM     23  C   UNL d   1     -37.949  15.501  16.800  0.00  0.00     0.011 A 
ATOM     24 CL   UNL d   1     -38.360  15.922  15.502  0.00  0.00    -0.082 Cl
ATOM     25  C   UNL d   1     -38.077  15.027  17.469  0.00  0.00     0.002 A 
ENDBRANCH   1  19
TORSDOF 3
ENDMDL
MODEL 9
REMARK VINA RESULT:      -4.0      2.122      3.210
REMARK  3 active torsions:
REMARK  status: ('A' for Active; 'I' for Inactive)
REMARK    1  A    between atoms: C_5  and  C_1 
REMARK    2  A    between atoms: N_8  and  C_5 
REMARK    3  A    between atoms: C_10  and  C_5 
ROOT
ATOM      1  C   UNL d   1     -40.241  14.538  20.684  0.00  0.00     0.067 C 
ENDROOT
BRANCH   1   2
ATOM      2  C   UNL d   1     -39.681  14.552  21.294  0.00  0.00     0.057 A 
ATOM      3  C   UNL d   1     -39.610  15.226  21.761  0.00  0.00     0.214 A 
ATOM      4  C   UNL d   1     -39.052  15.238  22.368  0.00  0.00     0.121 A 
ATOM      5  O   UNL d   1     -40.083  15.884  21.633  0.00  0.00    -0.285 OA
ATOM      6  N   UNL d   1     -38.980  15.914  22.838  0.00  0.00    -0.241 NA
ATOM      7  C   UNL d   1     -38.566  14.575  22.507  0.00  0.00     0.032 A 
ATOM      8  C   UNL d   1     -38.425  15.922  23.439  0.00  0.00     0.099 A 
ATOM      9  C   UNL d   1     -37.940  15.260  23.578  0.00  0.00     0.021 A 
ATOM     10  C   UNL d   1     -38.018  14.602  23.113  0.00  0.00     0.004 A 
ATOM     11  C   UNL d   1     -38.641  13.903  22.038  0.00  0.00     0.059 A 
ATOM     12  C   UNL d   1     -39.195  13.889  21.433  0.00  0.00     0.016 A 
ATOM     13 CL   UNL d   1     -38.159  13.259  22.183  0.00  0.00    -0.082 Cl
ENDBRANCH   1   2
BRANCH   1  14
ATOM     14  N   UNL d   1     -40.051  14.835  19.943  0.00  0.00    -0.304 N 
ATOM     15  C   UNL d   1     -40.236  15.615  19.752  0.00  0.00     0.080 A 
ATOM     16  C   UNL d   1     -40.052  15.922  19.017  0.00  0.00     0.021 A 
ATOM     17  C   UNL d   1     -39.483  14.653  18.640  0.00  0.00     0.021 A 
ATOM     18  C   UNL d   1     -39.674  14.354  19.385  0.00  0.00     0.080 A 
ENDBRANCH   1  14
BRANCH   1  19
ATOM     19  C   UNL d   1     -41.001  14.219  20.823  0.00  0.00     0.016 A 
ATOM     20  C   UNL d   1     -41.633  14.711  20.975  0.00  0.00     0.002 A 
ATOM     21  C   UNL d   1     -42.380  14.404  21.112  0.00  0.00     0.011 A 
ATOM     22  C   UNL d   1     -42.494  13.579  21.096  0.00  0.00     0.058 A 
ATOM     23  C   UNL d   1     -41.851  13.076  20.942  0.00  0.00     0.011 A 
ATOM     24 CL   UNL d   1     -43.234  13.261  21.231  0.00  0.00    -0.082 Cl
ATOM     25  C   UNL d   1     -41.102  13.404  20.805  0.00  0.00     0.002 A 
ENDBRANCH   1  19
TORSDOF 3
ENDMDL
