MODEL 1
REMARK VINA RESULT:      25.2      0.000      0.000
REMARK  4 active torsions:
REMARK  status: ('A' for Active; 'I' for Inactive)
REMARK    1  A    between atoms: C_5  and  N_1 
REMARK    2  A    between atoms: C_7  and  C_3 
REMARK    3  A    between atoms: C_10  and  C_4 
REMARK    4  A    between atoms: N_11  and  C_5 
ROOT
ATOM      1  N   UNL d   1      14.295  12.395  -1.270  0.00  0.00    -0.203 N 
ATOM      2  N   UNL d   1      13.913  12.069  -1.931  0.00  0.00    -0.163 NA
ATOM      3  C   UNL d   1      14.501  13.173  -1.444  0.00  0.00     0.088 A 
ATOM      4  C   UNL d   1      13.885  12.660  -2.521  0.00  0.00     0.103 A 
ATOM      5  C   UNL d   1      14.247  13.337  -2.219  0.00  0.00     0.040 A 
ENDROOT
BRANCH   3   6
ATOM      6  C   UNL d   1      14.891  13.728  -0.966  0.00  0.00     0.028 A 
ATOM      7  C   UNL d   1      14.617  14.495  -0.928  0.00  0.00     0.059 A 
ATOM      8 CL   UNL d   1      14.228  14.588  -1.196  0.00  0.00    -0.082 Cl
ATOM      9  C   UNL d   1      15.000  15.053  -0.453  0.00  0.00     0.011 A 
ATOM     10  C   UNL d   1      15.660  14.839  -0.017  0.00  0.00     0.001 A 
ATOM     11  C   UNL d   1      15.928  14.055  -0.065  0.00  0.00     0.000 A 
ATOM     12  C   UNL d   1      15.544  13.518  -0.533  0.00  0.00     0.002 A 
ENDBRANCH   3   6
BRANCH   1  13
ATOM     13  C   UNL d   1      14.442  11.984  -0.546  0.00  0.00     0.222 C 
ATOM     14  S   UNL d   1      15.224  11.780  -0.352  0.00  0.00    -0.037 SA
BRANCH  13  15
ATOM     15  N   UNL d   1      13.809  11.792  -0.041  0.00  0.00    -0.214 NA
ATOM     16  C   UNL d   1      13.033  12.058  -0.231  0.00  0.00     0.122 C 
ENDBRANCH  13  15
ENDBRANCH   1  13
BRANCH   4  17
ATOM     17  C   UNL d   1      13.555  12.568  -3.258  0.00  0.00     0.019 A 
ATOM     18  C   UNL d   1      13.144  13.198  -3.598  0.00  0.00     0.002 A 
ATOM     19  C   UNL d   1      12.805  13.117  -4.346  0.00  0.00     0.000 A 
ATOM     20  C   UNL d   1      12.873  12.408  -4.757  0.00  0.00     0.000 A 
ATOM     21  C   UNL d   1      13.279  11.780  -4.425  0.00  0.00     0.000 A 
ATOM     22  C   UNL d   1      13.618  11.861  -3.677  0.00  0.00     0.002 A 
ENDBRANCH   4  17
TORSDOF 4
ENDMDL
