MODEL 1
REMARK VINA RESULT:      -8.1      0.000      0.000
REMARK  5 active torsions:
REMARK  status: ('A' for Active; 'I' for Inactive)
REMARK    1  A    between atoms: N_2  and  S_1 
REMARK    2  A    between atoms: C_8  and  S_1 
REMARK    3  A    between atoms: S_7  and  C_3 
REMARK    4  A    between atoms: C_11  and  S_7 
REMARK    5  A    between atoms: C_12  and  C_11 
ROOT
ATOM      1  N   UNL d   1      53.392  31.629  53.434  0.00  0.00    -0.208 N 
ATOM      2  C   UNL d   1      53.039  32.367  53.591  0.00  0.00     0.189 A 
ATOM      3  N   UNL d   1      53.451  32.722  54.219  0.00  0.00    -0.219 NA
ATOM      4  C   UNL d   1      54.025  31.528  53.967  0.00  0.00     0.114 A 
ATOM      5  C   UNL d   1      54.057  32.201  54.447  0.00  0.00     0.121 A 
ENDROOT
BRANCH   1   6
ATOM      6  S   UNL d   1      53.152  31.092  52.848  0.00  0.00     0.273 S 
ATOM      7  O   UNL d   1      53.196  31.711  52.312  0.00  0.00    -0.200 OA
ATOM      8  O   UNL d   1      52.933  30.763  52.118  0.00  0.00    -0.200 OA
BRANCH   6   9
ATOM      9  C   UNL d   1      53.101  30.454  53.374  0.00  0.00     0.104 A 
ATOM     10  C   UNL d   1      52.368  30.232  53.669  0.00  0.00     0.013 A 
ATOM     11  C   UNL d   1      52.319  29.598  54.193  0.00  0.00     0.001 A 
ATOM     12  C   UNL d   1      53.001  29.192  54.416  0.00  0.00     0.000 A 
ATOM     13  C   UNL d   1      53.732  29.419  54.118  0.00  0.00     0.001 A 
ATOM     14  C   UNL d   1      53.778  30.057  53.591  0.00  0.00     0.013 A 
ENDBRANCH   6   9
ENDBRANCH   1   6
BRANCH   2  15
ATOM     15  S   UNL d   1      52.386  32.693  53.188  0.00  0.00    -0.049 SA
BRANCH  15  16
ATOM     16  C   UNL d   1      52.128  33.457  53.373  0.00  0.00     0.038 C 
BRANCH  16  17
ATOM     17  C   UNL d   1      51.454  33.768  52.996  0.00  0.00     0.007 A 
ATOM     18  C   UNL d   1      51.522  34.152  52.261  0.00  0.00     0.001 A 
ATOM     19  C   UNL d   1      50.860  34.461  51.885  0.00  0.00     0.000 A 
ATOM     20  C   UNL d   1      50.118  34.389  52.241  0.00  0.00     0.000 A 
ATOM     21  C   UNL d   1      50.047  34.006  52.976  0.00  0.00     0.000 A 
ATOM     22  C   UNL d   1      49.449  34.696  51.870  0.00  0.00     0.000 C 
ATOM     23  C   UNL d   1      50.715  33.697  53.350  0.00  0.00     0.001 A 
ENDBRANCH  16  17
ENDBRANCH  15  16
ENDBRANCH   2  15
TORSDOF 5
ENDMDL
MODEL 2
REMARK VINA RESULT:      -7.6      1.455      4.367
REMARK  5 active torsions:
REMARK  status: ('A' for Active; 'I' for Inactive)
REMARK    1  A    between atoms: N_2  and  S_1 
REMARK    2  A    between atoms: C_8  and  S_1 
REMARK    3  A    between atoms: S_7  and  C_3 
REMARK    4  A    between atoms: C_11  and  S_7 
REMARK    5  A    between atoms: C_12  and  C_11 
ROOT
ATOM      1  N   UNL d   1      53.054  33.270  53.088  0.00  0.00    -0.208 N 
ATOM      2  C   UNL d   1      52.697  32.519  53.035  0.00  0.00     0.189 A 
ATOM      3  N   UNL d   1      51.948  32.613  52.690  0.00  0.00    -0.219 NA
ATOM      4  C   UNL d   1      52.521  33.829  52.774  0.00  0.00     0.114 A 
ATOM      5  C   UNL d   1      51.844  33.421  52.531  0.00  0.00     0.121 A 
ENDROOT
BRANCH   1   6
ATOM      6  S   UNL d   1      53.807  33.429  53.399  0.00  0.00     0.273 S 
ATOM      7  O   UNL d   1      54.102  32.868  52.878  0.00  0.00    -0.200 OA
ATOM      8  O   UNL d   1      54.625  33.410  53.541  0.00  0.00    -0.200 OA
BRANCH   6   9
ATOM      9  C   UNL d   1      53.528  33.998  53.933  0.00  0.00     0.104 A 
ATOM     10  C   UNL d   1      53.442  33.799  54.725  0.00  0.00     0.013 A 
ATOM     11  C   UNL d   1      53.164  34.366  55.254  0.00  0.00     0.001 A 
ATOM     12  C   UNL d   1      52.976  35.123  54.989  0.00  0.00     0.000 A 
ATOM     13  C   UNL d   1      53.065  35.316  54.196  0.00  0.00     0.001 A 
ATOM     14  C   UNL d   1      53.345  34.744  53.665  0.00  0.00     0.013 A 
ENDBRANCH   6   9
ENDBRANCH   1   6
BRANCH   2  15
ATOM     15  S   UNL d   1      53.035  31.799  53.286  0.00  0.00    -0.049 SA
BRANCH  15  16
ATOM     16  C   UNL d   1      52.606  31.096  53.208  0.00  0.00     0.038 C 
BRANCH  16  17
ATOM     17  C   UNL d   1      52.867  30.408  53.599  0.00  0.00     0.007 A 
ATOM     18  C   UNL d   1      52.750  30.318  54.418  0.00  0.00     0.001 A 
ATOM     19  C   UNL d   1      53.005  29.642  54.808  0.00  0.00     0.000 A 
ATOM     20  C   UNL d   1      53.383  29.044  54.381  0.00  0.00     0.000 A 
ATOM     21  C   UNL d   1      53.502  29.130  53.563  0.00  0.00     0.000 A 
ATOM     22  C   UNL d   1      53.643  28.362  54.765  0.00  0.00     0.000 C 
ATOM     23  C   UNL d   1      53.244  29.811  53.175  0.00  0.00     0.001 A 
ENDBRANCH  16  17
ENDBRANCH  15  16
ENDBRANCH   2  15
TORSDOF 5
ENDMDL
MODEL 3
REMARK VINA RESULT:      -7.2      2.014      2.779
REMARK  5 active torsions:
REMARK  status: ('A' for Active; 'I' for Inactive)
REMARK    1  A    between atoms: N_2  and  S_1 
REMARK    2  A    between atoms: C_8  and  S_1 
REMARK    3  A    between atoms: S_7  and  C_3 
REMARK    4  A    between atoms: C_11  and  S_7 
REMARK    5  A    between atoms: C_12  and  C_11 
ROOT
ATOM      1  N   UNL d   1      52.980  33.487  53.191  0.00  0.00    -0.208 N 
ATOM      2  C   UNL d   1      52.191  33.323  52.980  0.00  0.00     0.189 A 
ATOM      3  N   UNL d   1      52.142  32.523  52.766  0.00  0.00    -0.219 NA
ATOM      4  C   UNL d   1      53.420  32.785  53.106  0.00  0.00     0.114 A 
ATOM      5  C   UNL d   1      52.902  32.195  52.845  0.00  0.00     0.121 A 
ENDROOT
BRANCH   1   6
ATOM      6  S   UNL d   1      53.272  34.224  53.441  0.00  0.00     0.273 S 
ATOM      7  O   UNL d   1      52.887  34.555  52.797  0.00  0.00    -0.200 OA
ATOM      8  O   UNL d   1      53.436  35.037  53.485  0.00  0.00    -0.200 OA
BRANCH   6   9
ATOM      9  C   UNL d   1      53.668  33.907  54.097  0.00  0.00     0.104 A 
ATOM     10  C   UNL d   1      53.299  33.913  54.830  0.00  0.00     0.013 A 
ATOM     11  C   UNL d   1      53.694  33.598  55.481  0.00  0.00     0.001 A 
ATOM     12  C   UNL d   1      54.449  33.281  55.394  0.00  0.00     0.000 A 
ATOM     13  C   UNL d   1      54.812  33.278  54.657  0.00  0.00     0.001 A 
ATOM     14  C   UNL d   1      54.414  33.596  54.004  0.00  0.00     0.013 A 
ENDBRANCH   6   9
ENDBRANCH   1   6
BRANCH   2  15
ATOM     15  S   UNL d   1      51.560  33.869  52.984  0.00  0.00    -0.049 SA
BRANCH  15  16
ATOM     16  C   UNL d   1      50.787  33.603  52.858  0.00  0.00     0.038 C 
BRANCH  16  17
ATOM     17  C   UNL d   1      50.175  34.155  52.739  0.00  0.00     0.007 A 
ATOM     18  C   UNL d   1      49.907  34.630  53.367  0.00  0.00     0.001 A 
ATOM     19  C   UNL d   1      49.304  35.176  53.256  0.00  0.00     0.000 A 
ATOM     20  C   UNL d   1      48.959  35.254  52.509  0.00  0.00     0.000 A 
ATOM     21  C   UNL d   1      49.224  34.782  51.879  0.00  0.00     0.000 A 
ATOM     22  C   UNL d   1      48.353  35.800  52.389  0.00  0.00     0.000 C 
ATOM     23  C   UNL d   1      49.830  34.234  51.996  0.00  0.00     0.001 A 
ENDBRANCH  16  17
ENDBRANCH  15  16
ENDBRANCH   2  15
TORSDOF 5
ENDMDL
MODEL 4
REMARK VINA RESULT:      -6.4      1.178      4.168
REMARK  5 active torsions:
REMARK  status: ('A' for Active; 'I' for Inactive)
REMARK    1  A    between atoms: N_2  and  S_1 
REMARK    2  A    between atoms: C_8  and  S_1 
REMARK    3  A    between atoms: S_7  and  C_3 
REMARK    4  A    between atoms: C_11  and  S_7 
REMARK    5  A    between atoms: C_12  and  C_11 
ROOT
ATOM      1  N   UNL d   1      52.725  33.806  53.359  0.00  0.00    -0.208 N 
ATOM      2  C   UNL d   1      53.115  33.240  53.830  0.00  0.00     0.189 A 
ATOM      3  N   UNL d   1      53.372  33.616  54.524  0.00  0.00    -0.219 NA
ATOM      4  C   UNL d   1      52.741  34.533  53.765  0.00  0.00     0.114 A 
ATOM      5  C   UNL d   1      53.139  34.412  54.480  0.00  0.00     0.121 A 
ENDROOT
BRANCH   1   6
ATOM      6  S   UNL d   1      52.382  33.665  52.615  0.00  0.00     0.273 S 
ATOM      7  O   UNL d   1      53.129  33.452  52.351  0.00  0.00    -0.200 OA
ATOM      8  O   UNL d   1      52.279  33.463  51.817  0.00  0.00    -0.200 OA
BRANCH   6   9
ATOM      9  C   UNL d   1      51.620  33.876  52.864  0.00  0.00     0.104 A 
ATOM     10  C   UNL d   1      51.111  33.294  53.140  0.00  0.00     0.013 A 
ATOM     11  C   UNL d   1      50.354  33.505  53.387  0.00  0.00     0.001 A 
ATOM     12  C   UNL d   1      50.114  34.293  53.357  0.00  0.00     0.000 A 
ATOM     13  C   UNL d   1      50.628  34.871  53.081  0.00  0.00     0.001 A 
ATOM     14  C   UNL d   1      51.389  34.655  52.832  0.00  0.00     0.013 A 
ENDBRANCH   6   9
ENDBRANCH   1   6
BRANCH   2  15
ATOM     15  S   UNL d   1      53.229  32.437  53.636  0.00  0.00    -0.049 SA
BRANCH  15  16
ATOM     16  C   UNL d   1      53.694  31.959  54.125  0.00  0.00     0.038 C 
BRANCH  16  17
ATOM     17  C   UNL d   1      53.583  31.134  54.122  0.00  0.00     0.007 A 
ATOM     18  C   UNL d   1      53.720  30.692  53.431  0.00  0.00     0.001 A 
ATOM     19  C   UNL d   1      53.612  29.878  53.423  0.00  0.00     0.000 A 
ATOM     20  C   UNL d   1      53.364  29.493  54.111  0.00  0.00     0.000 A 
ATOM     21  C   UNL d   1      53.227  29.932  54.804  0.00  0.00     0.000 A 
ATOM     22  C   UNL d   1      53.253  28.676  54.112  0.00  0.00     0.000 C 
ATOM     23  C   UNL d   1      53.337  30.749  54.807  0.00  0.00     0.001 A 
ENDBRANCH  16  17
ENDBRANCH  15  16
ENDBRANCH   2  15
TORSDOF 5
ENDMDL
