MODEL 1
REMARK VINA RESULT:      10.2      0.000      0.000
REMARK  4 active torsions:
REMARK  status: ('A' for Active; 'I' for Inactive)
REMARK    1  A    between atoms: N_2  and  S_1 
REMARK    2  A    between atoms: C_3  and  S_1 
REMARK    3  A    between atoms: N_6  and  N_2 
REMARK    4  A    between atoms: C_9  and  N_6 
ROOT
ATOM      1  S   UNL d   1      46.282 -17.468  43.948  0.00  0.00     0.302 S 
ATOM      2  O   UNL d   1      46.291 -17.877  44.681  0.00  0.00    -0.197 OA
ATOM      3  O   UNL d   1      46.273 -17.071  43.230  0.00  0.00    -0.197 OA
ENDROOT
BRANCH   1   4
ATOM      4  N   UNL d   1      46.200 -16.742  44.354  0.00  0.00    -0.054 NA
BRANCH   4   5
ATOM      5  N   UNL d   1      45.539 -16.296  44.242  0.00  0.00    -0.137 NA
BRANCH   5   6
ATOM      6  C   UNL d   1      45.543 -15.476  44.420  0.00  0.00     0.104 A 
ATOM      7  C   UNL d   1      46.226 -15.040  44.324  0.00  0.00     0.021 A 
ATOM      8  C   UNL d   1      46.212 -14.235  44.505  0.00  0.00     0.002 A 
ATOM      9  C   UNL d   1      45.522 -13.890  44.774  0.00  0.00     0.000 A 
ATOM     10  C   UNL d   1      44.847 -14.330  44.867  0.00  0.00     0.002 A 
ATOM     11  C   UNL d   1      45.523 -13.064  44.955  0.00  0.00     0.000 C 
ATOM     12  C   UNL d   1      44.848 -15.132  44.691  0.00  0.00     0.021 A 
ENDBRANCH   5   6
ENDBRANCH   4   5
ENDBRANCH   1   4
BRANCH   1  13
ATOM     13  C   UNL d   1      46.362 -18.186  43.549  0.00  0.00     0.107 A 
ATOM     14  C   UNL d   1      46.533 -18.873  43.963  0.00  0.00     0.013 A 
ATOM     15  C   UNL d   1      46.609 -19.582  43.549  0.00  0.00     0.001 A 
ATOM     16  C   UNL d   1      46.516 -19.605  42.721  0.00  0.00     0.000 A 
ATOM     17  C   UNL d   1      46.344 -18.910  42.300  0.00  0.00     0.001 A 
ATOM     18  C   UNL d   1      46.596 -20.330  42.306  0.00  0.00     0.000 C 
ATOM     19  C   UNL d   1      46.271 -18.211  42.733  0.00  0.00     0.013 A 
ENDBRANCH   1  13
TORSDOF 4
ENDMDL
