MODEL 1
REMARK VINA RESULT:      49.7      0.000      0.000
REMARK  5 active torsions:
REMARK  status: ('A' for Active; 'I' for Inactive)
REMARK    1  A    between atoms: C_2  and  S_1 
REMARK    2  A    between atoms: N_4  and  S_1 
REMARK    3  A    between atoms: C_10  and  C_9 
REMARK       I    between atoms: N_15  and  C_10 
REMARK    4  A    between atoms: C_24  and  N_15 
REMARK    5  A    between atoms: C_16  and  C_24 
ROOT
ATOM      1  N   UNL d   1     -51.410  25.823  33.435  0.00  0.00    -0.229 N 
ATOM      2  C   UNL d   1     -50.362  26.780  33.564  0.00  0.00     0.076 A 
ATOM      3  C   UNL d   1     -51.153  26.603  33.545  0.00  0.00     0.096 A 
ATOM      4  C   UNL d   1     -50.857  25.231  33.346  0.00  0.00     0.092 A 
ATOM      5  C   UNL d   1     -49.788  26.161  33.471  0.00  0.00     0.008 A 
ATOM      6  C   UNL d   1     -50.057  25.388  33.363  0.00  0.00     0.020 A 
ENDROOT
BRANCH   1   7
ATOM      7  S   UNL d   1     -52.225  25.656  33.417  0.00  0.00     0.273 S 
ATOM      8  O   UNL d   1     -53.032  25.487  33.400  0.00  0.00    -0.200 OA
ATOM      9  O   UNL d   1     -52.394  26.458  33.306  0.00  0.00    -0.200 OA
BRANCH   7  10
ATOM     10  C   UNL d   1     -52.062  24.850  33.528  0.00  0.00     0.125 A 
ATOM     11  C   UNL d   1     -52.622  24.347  33.854  0.00  0.00     0.142 A 
ATOM     12  C   UNL d   1     -52.451  23.544  33.961  0.00  0.00     0.131 A 
ATOM     13  N   UNL d   1     -53.390  24.492  34.120  0.00  0.00    -0.101 NA
ATOM     14  N   UNL d   1     -53.119  23.191  34.296  0.00  0.00    -0.102 NA
ATOM     15  C   UNL d   1     -51.728  23.246  33.745  0.00  0.00     0.023 A 
ATOM     16  O   UNL d   1     -53.692  23.770  34.393  0.00  0.00    -0.106 OA
ATOM     17  C   UNL d   1     -51.155  23.740  33.416  0.00  0.00     0.002 A 
ATOM     18  C   UNL d   1     -51.325  24.547  33.308  0.00  0.00     0.015 A 
ENDBRANCH   7  10
ENDBRANCH   1   7
BRANCH   2  19
ATOM     19  C   UNL d   1     -50.095  27.548  33.673  0.00  0.00     0.281 C 
ATOM     20  N   UNL d   1     -49.427  27.704  34.126  0.00  0.00    -0.204 NA
ATOM     21  O   UNL d   1     -50.512  28.169  33.315  0.00  0.00    -0.265 OA
BRANCH  20  22
ATOM     22  C   UNL d   1     -49.162  28.502  34.229  0.00  0.00     0.127 C 
BRANCH  22  23
ATOM     23  C   UNL d   1     -48.588  28.678  34.827  0.00  0.00     0.119 A 
ATOM     24  O   UNL d   1     -48.178  28.123  35.279  0.00  0.00    -0.304 OA
ATOM     25  C   UNL d   1     -47.676  28.531  35.794  0.00  0.00     0.123 A 
ATOM     26  C   UNL d   1     -47.777  29.337  35.658  0.00  0.00     0.029 A 
ATOM     27  C   UNL d   1     -48.343  29.425  35.058  0.00  0.00     0.028 A 
ENDBRANCH  22  23
ENDBRANCH  20  22
ENDBRANCH   2  19
TORSDOF 5
ENDMDL
