MODEL 1
REMARK VINA RESULT:     116.1      0.000      0.000
REMARK  8 active torsions:
REMARK  status: ('A' for Active; 'I' for Inactive)
REMARK    1  A    between atoms: N_4  and  S_1 
REMARK    2  A    between atoms: C_10  and  S_1 
REMARK    3  A    between atoms: C_7  and  N_2 
REMARK    4  A    between atoms: N_3  and  C_6 
REMARK    5  A    between atoms: C_5  and  N_4 
REMARK    6  A    between atoms: C_6  and  C_5 
REMARK    7  A    between atoms: C_11  and  C_6 
REMARK    8  A    between atoms: O_19  and  C_17 
ROOT
ATOM      1  C   UNL d   1     -55.123-101.386 -44.066  0.00  0.00     0.086 C 
ENDROOT
BRANCH   1   2
ATOM      2  N   UNL d   1     -55.191-101.632 -43.279  0.00  0.00    -0.300 N 
ATOM      3  C   UNL d   1     -55.719-102.238 -43.079  0.00  0.00     0.100 A 
ATOM      4  C   UNL d   1     -55.788-102.483 -42.298  0.00  0.00     0.100 A 
ATOM      5  N   UNL d   1     -55.332-102.128 -41.712  0.00  0.00    -0.300 N 
ATOM      6  C   UNL d   1     -54.807-101.527 -41.908  0.00  0.00     0.100 A 
ATOM      7  C   UNL d   1     -54.735-101.277 -42.694  0.00  0.00     0.100 A 
BRANCH   5   8
ATOM      8  C   UNL d   1     -55.401-102.373 -40.931  0.00  0.00     0.086 A 
ATOM      9  C   UNL d   1     -56.145-102.469 -40.596  0.00  0.00     0.110 A 
ATOM     10  C   UNL d   1     -56.217-102.716 -39.813  0.00  0.00     0.026 A 
ATOM     11  C   UNL d   1     -55.534-102.867 -39.362  0.00  0.00     0.002 A 
ATOM     12  C   UNL d   1     -54.788-102.770 -39.700  0.00  0.00     0.002 A 
ATOM     13  C   UNL d   1     -54.719-102.525 -40.480  0.00  0.00     0.019 A 
BRANCH   9  14
ATOM     14  O   UNL d   1     -56.820-102.319 -41.042  0.00  0.00    -0.327 OA
ATOM     15  C   UNL d   1     -57.420-102.880 -41.084  0.00  0.00     0.181 C 
ENDBRANCH   9  14
ENDBRANCH   5   8
ENDBRANCH   1   2
BRANCH   1  16
ATOM     16  C   UNL d   1     -54.800-100.640 -44.244  0.00  0.00     0.130 C 
BRANCH  16  17
ATOM     17  N   UNL d   1     -55.255 -99.960 -44.137  0.00  0.00    -0.155 NA
BRANCH  17  18
ATOM     18  S   UNL d   1     -55.448 -99.488 -44.789  0.00  0.00     0.285 S 
ATOM     19  O   UNL d   1     -55.642 -99.016 -45.438  0.00  0.00    -0.198 OA
ATOM     20  O   UNL d   1     -54.711 -99.664 -45.123  0.00  0.00    -0.198 OA
BRANCH  18  21
ATOM     21  C   UNL d   1     -56.188 -99.314 -44.448  0.00  0.00     0.105 A 
ATOM     22  C   UNL d   1     -56.878 -99.508 -44.852  0.00  0.00     0.013 A 
ATOM     23  C   UNL d   1     -57.609 -99.340 -44.520  0.00  0.00     0.001 A 
ATOM     24  C   UNL d   1     -57.659 -98.968 -43.766  0.00  0.00     0.000 A 
ATOM     25  C   UNL d   1     -56.958 -98.775 -43.364  0.00  0.00     0.001 A 
ATOM     26  C   UNL d   1     -56.225 -98.951 -43.710  0.00  0.00     0.013 A 
ENDBRANCH  18  21
ENDBRANCH  17  18
ENDBRANCH  16  17
ENDBRANCH   1  16
BRANCH   1  27
ATOM     27  C   UNL d   1     -55.374-101.878 -44.677  0.00  0.00     0.037 A 
ATOM     28  C   UNL d   1     -54.893-101.999 -45.332  0.00  0.00     0.100 A 
ATOM     29  N   UNL d   1     -55.146-102.495 -45.948  0.00  0.00    -0.242 NA
ATOM     30  C   UNL d   1     -55.878-102.866 -45.904  0.00  0.00     0.099 A 
ATOM     31  C   UNL d   1     -56.359-102.745 -45.249  0.00  0.00     0.021 A 
ATOM     32  C   UNL d   1     -56.106-102.248 -44.633  0.00  0.00     0.005 A 
ENDBRANCH   1  27
TORSDOF 8
ENDMDL
