MODEL 1
REMARK VINA RESULT:      -7.4      0.000      0.000
REMARK  6 active torsions:
REMARK  status: ('A' for Active; 'I' for Inactive)
REMARK    1  A    between atoms: C_4  and  N_1 
REMARK    2  A    between atoms: N_6  and  C_2 
REMARK    3  A    between atoms: S_10  and  C_7 
REMARK    4  A    between atoms: C_12  and  C_9 
REMARK    5  A    between atoms: C_11  and  S_10 
REMARK    6  A    between atoms: O_24  and  C_20 
ROOT
ATOM      1  N   UNL d   1     -46.630  13.368  22.399  0.00  0.00    -0.240 N 
ATOM      2  C   UNL d   1     -46.816  13.945  22.948  0.00  0.00     0.268 A 
ATOM      3  C   UNL d   1     -47.313  13.109  22.006  0.00  0.00     0.273 A 
ATOM      4  C   UNL d   1     -47.945  13.548  22.332  0.00  0.00     0.091 A 
ATOM      5  C   UNL d   1     -47.633  14.055  22.905  0.00  0.00     0.072 A 
ATOM      6  O   UNL d   1     -46.580  14.385  23.439  0.00  0.00    -0.267 OA
ATOM      7  O   UNL d   1     -47.385  12.540  21.417  0.00  0.00    -0.266 OA
ENDROOT
BRANCH   1   8
ATOM      8  C   UNL d   1     -45.859  13.087  22.260  0.00  0.00     0.092 A 
ATOM      9  C   UNL d   1     -45.597  12.467  22.724  0.00  0.00     0.145 A 
ATOM     10  C   UNL d   1     -44.829  12.169  22.603  0.00  0.00     0.049 A 
ATOM     11  C   UNL d   1     -44.347  12.500  22.022  0.00  0.00     0.096 A 
ATOM     12  C   UNL d   1     -44.628  13.143  21.544  0.00  0.00     0.026 A 
ATOM     13  C   UNL d   1     -45.389  13.428  21.675  0.00  0.00     0.021 A 
BRANCH   9  14
ATOM     14  N   UNL d   1     -46.090  12.145  23.304  0.00  0.00    -0.112 N 
ATOM     15  O   UNL d   1     -46.271  12.411  23.698  0.00  0.00    -0.532 OA
ATOM     16  O   UNL d   1     -46.342  11.358  23.308  0.00  0.00    -0.532 OA
ENDBRANCH   9  14
BRANCH  11  17
ATOM     17  O   UNL d   1     -43.587  12.187  21.920  0.00  0.00    -0.328 OA
ATOM     18  C   UNL d   1     -43.021  12.582  21.482  0.00  0.00     0.181 C 
ENDBRANCH  11  17
ENDBRANCH   1   8
BRANCH   4  19
ATOM     19  S   UNL d   1     -48.708  13.424  22.061  0.00  0.00    -0.082 SA
BRANCH  19  20
ATOM     20  C   UNL d   1     -49.315  13.969  22.264  0.00  0.00     0.035 A 
ATOM     21  C   UNL d   1     -50.084  13.720  22.331  0.00  0.00     0.070 A 
ATOM     22  C   UNL d   1     -50.678  14.244  22.528  0.00  0.00     0.007 A 
ATOM     23  C   UNL d   1     -50.483  15.045  22.660  0.00  0.00     0.000 A 
ATOM     24  C   UNL d   1     -49.699  15.307  22.593  0.00  0.00     0.001 A 
ATOM     25  C   UNL d   1     -49.123  14.742  22.391  0.00  0.00     0.007 A 
BRANCH  21  26
ATOM     26  C   UNL d   1     -50.294  12.933  22.204  0.00  0.00     0.211 C 
ATOM     27  O   UNL d   1     -50.435  12.641  21.453  0.00  0.00    -0.644 OA
ATOM     28  O   UNL d   1     -50.368  12.406  22.854  0.00  0.00    -0.644 OA
ENDBRANCH  21  26
ENDBRANCH  19  20
ENDBRANCH   4  19
TORSDOF 6
ENDMDL
MODEL 2
REMARK VINA RESULT:      -6.7      1.437      2.159
REMARK  6 active torsions:
REMARK  status: ('A' for Active; 'I' for Inactive)
REMARK    1  A    between atoms: C_4  and  N_1 
REMARK    2  A    between atoms: N_6  and  C_2 
REMARK    3  A    between atoms: S_10  and  C_7 
REMARK    4  A    between atoms: C_12  and  C_9 
REMARK    5  A    between atoms: C_11  and  S_10 
REMARK    6  A    between atoms: O_24  and  C_20 
ROOT
ATOM      1  N   UNL d   1     -47.228  12.461  22.879  0.00  0.00    -0.240 N 
ATOM      2  C   UNL d   1     -47.818  12.157  22.402  0.00  0.00     0.268 A 
ATOM      3  C   UNL d   1     -47.456  13.193  23.194  0.00  0.00     0.273 A 
ATOM      4  C   UNL d   1     -48.222  13.342  22.894  0.00  0.00     0.091 A 
ATOM      5  C   UNL d   1     -48.434  12.705  22.413  0.00  0.00     0.072 A 
ATOM      6  O   UNL d   1     -48.025  11.631  21.989  0.00  0.00    -0.267 OA
ATOM      7  O   UNL d   1     -47.038  13.691  23.698  0.00  0.00    -0.266 OA
ENDROOT
BRANCH   1   8
ATOM      8  C   UNL d   1     -46.501  12.080  23.023  0.00  0.00     0.092 A 
ATOM      9  C   UNL d   1     -45.849  12.350  22.611  0.00  0.00     0.145 A 
ATOM     10  C   UNL d   1     -45.111  11.985  22.739  0.00  0.00     0.049 A 
ATOM     11  C   UNL d   1     -45.050  11.361  23.274  0.00  0.00     0.096 A 
ATOM     12  C   UNL d   1     -45.733  11.087  23.698  0.00  0.00     0.026 A 
ATOM     13  C   UNL d   1     -46.456  11.458  23.561  0.00  0.00     0.021 A 
BRANCH   9  14
ATOM     14  N   UNL d   1     -45.924  12.976  22.078  0.00  0.00    -0.112 N 
ATOM     15  O   UNL d   1     -46.190  12.945  21.644  0.00  0.00    -0.532 OA
ATOM     16  O   UNL d   1     -45.579  13.718  22.187  0.00  0.00    -0.532 OA
ENDBRANCH   9  14
BRANCH  11  17
ATOM     17  O   UNL d   1     -44.306  11.014  23.385  0.00  0.00    -0.328 OA
ATOM     18  C   UNL d   1     -44.210  10.201  23.363  0.00  0.00     0.181 C 
ENDBRANCH  11  17
ENDBRANCH   1   8
BRANCH   4  19
ATOM     19  S   UNL d   1     -48.612  14.032  23.102  0.00  0.00    -0.082 SA
BRANCH  19  20
ATOM     20  C   UNL d   1     -49.442  14.016  23.235  0.00  0.00     0.035 A 
ATOM     21  C   UNL d   1     -49.882  14.694  23.159  0.00  0.00     0.070 A 
ATOM     22  C   UNL d   1     -50.688  14.685  23.287  0.00  0.00     0.007 A 
ATOM     23  C   UNL d   1     -51.056  13.966  23.498  0.00  0.00     0.000 A 
ATOM     24  C   UNL d   1     -50.613  13.270  23.578  0.00  0.00     0.001 A 
ATOM     25  C   UNL d   1     -49.794  13.320  23.439  0.00  0.00     0.007 A 
BRANCH  21  26
ATOM     26  C   UNL d   1     -49.534  15.412  22.951  0.00  0.00     0.211 C 
ATOM     27  O   UNL d   1     -49.474  15.651  22.171  0.00  0.00    -0.644 OA
ATOM     28  O   UNL d   1     -49.229  15.920  23.546  0.00  0.00    -0.644 OA
ENDBRANCH  21  26
ENDBRANCH  19  20
ENDBRANCH   4  19
TORSDOF 6
ENDMDL
MODEL 3
REMARK VINA RESULT:      -6.2      8.394      9.509
REMARK  6 active torsions:
REMARK  status: ('A' for Active; 'I' for Inactive)
REMARK    1  A    between atoms: C_4  and  N_1 
REMARK    2  A    between atoms: N_6  and  C_2 
REMARK    3  A    between atoms: S_10  and  C_7 
REMARK    4  A    between atoms: C_12  and  C_9 
REMARK    5  A    between atoms: C_11  and  S_10 
REMARK    6  A    between atoms: O_24  and  C_20 
ROOT
ATOM      1  N   UNL d   1     -39.284  14.889  19.069  0.00  0.00    -0.240 N 
ATOM      2  C   UNL d   1     -38.495  15.101  19.090  0.00  0.00     0.268 A 
ATOM      3  C   UNL d   1     -39.505  14.518  19.778  0.00  0.00     0.273 A 
ATOM      4  C   UNL d   1     -38.817  14.504  20.253  0.00  0.00     0.091 A 
ATOM      5  C   UNL d   1     -38.207  14.862  19.825  0.00  0.00     0.072 A 
ATOM      6  O   UNL d   1     -37.959  15.399  18.752  0.00  0.00    -0.267 OA
ATOM      7  O   UNL d   1     -40.239  14.217  19.996  0.00  0.00    -0.266 OA
ENDROOT
BRANCH   1   8
ATOM      8  C   UNL d   1     -39.789  15.029  18.422  0.00  0.00     0.092 A 
ATOM      9  C   UNL d   1     -39.756  14.500  17.800  0.00  0.00     0.145 A 
ATOM     10  C   UNL d   1     -40.252  14.620  17.142  0.00  0.00     0.049 A 
ATOM     11  C   UNL d   1     -40.765  15.266  17.126  0.00  0.00     0.096 A 
ATOM     12  C   UNL d   1     -40.792  15.810  17.777  0.00  0.00     0.026 A 
ATOM     13  C   UNL d   1     -40.296  15.679  18.421  0.00  0.00     0.021 A 
BRANCH   9  14
ATOM     14  N   UNL d   1     -39.239  13.857  17.828  0.00  0.00    -0.112 N 
ATOM     15  O   UNL d   1     -38.732  13.904  17.814  0.00  0.00    -0.532 OA
ATOM     16  O   UNL d   1     -39.484  13.070  17.880  0.00  0.00    -0.532 OA
ENDBRANCH   9  14
BRANCH  11  17
ATOM     17  O   UNL d   1     -41.248  15.365  16.461  0.00  0.00    -0.328 OA
ATOM     18  C   UNL d   1     -41.847  15.921  16.452  0.00  0.00     0.181 C 
ENDBRANCH  11  17
ENDBRANCH   1   8
BRANCH   4  19
ATOM     19  S   UNL d   1     -38.847  14.170  21.000  0.00  0.00    -0.082 SA
BRANCH  19  20
ATOM     20  C   UNL d   1     -38.543  14.597  21.658  0.00  0.00     0.035 A 
ATOM     21  C   UNL d   1     -38.410  14.220  22.364  0.00  0.00     0.070 A 
ATOM     22  C   UNL d   1     -38.116  14.629  23.006  0.00  0.00     0.007 A 
ATOM     23  C   UNL d   1     -37.952  15.444  22.927  0.00  0.00     0.000 A 
ATOM     24  C   UNL d   1     -38.085  15.834  22.209  0.00  0.00     0.001 A 
ATOM     25  C   UNL d   1     -38.386  15.384  21.577  0.00  0.00     0.007 A 
BRANCH  21  26
ATOM     26  C   UNL d   1     -38.567  13.416  22.459  0.00  0.00     0.211 C 
ATOM     27  O   UNL d   1     -39.270  13.150  22.781  0.00  0.00    -0.644 OA
ATOM     28  O   UNL d   1     -37.999  12.845  22.224  0.00  0.00    -0.644 OA
ENDBRANCH  21  26
ENDBRANCH  19  20
ENDBRANCH   4  19
TORSDOF 6
ENDMDL
MODEL 4
REMARK VINA RESULT:      -6.0      1.425      4.914
REMARK  6 active torsions:
REMARK  status: ('A' for Active; 'I' for Inactive)
REMARK    1  A    between atoms: C_4  and  N_1 
REMARK    2  A    between atoms: N_6  and  C_2 
REMARK    3  A    between atoms: S_10  and  C_7 
REMARK    4  A    between atoms: C_12  and  C_9 
REMARK    5  A    between atoms: C_11  and  S_10 
REMARK    6  A    between atoms: O_24  and  C_20 
ROOT
ATOM      1  N   UNL d   1     -48.362  13.176  22.978  0.00  0.00    -0.240 N 
ATOM      2  C   UNL d   1     -48.373  12.369  23.107  0.00  0.00     0.268 A 
ATOM      3  C   UNL d   1     -47.587  13.439  22.841  0.00  0.00     0.273 A 
ATOM      4  C   UNL d   1     -47.103  12.759  22.889  0.00  0.00     0.091 A 
ATOM      5  C   UNL d   1     -47.591  12.112  23.051  0.00  0.00     0.072 A 
ATOM      6  O   UNL d   1     -48.761  11.803  23.244  0.00  0.00    -0.267 OA
ATOM      7  O   UNL d   1     -47.320  14.202  22.688  0.00  0.00    -0.266 OA
ENDROOT
BRANCH   1   8
ATOM      8  C   UNL d   1     -49.040  13.660  22.986  0.00  0.00     0.092 A 
ATOM      9  C   UNL d   1     -49.464  13.720  22.290  0.00  0.00     0.145 A 
ATOM     10  C   UNL d   1     -50.146  14.199  22.273  0.00  0.00     0.049 A 
ATOM     11  C   UNL d   1     -50.382  14.601  22.953  0.00  0.00     0.096 A 
ATOM     12  C   UNL d   1     -49.935  14.532  23.671  0.00  0.00     0.026 A 
ATOM     13  C   UNL d   1     -49.263  14.056  23.673  0.00  0.00     0.021 A 
BRANCH   9  14
ATOM     14  N   UNL d   1     -49.217  13.312  21.616  0.00  0.00    -0.112 N 
ATOM     15  O   UNL d   1     -48.799  13.433  21.352  0.00  0.00    -0.532 OA
ATOM     16  O   UNL d   1     -49.620  12.665  21.295  0.00  0.00    -0.532 OA
ENDBRANCH   9  14
BRANCH  11  17
ATOM     17  O   UNL d   1     -51.063  15.070  22.912  0.00  0.00    -0.328 OA
ATOM     18  C   UNL d   1     -51.062  15.842  23.182  0.00  0.00     0.181 C 
ENDBRANCH  11  17
ENDBRANCH   1   8
BRANCH   4  19
ATOM     19  S   UNL d   1     -46.295  12.828  22.778  0.00  0.00    -0.082 SA
BRANCH  19  20
ATOM     20  C   UNL d   1     -45.794  12.177  22.958  0.00  0.00     0.035 A 
ATOM     21  C   UNL d   1     -45.065  12.111  22.608  0.00  0.00     0.070 A 
ATOM     22  C   UNL d   1     -44.574  11.482  22.779  0.00  0.00     0.007 A 
ATOM     23  C   UNL d   1     -44.833  10.902  23.321  0.00  0.00     0.000 A 
ATOM     24  C   UNL d   1     -45.576  10.963  23.683  0.00  0.00     0.001 A 
ATOM     25  C   UNL d   1     -46.047  11.619  23.483  0.00  0.00     0.007 A 
BRANCH  21  26
ATOM     26  C   UNL d   1     -44.794  12.674  22.070  0.00  0.00     0.211 C 
ATOM     27  O   UNL d   1     -44.535  13.411  22.313  0.00  0.00    -0.644 OA
ATOM     28  O   UNL d   1     -44.779  12.500  21.249  0.00  0.00    -0.644 OA
ENDBRANCH  21  26
ENDBRANCH  19  20
ENDBRANCH   4  19
TORSDOF 6
ENDMDL
MODEL 5
REMARK VINA RESULT:      -5.6      7.689      9.569
REMARK  6 active torsions:
REMARK  status: ('A' for Active; 'I' for Inactive)
REMARK    1  A    between atoms: C_4  and  N_1 
REMARK    2  A    between atoms: N_6  and  C_2 
REMARK    3  A    between atoms: S_10  and  C_7 
REMARK    4  A    between atoms: C_12  and  C_9 
REMARK    5  A    between atoms: C_11  and  S_10 
REMARK    6  A    between atoms: O_24  and  C_20 
ROOT
ATOM      1  N   UNL d   1     -39.295  14.738  17.771  0.00  0.00    -0.240 N 
ATOM      2  C   UNL d   1     -39.937  14.278  17.979  0.00  0.00     0.268 A 
ATOM      3  C   UNL d   1     -39.021  15.169  18.425  0.00  0.00     0.273 A 
ATOM      4  C   UNL d   1     -39.520  14.961  19.062  0.00  0.00     0.091 A 
ATOM      5  C   UNL d   1     -40.075  14.417  18.781  0.00  0.00     0.072 A 
ATOM      6  O   UNL d   1     -40.419  13.816  17.770  0.00  0.00    -0.267 OA
ATOM      7  O   UNL d   1     -38.392  15.698  18.468  0.00  0.00    -0.266 OA
ENDROOT
BRANCH   1   8
ATOM      8  C   UNL d   1     -38.967  14.765  17.005  0.00  0.00     0.092 A 
ATOM      9  C   UNL d   1     -38.414  14.195  16.815  0.00  0.00     0.145 A 
ATOM     10  C   UNL d   1     -38.073  14.202  16.055  0.00  0.00     0.049 A 
ATOM     11  C   UNL d   1     -38.296  14.779  15.510  0.00  0.00     0.096 A 
ATOM     12  C   UNL d   1     -38.872  15.367  15.717  0.00  0.00     0.026 A 
ATOM     13  C   UNL d   1     -39.201  15.348  16.472  0.00  0.00     0.021 A 
BRANCH   9  14
ATOM     14  N   UNL d   1     -38.199  13.623  17.370  0.00  0.00    -0.112 N 
ATOM     15  O   UNL d   1     -37.942  13.728  17.797  0.00  0.00    -0.532 OA
ATOM     16  O   UNL d   1     -38.375  12.819  17.295  0.00  0.00    -0.532 OA
ENDBRANCH   9  14
BRANCH  11  17
ATOM     17  O   UNL d   1     -37.944  14.765  14.761  0.00  0.00    -0.328 OA
ATOM     18  C   UNL d   1     -38.023  14.118  14.266  0.00  0.00     0.181 C 
ENDBRANCH  11  17
ENDBRANCH   1   8
BRANCH   4  19
ATOM     19  S   UNL d   1     -39.397  15.294  19.800  0.00  0.00    -0.082 SA
BRANCH  19  20
ATOM     20  C   UNL d   1     -40.058  15.486  20.284  0.00  0.00     0.035 A 
ATOM     21  C   UNL d   1     -40.003  15.431  21.092  0.00  0.00     0.070 A 
ATOM     22  C   UNL d   1     -40.640  15.615  21.567  0.00  0.00     0.007 A 
ATOM     23  C   UNL d   1     -41.353  15.863  21.210  0.00  0.00     0.000 A 
ATOM     24  C   UNL d   1     -41.416  15.922  20.385  0.00  0.00     0.001 A 
ATOM     25  C   UNL d   1     -40.745  15.725  19.935  0.00  0.00     0.007 A 
BRANCH  21  26
ATOM     26  C   UNL d   1     -39.307  15.187  21.460  0.00  0.00     0.211 C 
ATOM     27  O   UNL d   1     -39.207  14.421  21.727  0.00  0.00    -0.644 OA
ATOM     28  O   UNL d   1     -38.676  15.731  21.570  0.00  0.00    -0.644 OA
ENDBRANCH  21  26
ENDBRANCH  19  20
ENDBRANCH   4  19
TORSDOF 6
ENDMDL
