MODEL 1
REMARK VINA RESULT:      -3.0      0.000      0.000
REMARK  4 active torsions:
REMARK  status: ('A' for Active; 'I' for Inactive)
REMARK    1  A    between atoms: N_2  and  S_1 
REMARK    2  A    between atoms: C_4  and  S_1 
REMARK    3  A    between atoms: C_3  and  C_8 
REMARK       I    between atoms: N_5  and  C_3 
REMARK    4  A    between atoms: C_17  and  N_5 
ROOT
ATOM      1  C   UNL d   1      32.909  18.663 -22.842  0.00  0.00     0.104 A 
ATOM      2  C   UNL d   1      32.919  20.168 -22.174  0.00  0.00     0.058 A 
ATOM      3  C   UNL d   1      33.241  18.791 -22.084  0.00  0.00     0.013 A 
ATOM      4  C   UNL d   1      32.579  19.308 -23.264  0.00  0.00     0.013 A 
ATOM      5  C   UNL d   1      33.241  19.543 -21.761  0.00  0.00     0.005 A 
ATOM      6  C   UNL d   1      32.582  20.061 -22.934  0.00  0.00     0.005 A 
ENDROOT
BRANCH   1   7
ATOM      7  S   UNL d   1      32.900  17.904 -23.187  0.00  0.00     0.272 S 
ATOM      8  O   UNL d   1      33.181  17.559 -22.476  0.00  0.00    -0.200 OA
ATOM      9  O   UNL d   1      32.617  18.241 -23.909  0.00  0.00    -0.200 OA
BRANCH   7  10
ATOM     10  N   UNL d   1      32.884  17.149 -23.551  0.00  0.00    -0.225 N 
ATOM     11  C   UNL d   1      32.557  16.504 -23.154  0.00  0.00     0.118 A 
ATOM     12  C   UNL d   1      32.547  15.773 -23.519  0.00  0.00     0.142 A 
ATOM     13  O   UNL d   1      32.869  15.676 -24.299  0.00  0.00    -0.300 OA
ATOM     14  C   UNL d   1      33.192  16.311 -24.693  0.00  0.00     0.142 A 
ATOM     15  C   UNL d   1      33.206  17.052 -24.332  0.00  0.00     0.118 A 
ENDBRANCH   7  10
ENDBRANCH   1   7
BRANCH   2  16
ATOM     16  C   UNL d   1      32.915  20.937 -21.852  0.00  0.00     0.279 C 
ATOM     17  N   UNL d   1      32.629  21.078 -21.094  0.00  0.00    -0.208 NA
ATOM     18  O   UNL d   1      33.208  21.554 -22.316  0.00  0.00    -0.265 OA
BRANCH  17  19
ATOM     19  C   UNL d   1      32.625  21.847 -20.772  0.00  0.00     0.085 A 
ATOM     20  C   UNL d   1      33.166  22.038 -20.178  0.00  0.00     0.019 A 
ATOM     21  C   UNL d   1      33.176  22.794 -19.847  0.00  0.00     0.002 A 
ATOM     22  C   UNL d   1      32.639  23.352 -20.120  0.00  0.00     0.000 A 
ATOM     23  C   UNL d   1      32.098  23.161 -20.714  0.00  0.00     0.002 A 
ATOM     24  C   UNL d   1      32.094  22.412 -21.035  0.00  0.00     0.019 A 
ENDBRANCH  17  19
ENDBRANCH   2  16
TORSDOF 4
ENDMDL
MODEL 2
REMARK VINA RESULT:      -2.9      1.359      5.490
REMARK  4 active torsions:
REMARK  status: ('A' for Active; 'I' for Inactive)
REMARK    1  A    between atoms: N_2  and  S_1 
REMARK    2  A    between atoms: C_4  and  S_1 
REMARK    3  A    between atoms: C_3  and  C_8 
REMARK       I    between atoms: N_5  and  C_3 
REMARK    4  A    between atoms: C_17  and  N_5 
ROOT
ATOM      1  C   UNL d   1      32.876  20.823 -21.664  0.00  0.00     0.104 A 
ATOM      2  C   UNL d   1      32.884  19.484 -22.623  0.00  0.00     0.058 A 
ATOM      3  C   UNL d   1      33.241  20.115 -21.404  0.00  0.00     0.013 A 
ATOM      4  C   UNL d   1      32.512  20.849 -22.418  0.00  0.00     0.013 A 
ATOM      5  C   UNL d   1      33.240  19.454 -21.889  0.00  0.00     0.005 A 
ATOM      6  C   UNL d   1      32.514  20.183 -22.900  0.00  0.00     0.005 A 
ENDROOT
BRANCH   1   7
ATOM      7  S   UNL d   1      32.867  21.505 -21.184  0.00  0.00     0.272 S 
ATOM      8  O   UNL d   1      32.551  21.069 -20.540  0.00  0.00    -0.200 OA
ATOM      9  O   UNL d   1      33.186  21.954 -21.826  0.00  0.00    -0.200 OA
BRANCH   7  10
ATOM     10  N   UNL d   1      32.867  22.201 -20.717  0.00  0.00    -0.225 N 
ATOM     11  C   UNL d   1      33.170  22.186 -19.949  0.00  0.00     0.118 A 
ATOM     12  C   UNL d   1      33.164  22.870 -19.504  0.00  0.00     0.142 A 
ATOM     13  O   UNL d   1      32.850  23.592 -19.826  0.00  0.00    -0.300 OA
ATOM     14  C   UNL d   1      32.551  23.609 -20.583  0.00  0.00     0.142 A 
ATOM     15  C   UNL d   1      32.553  22.923 -21.039  0.00  0.00     0.118 A 
ENDBRANCH   7  10
ENDBRANCH   1   7
BRANCH   2  16
ATOM     16  C   UNL d   1      32.879  18.816 -23.121  0.00  0.00     0.279 C 
ATOM     17  N   UNL d   1      32.524  18.112 -22.886  0.00  0.00    -0.208 NA
ATOM     18  O   UNL d   1      33.241  18.881 -23.861  0.00  0.00    -0.265 OA
BRANCH  17  19
ATOM     19  C   UNL d   1      32.519  17.445 -23.384  0.00  0.00     0.085 A 
ATOM     20  C   UNL d   1      31.893  17.341 -23.913  0.00  0.00     0.019 A 
ATOM     21  C   UNL d   1      31.871  16.686 -24.414  0.00  0.00     0.002 A 
ATOM     22  C   UNL d   1      32.484  16.140 -24.377  0.00  0.00     0.000 A 
ATOM     23  C   UNL d   1      33.110  16.244 -23.849  0.00  0.00     0.002 A 
ATOM     24  C   UNL d   1      33.124  16.893 -23.357  0.00  0.00     0.019 A 
ENDBRANCH  17  19
ENDBRANCH   2  16
TORSDOF 4
ENDMDL
MODEL 3
REMARK VINA RESULT:      -0.5      1.514      2.168
REMARK  4 active torsions:
REMARK  status: ('A' for Active; 'I' for Inactive)
REMARK    1  A    between atoms: N_2  and  S_1 
REMARK    2  A    between atoms: C_4  and  S_1 
REMARK    3  A    between atoms: C_3  and  C_8 
REMARK       I    between atoms: N_5  and  C_3 
REMARK    4  A    between atoms: C_17  and  N_5 
ROOT
ATOM      1  C   UNL d   1      32.688  20.263 -21.787  0.00  0.00     0.104 A 
ATOM      2  C   UNL d   1      32.743  21.431 -20.627  0.00  0.00     0.058 A 
ATOM      3  C   UNL d   1      33.222  20.200 -21.144  0.00  0.00     0.013 A 
ATOM      4  C   UNL d   1      32.179  20.926 -21.839  0.00  0.00     0.013 A 
ATOM      5  C   UNL d   1      33.241  20.787 -20.572  0.00  0.00     0.005 A 
ATOM      6  C   UNL d   1      32.203  21.511 -21.263  0.00  0.00     0.005 A 
ENDROOT
BRANCH   1   7
ATOM      7  S   UNL d   1      32.655  19.676 -22.378  0.00  0.00     0.272 S 
ATOM      8  O   UNL d   1      32.835  19.077 -21.818  0.00  0.00    -0.200 OA
ATOM      9  O   UNL d   1      32.473  20.271 -22.951  0.00  0.00    -0.200 OA
BRANCH   7  10
ATOM     10  N   UNL d   1      32.617  19.100 -22.986  0.00  0.00    -0.225 N 
ATOM     11  C   UNL d   1      32.293  18.356 -22.833  0.00  0.00     0.118 A 
ATOM     12  C   UNL d   1      32.261  17.803 -23.433  0.00  0.00     0.142 A 
ATOM     13  O   UNL d   1      32.557  17.990 -24.208  0.00  0.00    -0.300 OA
ATOM     14  C   UNL d   1      32.876  18.723 -24.361  0.00  0.00     0.142 A 
ATOM     15  C   UNL d   1      32.912  19.286 -23.761  0.00  0.00     0.118 A 
ENDBRANCH   7  10
ENDBRANCH   1   7
BRANCH   2  16
ATOM     16  C   UNL d   1      32.757  22.031 -20.049  0.00  0.00     0.279 C 
ATOM     17  N   UNL d   1      32.604  21.864 -19.258  0.00  0.00    -0.208 NA
ATOM     18  O   UNL d   1      32.929  22.802 -20.294  0.00  0.00    -0.265 OA
BRANCH  17  19
ATOM     19  C   UNL d   1      32.617  22.465 -18.681  0.00  0.00     0.085 A 
ATOM     20  C   UNL d   1      33.141  22.401 -18.046  0.00  0.00     0.019 A 
ATOM     21  C   UNL d   1      33.168  22.987 -17.465  0.00  0.00     0.002 A 
ATOM     22  C   UNL d   1      32.665  23.632 -17.530  0.00  0.00     0.000 A 
ATOM     23  C   UNL d   1      32.141  23.696 -18.166  0.00  0.00     0.002 A 
ATOM     24  C   UNL d   1      32.120  23.113 -18.736  0.00  0.00     0.019 A 
ENDBRANCH  17  19
ENDBRANCH   2  16
TORSDOF 4
ENDMDL
