MODEL 1
REMARK VINA RESULT:      41.8      0.000      0.000
REMARK  1 active torsions:
REMARK  status: ('A' for Active; 'I' for Inactive)
REMARK    1  A    between atoms: C_2  and  C_1 
ROOT
ATOM      1  C   UNL d   1     -54.720-101.616 -41.850  0.00  0.00     0.087 A 
ATOM      2  C   UNL d   1     -54.728-102.441 -41.857  0.00  0.00     0.302 A 
ATOM      3  C   UNL d   1     -54.715-101.199 -41.134  0.00  0.00     0.009 A 
ATOM      4  O   UNL d   1     -54.729-102.852 -41.148  0.00  0.00    -0.273 OA
ATOM      5  C   UNL d   1     -54.724-102.453 -40.430  0.00  0.00     0.106 A 
ATOM      6  C   UNL d   1     -54.717-101.628 -40.423  0.00  0.00     0.023 A 
ATOM      7  C   UNL d   1     -54.726-102.864 -39.721  0.00  0.00     0.067 A 
ATOM      8  O   UNL d   1     -54.733-102.840 -42.575  0.00  0.00    -0.259 OA
ATOM      9  C   UNL d   1     -54.711-101.211 -39.707  0.00  0.00     0.005 A 
ATOM     10  C   UNL d   1     -54.720-102.465 -39.003  0.00  0.00     0.198 A 
ATOM     11  C   UNL d   1     -54.713-101.640 -38.996  0.00  0.00     0.042 A 
ATOM     12  O   UNL d   1     -54.722-102.876 -38.294  0.00  0.00    -0.286 OA
ENDROOT
BRANCH   1  13
ATOM     13  C   UNL d   1     -54.718-101.187 -42.545  0.00  0.00     0.116 A 
ATOM     14  N   UNL d   1     -54.717-101.441 -43.318  0.00  0.00    -0.238 NA
ATOM     15  C   UNL d   1     -54.715-100.793 -43.813  0.00  0.00     0.088 A 
ATOM     16  C   UNL d   1     -54.713-100.741 -44.642  0.00  0.00     0.020 A 
ATOM     17  C   UNL d   1     -54.716-100.133 -43.349  0.00  0.00     0.049 A 
ATOM     18  C   UNL d   1     -54.712 -99.981 -44.981  0.00  0.00     0.002 A 
ATOM     19  C   UNL d   1     -54.713 -99.307 -44.507  0.00  0.00     0.001 A 
ATOM     20  C   UNL d   1     -54.715 -99.386 -43.683  0.00  0.00     0.008 A 
ATOM     21  S   UNL d   1     -54.718-100.349 -42.558  0.00  0.00    -0.066 SA
ENDBRANCH   1  13
TORSDOF 1
ENDMDL
MODEL 2
REMARK VINA RESULT:      44.8      2.108      4.906
REMARK  1 active torsions:
REMARK  status: ('A' for Active; 'I' for Inactive)
REMARK    1  A    between atoms: C_2  and  C_1 
ROOT
ATOM      1  C   UNL d   1     -54.726-101.595 -39.714  0.00  0.00     0.087 A 
ATOM      2  C   UNL d   1     -54.717-100.817 -39.990  0.00  0.00     0.302 A 
ATOM      3  C   UNL d   1     -54.732-102.231 -40.245  0.00  0.00     0.009 A 
ATOM      4  O   UNL d   1     -54.713-100.673 -40.797  0.00  0.00    -0.273 OA
ATOM      5  C   UNL d   1     -54.718-101.293 -41.335  0.00  0.00     0.106 A 
ATOM      6  C   UNL d   1     -54.727-102.071 -41.060  0.00  0.00     0.023 A 
ATOM      7  C   UNL d   1     -54.714-101.149 -42.142  0.00  0.00     0.067 A 
ATOM      8  O   UNL d   1     -54.712-100.197 -39.452  0.00  0.00    -0.259 OA
ATOM      9  C   UNL d   1     -54.733-102.708 -41.591  0.00  0.00     0.005 A 
ATOM     10  C   UNL d   1     -54.719-101.769 -42.680  0.00  0.00     0.198 A 
ATOM     11  C   UNL d   1     -54.728-102.547 -42.405  0.00  0.00     0.042 A 
ATOM     12  O   UNL d   1     -54.715-101.626 -43.487  0.00  0.00    -0.286 OA
ENDROOT
BRANCH   1  13
ATOM     13  C   UNL d   1     -54.731-101.760 -38.914  0.00  0.00     0.116 A 
ATOM     14  N   UNL d   1     -54.722-102.475 -38.527  0.00  0.00    -0.238 NA
ATOM     15  C   UNL d   1     -54.731-102.344 -37.722  0.00  0.00     0.088 A 
ATOM     16  C   UNL d   1     -54.728-102.875 -37.084  0.00  0.00     0.020 A 
ATOM     17  C   UNL d   1     -54.746-101.545 -37.607  0.00  0.00     0.049 A 
ATOM     18  C   UNL d   1     -54.741-102.555 -36.315  0.00  0.00     0.002 A 
ATOM     19  C   UNL d   1     -54.756-101.740 -36.197  0.00  0.00     0.001 A 
ATOM     20  C   UNL d   1     -54.759-101.231 -36.851  0.00  0.00     0.008 A 
ATOM     21  S   UNL d   1     -54.747-101.160 -38.330  0.00  0.00    -0.066 SA
ENDBRANCH   1  13
TORSDOF 1
ENDMDL
