MODEL 1
REMARK VINA RESULT:      -6.0      0.000      0.000
REMARK  11 active torsions:
REMARK  status: ('A' for Active; 'I' for Inactive)
REMARK    1  A    between atoms: C_14  and  C_3 
REMARK    2  A    between atoms: N_15  and  C_6 
REMARK    3  A    between atoms: N_12  and  C_19 
REMARK    4  A    between atoms: N_13  and  C_20 
REMARK    5  A    between atoms: N_16  and  C_14 
REMARK    6  A    between atoms: C_28  and  N_15 
REMARK    7  A    between atoms: C_23  and  N_16 
REMARK    8  A    between atoms: C_19  and  C_21 
REMARK    9  A    between atoms: C_20  and  C_22 
REMARK   10  A    between atoms: C_21  and  C_23 
REMARK   11  A    between atoms: C_22  and  C_28 
ROOT
ATOM      1  N   UNL d   1      52.545  34.776  53.854  0.00  0.00    -0.258 N 
ATOM      2  C   UNL d   1      51.954  34.715  53.268  0.00  0.00     0.270 A 
ATOM      3  C   UNL d   1      51.792  33.999  52.920  0.00  0.00     0.111 A 
ATOM      4  N   UNL d   1      52.786  33.376  53.712  0.00  0.00    -0.209 NA
ATOM      5  C   UNL d   1      52.964  34.102  54.078  0.00  0.00     0.152 A 
ATOM      6  C   UNL d   1      52.211  33.324  53.144  0.00  0.00     0.170 A 
ATOM      7  C   UNL d   1      52.704  35.489  54.198  0.00  0.00     0.084 A 
ATOM      8  C   UNL d   1      53.535  34.150  54.642  0.00  0.00     0.038 A 
ATOM      9  C   UNL d   1      53.292  35.548  54.780  0.00  0.00     0.018 A 
ATOM     10  C   UNL d   1      53.710  34.873  55.004  0.00  0.00     0.005 A 
ATOM     11  O   UNL d   1      51.529  35.400  53.041  0.00  0.00    -0.266 OA
ATOM     12  C   UNL d   1      53.460  36.271  55.137  0.00  0.00     0.002 C 
ENDROOT
BRANCH   3  13
ATOM     13  C   UNL d   1      51.208  33.944  52.342  0.00  0.00     0.107 C 
BRANCH  13  14
ATOM     14  N   UNL d   1      50.421  34.164  52.524  0.00  0.00    -0.242 NA
BRANCH  14  15
ATOM     15  C   UNL d   1      49.864  34.234  51.920  0.00  0.00     0.101 C 
BRANCH  15  16
ATOM     16  C   UNL d   1      49.138  34.580  52.073  0.00  0.00     0.040 C 
BRANCH  16  17
ATOM     17  C   UNL d   1      48.676  34.901  51.444  0.00  0.00     0.082 C 
BRANCH  17  18
ATOM     18  N   UNL d   1      47.985  35.310  51.604  0.00  0.00    -0.299 N 
ATOM     19  C   UNL d   1      47.973  35.885  52.180  0.00  0.00     0.107 A 
ATOM     20  C   UNL d   1      47.267  36.304  52.343  0.00  0.00     0.142 A 
ATOM     21  O   UNL d   1      46.588  36.138  51.927  0.00  0.00    -0.300 OA
ATOM     22  C   UNL d   1      46.598  35.545  51.332  0.00  0.00     0.142 A 
ATOM     23  C   UNL d   1      47.294  35.132  51.172  0.00  0.00     0.107 A 
ENDBRANCH  17  18
ENDBRANCH  16  17
ENDBRANCH  15  16
ENDBRANCH  14  15
ENDBRANCH  13  14
ENDBRANCH   3  13
BRANCH   6  24
ATOM     24  N   UNL d   1      52.039  32.605  52.786  0.00  0.00    -0.225 NA
BRANCH  24  25
ATOM     25  C   UNL d   1      52.645  32.023  52.713  0.00  0.00     0.102 C 
BRANCH  25  26
ATOM     26  C   UNL d   1      52.471  31.236  52.870  0.00  0.00     0.040 C 
BRANCH  26  27
ATOM     27  C   UNL d   1      53.085  30.660  52.834  0.00  0.00     0.082 C 
BRANCH  27  28
ATOM     28  N   UNL d   1      53.041  30.000  53.333  0.00  0.00    -0.299 N 
ATOM     29  C   UNL d   1      53.613  29.912  53.928  0.00  0.00     0.107 A 
ATOM     30  C   UNL d   1      53.596  29.270  54.438  0.00  0.00     0.142 A 
ATOM     31  O   UNL d   1      52.993  28.708  54.347  0.00  0.00    -0.300 OA
ATOM     32  C   UNL d   1      52.424  28.795  53.755  0.00  0.00     0.142 A 
ATOM     33  C   UNL d   1      52.459  29.445  53.255  0.00  0.00     0.107 A 
ENDBRANCH  27  28
ENDBRANCH  26  27
ENDBRANCH  25  26
ENDBRANCH  24  25
ENDBRANCH   6  24
TORSDOF 11
ENDMDL
MODEL 2
REMARK VINA RESULT:      -5.0      1.210      5.817
REMARK  11 active torsions:
REMARK  status: ('A' for Active; 'I' for Inactive)
REMARK    1  A    between atoms: C_14  and  C_3 
REMARK    2  A    between atoms: N_15  and  C_6 
REMARK    3  A    between atoms: N_12  and  C_19 
REMARK    4  A    between atoms: N_13  and  C_20 
REMARK    5  A    between atoms: N_16  and  C_14 
REMARK    6  A    between atoms: C_28  and  N_15 
REMARK    7  A    between atoms: C_23  and  N_16 
REMARK    8  A    between atoms: C_19  and  C_21 
REMARK    9  A    between atoms: C_20  and  C_22 
REMARK   10  A    between atoms: C_21  and  C_23 
REMARK   11  A    between atoms: C_22  and  C_28 
ROOT
ATOM      1  N   UNL d   1      53.739  33.566  54.164  0.00  0.00    -0.258 N 
ATOM      2  C   UNL d   1      53.579  32.939  53.637  0.00  0.00     0.270 A 
ATOM      3  C   UNL d   1      52.863  32.896  53.253  0.00  0.00     0.111 A 
ATOM      4  N   UNL d   1      52.437  34.086  53.892  0.00  0.00    -0.209 NA
ATOM      5  C   UNL d   1      53.164  34.144  54.292  0.00  0.00     0.152 A 
ATOM      6  C   UNL d   1      52.288  33.474  53.382  0.00  0.00     0.170 A 
ATOM      7  C   UNL d   1      54.450  33.606  54.543  0.00  0.00     0.084 A 
ATOM      8  C   UNL d   1      53.309  34.753  54.797  0.00  0.00     0.038 A 
ATOM      9  C   UNL d   1      54.608  34.231  55.066  0.00  0.00     0.018 A 
ATOM     10  C   UNL d   1      54.033  34.809  55.194  0.00  0.00     0.005 A 
ATOM     11  O   UNL d   1      54.162  32.353  53.508  0.00  0.00    -0.266 OA
ATOM     12  C   UNL d   1      55.331  34.280  55.458  0.00  0.00     0.002 C 
ENDROOT
BRANCH   3  13
ATOM     13  C   UNL d   1      52.710  32.275  52.735  0.00  0.00     0.107 C 
BRANCH  13  14
ATOM     14  N   UNL d   1      53.059  31.526  52.869  0.00  0.00    -0.242 NA
BRANCH  14  15
ATOM     15  C   UNL d   1      52.634  30.840  52.702  0.00  0.00     0.101 C 
BRANCH  15  16
ATOM     16  C   UNL d   1      52.924  30.112  52.943  0.00  0.00     0.040 C 
BRANCH  16  17
ATOM     17  C   UNL d   1      52.486  29.636  53.484  0.00  0.00     0.082 C 
BRANCH  17  18
ATOM     18  N   UNL d   1      52.870  29.231  54.084  0.00  0.00    -0.299 N 
ATOM     19  C   UNL d   1      53.392  28.633  53.906  0.00  0.00     0.107 A 
ATOM     20  C   UNL d   1      53.784  28.219  54.519  0.00  0.00     0.142 A 
ATOM     21  O   UNL d   1      53.645  28.413  55.297  0.00  0.00    -0.300 OA
ATOM     22  C   UNL d   1      53.106  29.029  55.483  0.00  0.00     0.142 A 
ATOM     23  C   UNL d   1      52.720  29.437  54.879  0.00  0.00     0.107 A 
ENDBRANCH  17  18
ENDBRANCH  16  17
ENDBRANCH  15  16
ENDBRANCH  14  15
ENDBRANCH  13  14
ENDBRANCH   3  13
BRANCH   6  24
ATOM     24  N   UNL d   1      51.568  33.421  52.989  0.00  0.00    -0.225 NA
BRANCH  24  25
ATOM     25  C   UNL d   1      51.044  34.082  52.994  0.00  0.00     0.102 C 
BRANCH  25  26
ATOM     26  C   UNL d   1      50.376  34.071  52.517  0.00  0.00     0.040 C 
BRANCH  26  27
ATOM     27  C   UNL d   1      49.856  34.734  52.516  0.00  0.00     0.082 C 
BRANCH  27  28
ATOM     28  N   UNL d   1      49.241  34.756  51.962  0.00  0.00    -0.299 N 
ATOM     29  C   UNL d   1      48.519  35.105  52.181  0.00  0.00     0.107 A 
ATOM     30  C   UNL d   1      47.892  35.142  51.655  0.00  0.00     0.142 A 
ATOM     31  O   UNL d   1      47.993  34.823  50.895  0.00  0.00    -0.300 OA
ATOM     32  C   UNL d   1      48.710  34.477  50.677  0.00  0.00     0.142 A 
ATOM     33  C   UNL d   1      49.325  34.450  51.219  0.00  0.00     0.107 A 
ENDBRANCH  27  28
ENDBRANCH  26  27
ENDBRANCH  25  26
ENDBRANCH  24  25
ENDBRANCH   6  24
TORSDOF 11
ENDMDL
MODEL 3
REMARK VINA RESULT:      -4.2      1.278      5.290
REMARK  11 active torsions:
REMARK  status: ('A' for Active; 'I' for Inactive)
REMARK    1  A    between atoms: C_14  and  C_3 
REMARK    2  A    between atoms: N_15  and  C_6 
REMARK    3  A    between atoms: N_12  and  C_19 
REMARK    4  A    between atoms: N_13  and  C_20 
REMARK    5  A    between atoms: N_16  and  C_14 
REMARK    6  A    between atoms: C_28  and  N_15 
REMARK    7  A    between atoms: C_23  and  N_16 
REMARK    8  A    between atoms: C_19  and  C_21 
REMARK    9  A    between atoms: C_20  and  C_22 
REMARK   10  A    between atoms: C_21  and  C_23 
REMARK   11  A    between atoms: C_22  and  C_28 
ROOT
ATOM      1  N   UNL d   1      49.679  34.666  52.367  0.00  0.00    -0.258 N 
ATOM      2  C   UNL d   1      50.286  34.146  52.130  0.00  0.00     0.270 A 
ATOM      3  C   UNL d   1      50.955  34.059  52.585  0.00  0.00     0.111 A 
ATOM      4  N   UNL d   1      50.451  34.992  53.523  0.00  0.00    -0.209 NA
ATOM      5  C   UNL d   1      49.762  35.092  53.069  0.00  0.00     0.152 A 
ATOM      6  C   UNL d   1      51.038  34.485  53.287  0.00  0.00     0.170 A 
ATOM      7  C   UNL d   1      49.017  34.751  51.913  0.00  0.00     0.084 A 
ATOM      8  C   UNL d   1      49.181  35.597  53.306  0.00  0.00     0.038 A 
ATOM      9  C   UNL d   1      48.413  35.269  52.151  0.00  0.00     0.018 A 
ATOM     10  C   UNL d   1      48.496  35.695  52.852  0.00  0.00     0.005 A 
ATOM     11  O   UNL d   1      50.202  33.714  51.419  0.00  0.00    -0.266 OA
ATOM     12  C   UNL d   1      47.734  35.361  51.694  0.00  0.00     0.002 C 
ENDROOT
BRANCH   3  13
ATOM     13  C   UNL d   1      51.552  33.544  52.347  0.00  0.00     0.107 C 
BRANCH  13  14
ATOM     14  N   UNL d   1      51.532  32.743  52.591  0.00  0.00    -0.242 NA
BRANCH  14  15
ATOM     15  C   UNL d   1      52.196  32.266  52.484  0.00  0.00     0.101 C 
BRANCH  15  16
ATOM     16  C   UNL d   1      52.241  31.541  52.862  0.00  0.00     0.040 C 
BRANCH  16  17
ATOM     17  C   UNL d   1      52.956  31.095  52.846  0.00  0.00     0.082 C 
BRANCH  17  18
ATOM     18  N   UNL d   1      53.017  30.392  53.262  0.00  0.00    -0.299 N 
ATOM     19  C   UNL d   1      52.491  29.787  53.123  0.00  0.00     0.107 A 
ATOM     20  C   UNL d   1      52.552  29.069  53.548  0.00  0.00     0.142 A 
ATOM     21  O   UNL d   1      53.138  28.971  54.104  0.00  0.00    -0.300 OA
ATOM     22  C   UNL d   1      53.682  29.595  54.250  0.00  0.00     0.142 A 
ATOM     23  C   UNL d   1      53.621  30.303  53.831  0.00  0.00     0.107 A 
ENDBRANCH  17  18
ENDBRANCH  16  17
ENDBRANCH  15  16
ENDBRANCH  14  15
ENDBRANCH  13  14
ENDBRANCH   3  13
BRANCH   6  24
ATOM     24  N   UNL d   1      51.717  34.390  53.740  0.00  0.00    -0.225 NA
BRANCH  24  25
ATOM     25  C   UNL d   1      52.102  35.070  54.056  0.00  0.00     0.102 C 
BRANCH  25  26
ATOM     26  C   UNL d   1      52.909  35.044  54.205  0.00  0.00     0.040 C 
BRANCH  26  27
ATOM     27  C   UNL d   1      53.183  34.817  54.969  0.00  0.00     0.082 C 
BRANCH  27  28
ATOM     28  N   UNL d   1      53.849  34.326  55.023  0.00  0.00    -0.299 N 
ATOM     29  C   UNL d   1      53.817  33.666  55.526  0.00  0.00     0.107 A 
ATOM     30  C   UNL d   1      54.459  33.161  55.602  0.00  0.00     0.142 A 
ATOM     31  O   UNL d   1      55.144  33.324  55.162  0.00  0.00    -0.300 OA
ATOM     32  C   UNL d   1      55.176  33.980  54.662  0.00  0.00     0.142 A 
ATOM     33  C   UNL d   1      54.522  34.472  54.602  0.00  0.00     0.107 A 
ENDBRANCH  27  28
ENDBRANCH  26  27
ENDBRANCH  25  26
ENDBRANCH  24  25
ENDBRANCH   6  24
TORSDOF 11
ENDMDL
MODEL 4
REMARK VINA RESULT:      -4.2      1.293      4.747
REMARK  11 active torsions:
REMARK  status: ('A' for Active; 'I' for Inactive)
REMARK    1  A    between atoms: C_14  and  C_3 
REMARK    2  A    between atoms: N_15  and  C_6 
REMARK    3  A    between atoms: N_12  and  C_19 
REMARK    4  A    between atoms: N_13  and  C_20 
REMARK    5  A    between atoms: N_16  and  C_14 
REMARK    6  A    between atoms: C_28  and  N_15 
REMARK    7  A    between atoms: C_23  and  N_16 
REMARK    8  A    between atoms: C_19  and  C_21 
REMARK    9  A    between atoms: C_20  and  C_22 
REMARK   10  A    between atoms: C_21  and  C_23 
REMARK   11  A    between atoms: C_22  and  C_28 
ROOT
ATOM      1  N   UNL d   1      49.555  34.785  52.296  0.00  0.00    -0.258 N 
ATOM      2  C   UNL d   1      50.038  34.905  52.965  0.00  0.00     0.270 A 
ATOM      3  C   UNL d   1      50.714  34.465  53.071  0.00  0.00     0.111 A 
ATOM      4  N   UNL d   1      50.462  33.771  51.862  0.00  0.00    -0.209 NA
ATOM      5  C   UNL d   1      49.769  34.214  51.741  0.00  0.00     0.152 A 
ATOM      6  C   UNL d   1      50.927  33.893  52.515  0.00  0.00     0.170 A 
ATOM      7  C   UNL d   1      48.886  35.224  52.195  0.00  0.00     0.084 A 
ATOM      8  C   UNL d   1      49.309  34.090  51.091  0.00  0.00     0.038 A 
ATOM      9  C   UNL d   1      48.406  35.103  51.528  0.00  0.00     0.018 A 
ATOM     10  C   UNL d   1      48.620  34.532  50.973  0.00  0.00     0.005 A 
ATOM     11  O   UNL d   1      49.822  35.485  53.529  0.00  0.00    -0.266 OA
ATOM     12  C   UNL d   1      47.721  35.547  51.417  0.00  0.00     0.002 C 
ENDROOT
BRANCH   3  13
ATOM     13  C   UNL d   1      51.187  34.588  53.733  0.00  0.00     0.107 C 
BRANCH  13  14
ATOM     14  N   UNL d   1      51.805  35.152  53.704  0.00  0.00    -0.242 NA
BRANCH  14  15
ATOM     15  C   UNL d   1      52.258  35.299  54.377  0.00  0.00     0.101 C 
BRANCH  15  16
ATOM     16  C   UNL d   1      53.059  35.130  54.373  0.00  0.00     0.040 C 
BRANCH  16  17
ATOM     17  C   UNL d   1      53.463  34.964  55.095  0.00  0.00     0.082 C 
BRANCH  17  18
ATOM     18  N   UNL d   1      54.054  34.398  55.119  0.00  0.00    -0.299 N 
ATOM     19  C   UNL d   1      54.729  34.490  54.673  0.00  0.00     0.107 A 
ATOM     20  C   UNL d   1      55.333  33.911  54.698  0.00  0.00     0.142 A 
ATOM     21  O   UNL d   1      55.249  33.252  55.167  0.00  0.00    -0.300 OA
ATOM     22  C   UNL d   1      54.553  33.155  55.628  0.00  0.00     0.142 A 
ATOM     23  C   UNL d   1      53.958  33.726  55.604  0.00  0.00     0.107 A 
ENDBRANCH  17  18
ENDBRANCH  16  17
ENDBRANCH  15  16
ENDBRANCH  14  15
ENDBRANCH  13  14
ENDBRANCH   3  13
BRANCH   6  24
ATOM     24  N   UNL d   1      51.611  33.453  52.630  0.00  0.00    -0.225 NA
BRANCH  24  25
ATOM     25  C   UNL d   1      51.592  32.619  52.514  0.00  0.00     0.102 C 
BRANCH  25  26
ATOM     26  C   UNL d   1      52.214  32.158  52.787  0.00  0.00     0.040 C 
BRANCH  26  27
ATOM     27  C   UNL d   1      52.304  31.370  52.500  0.00  0.00     0.082 C 
BRANCH  27  28
ATOM     28  N   UNL d   1      52.758  30.837  52.942  0.00  0.00    -0.299 N 
ATOM     29  C   UNL d   1      52.406  30.128  53.195  0.00  0.00     0.107 A 
ATOM     30  C   UNL d   1      52.829  29.580  53.634  0.00  0.00     0.142 A 
ATOM     31  O   UNL d   1      53.620  29.748  53.821  0.00  0.00    -0.300 OA
ATOM     32  C   UNL d   1      53.970  30.451  53.569  0.00  0.00     0.142 A 
ATOM     33  C   UNL d   1      53.529  30.987  53.131  0.00  0.00     0.107 A 
ENDBRANCH  27  28
ENDBRANCH  26  27
ENDBRANCH  25  26
ENDBRANCH  24  25
ENDBRANCH   6  24
TORSDOF 11
ENDMDL
MODEL 5
REMARK VINA RESULT:      -4.1      9.800     11.449
REMARK  11 active torsions:
REMARK  status: ('A' for Active; 'I' for Inactive)
REMARK    1  A    between atoms: C_14  and  C_3 
REMARK    2  A    between atoms: N_15  and  C_6 
REMARK    3  A    between atoms: N_12  and  C_19 
REMARK    4  A    between atoms: N_13  and  C_20 
REMARK    5  A    between atoms: N_16  and  C_14 
REMARK    6  A    between atoms: C_28  and  N_15 
REMARK    7  A    between atoms: C_23  and  N_16 
REMARK    8  A    between atoms: C_19  and  C_21 
REMARK    9  A    between atoms: C_20  and  C_22 
REMARK   10  A    between atoms: C_21  and  C_23 
REMARK   11  A    between atoms: C_22  and  C_28 
ROOT
ATOM      1  N   UNL d   1      44.730  28.689  61.937  0.00  0.00    -0.258 N 
ATOM      2  C   UNL d   1      44.589  28.131  61.332  0.00  0.00     0.270 A 
ATOM      3  C   UNL d   1      44.461  28.376  60.567  0.00  0.00     0.111 A 
ATOM      4  N   UNL d   1      44.606  29.727  60.965  0.00  0.00    -0.209 NA
ATOM      5  C   UNL d   1      44.738  29.493  61.752  0.00  0.00     0.152 A 
ATOM      6  C   UNL d   1      44.470  29.180  60.382  0.00  0.00     0.170 A 
ATOM      7  C   UNL d   1      44.857  28.442  62.695  0.00  0.00     0.084 A 
ATOM      8  C   UNL d   1      44.873  30.039  62.327  0.00  0.00     0.038 A 
ATOM      9  C   UNL d   1      44.996  28.999  63.295  0.00  0.00     0.018 A 
ATOM     10  C   UNL d   1      45.005  29.803  63.109  0.00  0.00     0.005 A 
ATOM     11  O   UNL d   1      44.581  27.316  61.520  0.00  0.00    -0.266 OA
ATOM     12  C   UNL d   1      45.127  28.757  64.071  0.00  0.00     0.002 C 
ENDROOT
BRANCH   3  13
ATOM     13  C   UNL d   1      44.323  27.821  59.975  0.00  0.00     0.107 C 
BRANCH  13  14
ATOM     14  N   UNL d   1      44.957  27.364  59.677  0.00  0.00    -0.242 NA
BRANCH  14  15
ATOM     15  C   UNL d   1      44.806  26.640  59.314  0.00  0.00     0.101 C 
BRANCH  15  16
ATOM     16  C   UNL d   1      44.648  26.612  58.511  0.00  0.00     0.040 C 
BRANCH  16  17
ATOM     17  C   UNL d   1      45.247  26.376  57.966  0.00  0.00     0.082 C 
BRANCH  17  18
ATOM     18  N   UNL d   1      45.046  26.112  57.217  0.00  0.00    -0.299 N 
ATOM     19  C   UNL d   1      45.002  25.314  57.062  0.00  0.00     0.107 A 
ATOM     20  C   UNL d   1      44.797  25.044  56.297  0.00  0.00     0.142 A 
ATOM     21  O   UNL d   1      44.640  25.578  55.703  0.00  0.00    -0.300 OA
ATOM     22  C   UNL d   1      44.684  26.402  55.861  0.00  0.00     0.142 A 
ATOM     23  C   UNL d   1      44.887  26.668  56.615  0.00  0.00     0.107 A 
ENDBRANCH  17  18
ENDBRANCH  16  17
ENDBRANCH  15  16
ENDBRANCH  14  15
ENDBRANCH  13  14
ENDBRANCH   3  13
BRANCH   6  24
ATOM     24  N   UNL d   1      44.339  29.417  59.607  0.00  0.00    -0.225 NA
BRANCH  24  25
ATOM     25  C   UNL d   1      44.684  30.135  59.329  0.00  0.00     0.102 C 
BRANCH  25  26
ATOM     26  C   UNL d   1      44.411  30.470  58.631  0.00  0.00     0.040 C 
BRANCH  26  27
ATOM     27  C   UNL d   1      44.801  31.148  58.317  0.00  0.00     0.082 C 
BRANCH  27  28
ATOM     28  N   UNL d   1      44.673  31.348  57.523  0.00  0.00    -0.299 N 
ATOM     29  C   UNL d   1      44.494  32.137  57.334  0.00  0.00     0.107 A 
ATOM     30  C   UNL d   1      44.362  32.365  56.558  0.00  0.00     0.142 A 
ATOM     31  O   UNL d   1      44.412  31.790  55.962  0.00  0.00    -0.300 OA
ATOM     32  C   UNL d   1      44.589  31.006  56.149  0.00  0.00     0.142 A 
ATOM     33  C   UNL d   1      44.718  30.798  56.933  0.00  0.00     0.107 A 
ENDBRANCH  27  28
ENDBRANCH  26  27
ENDBRANCH  25  26
ENDBRANCH  24  25
ENDBRANCH   6  24
TORSDOF 11
ENDMDL
MODEL 6
REMARK VINA RESULT:      -3.5      1.291      4.330
REMARK  11 active torsions:
REMARK  status: ('A' for Active; 'I' for Inactive)
REMARK    1  A    between atoms: C_14  and  C_3 
REMARK    2  A    between atoms: N_15  and  C_6 
REMARK    3  A    between atoms: N_12  and  C_19 
REMARK    4  A    between atoms: N_13  and  C_20 
REMARK    5  A    between atoms: N_16  and  C_14 
REMARK    6  A    between atoms: C_28  and  N_15 
REMARK    7  A    between atoms: C_23  and  N_16 
REMARK    8  A    between atoms: C_19  and  C_21 
REMARK    9  A    between atoms: C_20  and  C_22 
REMARK   10  A    between atoms: C_21  and  C_23 
REMARK   11  A    between atoms: C_22  and  C_28 
ROOT
ATOM      1  N   UNL d   1      52.999  30.489  53.383  0.00  0.00    -0.258 N 
ATOM      2  C   UNL d   1      52.745  31.139  52.926  0.00  0.00     0.270 A 
ATOM      3  C   UNL d   1      53.084  31.872  53.029  0.00  0.00     0.111 A 
ATOM      4  N   UNL d   1      53.933  31.350  54.034  0.00  0.00    -0.209 NA
ATOM      5  C   UNL d   1      53.597  30.595  53.941  0.00  0.00     0.152 A 
ATOM      6  C   UNL d   1      53.682  31.978  53.587  0.00  0.00     0.170 A 
ATOM      7  C   UNL d   1      52.661  29.763  53.278  0.00  0.00     0.084 A 
ATOM      8  C   UNL d   1      53.849  29.974  54.386  0.00  0.00     0.038 A 
ATOM      9  C   UNL d   1      52.914  29.117  53.734  0.00  0.00     0.018 A 
ATOM     10  C   UNL d   1      53.513  29.223  54.292  0.00  0.00     0.005 A 
ATOM     11  O   UNL d   1      52.138  31.032  52.360  0.00  0.00    -0.266 OA
ATOM     12  C   UNL d   1      52.575  28.374  53.634  0.00  0.00     0.002 C 
ENDROOT
BRANCH   3  13
ATOM     13  C   UNL d   1      52.830  32.511  52.575  0.00  0.00     0.107 C 
BRANCH  13  14
ATOM     14  N   UNL d   1      52.040  32.779  52.641  0.00  0.00    -0.242 NA
BRANCH  14  15
ATOM     15  C   UNL d   1      51.811  33.475  52.264  0.00  0.00     0.101 C 
BRANCH  15  16
ATOM     16  C   UNL d   1      51.080  33.806  52.428  0.00  0.00     0.040 C 
BRANCH  16  17
ATOM     17  C   UNL d   1      50.594  34.100  51.805  0.00  0.00     0.082 C 
BRANCH  17  18
ATOM     18  N   UNL d   1      49.882  34.468  51.973  0.00  0.00    -0.299 N 
ATOM     19  C   UNL d   1      49.768  34.834  52.691  0.00  0.00     0.107 A 
ATOM     20  C   UNL d   1      49.040  35.210  52.862  0.00  0.00     0.142 A 
ATOM     21  O   UNL d   1      48.441  35.211  52.312  0.00  0.00    -0.300 OA
ATOM     22  C   UNL d   1      48.556  34.834  51.570  0.00  0.00     0.142 A 
ATOM     23  C   UNL d   1      49.274  34.464  51.401  0.00  0.00     0.107 A 
ENDBRANCH  17  18
ENDBRANCH  16  17
ENDBRANCH  15  16
ENDBRANCH  14  15
ENDBRANCH  13  14
ENDBRANCH   3  13
BRANCH   6  24
ATOM     24  N   UNL d   1      54.018  32.721  53.683  0.00  0.00    -0.225 NA
BRANCH  24  25
ATOM     25  C   UNL d   1      54.288  32.958  54.446  0.00  0.00     0.102 C 
BRANCH  25  26
ATOM     26  C   UNL d   1      54.473  33.747  54.581  0.00  0.00     0.040 C 
BRANCH  26  27
ATOM     27  C   UNL d   1      54.087  34.162  55.205  0.00  0.00     0.082 C 
BRANCH  27  28
ATOM     28  N   UNL d   1      53.711  34.880  55.031  0.00  0.00    -0.299 N 
ATOM     29  C   UNL d   1      52.945  35.010  55.325  0.00  0.00     0.107 A 
ATOM     30  C   UNL d   1      52.547  35.710  55.171  0.00  0.00     0.142 A 
ATOM     31  O   UNL d   1      52.927  36.289  54.713  0.00  0.00    -0.300 OA
ATOM     32  C   UNL d   1      53.688  36.160  54.421  0.00  0.00     0.142 A 
ATOM     33  C   UNL d   1      54.069  35.452  54.587  0.00  0.00     0.107 A 
ENDBRANCH  27  28
ENDBRANCH  26  27
ENDBRANCH  25  26
ENDBRANCH  24  25
ENDBRANCH   6  24
TORSDOF 11
ENDMDL
