MODEL 1
REMARK VINA RESULT:      30.5      0.000      0.000
REMARK  4 active torsions:
REMARK  status: ('A' for Active; 'I' for Inactive)
REMARK    1  A    between atoms: C_2  and  C_1 
REMARK    2  A    between atoms: C_3  and  C_1 
REMARK    3  A    between atoms: C_4  and  C_2 
REMARK    4  A    between atoms: C_9  and  C_3 
ROOT
ATOM      1  C   UNL d   1     -51.601  24.938  33.410  0.00  0.00     0.196 C 
ATOM      2  O   UNL d   1     -50.975  24.410  33.312  0.00  0.00    -0.287 OA
ENDROOT
BRANCH   1   3
ATOM      3  C   UNL d   1     -52.369  24.648  33.533  0.00  0.00     0.042 C 
BRANCH   3   4
ATOM      4  C   UNL d   1     -52.498  24.038  34.072  0.00  0.00     0.005 C 
BRANCH   4   5
ATOM      5  C   UNL d   1     -53.265  23.780  34.220  0.00  0.00     0.019 A 
ATOM      6  C   UNL d   1     -53.522  23.670  34.998  0.00  0.00     0.099 A 
ATOM      7  N   UNL d   1     -54.290  23.413  35.146  0.00  0.00    -0.242 NA
ATOM      8  C   UNL d   1     -54.806  23.263  34.515  0.00  0.00     0.099 A 
ATOM      9  C   UNL d   1     -54.552  23.372  33.740  0.00  0.00     0.021 A 
ATOM     10  C   UNL d   1     -53.782  23.631  33.589  0.00  0.00     0.003 A 
ENDBRANCH   4   5
ENDBRANCH   3   4
ENDBRANCH   1   3
BRANCH   1  11
ATOM     11  C   UNL d   1     -51.463  25.749  33.388  0.00  0.00     0.039 A 
ATOM     12  C   UNL d   1     -50.691  26.027  33.392  0.00  0.00     0.006 A 
ATOM     13  C   UNL d   1     -50.550  26.840  33.369  0.00  0.00     0.042 A 
ATOM     14  C   UNL d   1     -51.188  27.374  33.342  0.00  0.00     0.196 A 
ATOM     15  C   UNL d   1     -51.961  27.086  33.338  0.00  0.00     0.042 A 
ATOM     16  O   UNL d   1     -51.043  28.188  33.319  0.00  0.00    -0.287 OA
ATOM     17  C   UNL d   1     -52.099  26.276  33.361  0.00  0.00     0.006 A 
ENDBRANCH   1  11
TORSDOF 4
ENDMDL
MODEL 2
REMARK VINA RESULT:      33.5      1.445      2.069
REMARK  4 active torsions:
REMARK  status: ('A' for Active; 'I' for Inactive)
REMARK    1  A    between atoms: C_2  and  C_1 
REMARK    2  A    between atoms: C_3  and  C_1 
REMARK    3  A    between atoms: C_4  and  C_2 
REMARK    4  A    between atoms: C_9  and  C_3 
ROOT
ATOM      1  C   UNL d   1     -51.257  26.534  33.684  0.00  0.00     0.196 C 
ATOM      2  O   UNL d   1     -51.812  27.126  33.533  0.00  0.00    -0.287 OA
ENDROOT
BRANCH   1   3
ATOM      3  C   UNL d   1     -51.463  25.738  33.569  0.00  0.00     0.042 C 
BRANCH   3   4
ATOM      4  C   UNL d   1     -52.226  25.540  33.327  0.00  0.00     0.005 C 
BRANCH   4   5
ATOM      5  C   UNL d   1     -52.478  24.759  33.375  0.00  0.00     0.019 A 
ATOM      6  C   UNL d   1     -51.924  24.146  33.409  0.00  0.00     0.099 A 
ATOM      7  N   UNL d   1     -52.177  23.364  33.457  0.00  0.00    -0.242 NA
ATOM      8  C   UNL d   1     -52.987  23.190  33.472  0.00  0.00     0.099 A 
ATOM      9  C   UNL d   1     -53.540  23.798  33.439  0.00  0.00     0.021 A 
ATOM     10  C   UNL d   1     -53.289  24.584  33.390  0.00  0.00     0.003 A 
ENDBRANCH   4   5
ENDBRANCH   3   4
ENDBRANCH   1   3
BRANCH   1  11
ATOM     11  C   UNL d   1     -50.504  26.734  33.947  0.00  0.00     0.039 A 
ATOM     12  C   UNL d   1     -49.859  26.294  33.693  0.00  0.00     0.006 A 
ATOM     13  C   UNL d   1     -49.101  26.492  33.955  0.00  0.00     0.042 A 
ATOM     14  C   UNL d   1     -48.994  27.134  34.475  0.00  0.00     0.196 A 
ATOM     15  C   UNL d   1     -49.648  27.570  34.726  0.00  0.00     0.042 A 
ATOM     16  O   UNL d   1     -48.234  27.329  34.736  0.00  0.00    -0.287 OA
ATOM     17  C   UNL d   1     -50.401  27.371  34.462  0.00  0.00     0.006 A 
ENDBRANCH   1  11
TORSDOF 4
ENDMDL
