MODEL 1
REMARK VINA RESULT:      -3.1      0.000      0.000
REMARK  3 active torsions:
REMARK  status: ('A' for Active; 'I' for Inactive)
REMARK    1  A    between atoms: N_6  and  C_1 
REMARK       I    between atoms: C_8  and  N_6 
REMARK       I    between atoms: C_11  and  N_7 
REMARK    2  A    between atoms: C_14  and  C_8 
REMARK    3  A    between atoms: O_23  and  C_20 
ROOT
ATOM      1  C   UNL d   1      33.234  19.768 -22.800  0.00  0.00     0.124 A 
ATOM      2  C   UNL d   1      33.232  19.624 -23.613  0.00  0.00     0.093 A 
ATOM      3  C   UNL d   1      33.223  18.446 -22.996  0.00  0.00     0.049 A 
ATOM      4  C   UNL d   1      33.225  18.795 -23.727  0.00  0.00     0.021 A 
ATOM      5  S   UNL d   1      33.228  19.034 -22.412  0.00  0.00    -0.066 SA
ATOM      6  N   UNL d   1      33.211  17.148 -23.616  0.00  0.00    -0.272 N 
ATOM      7  C   UNL d   1      33.216  17.602 -22.931  0.00  0.00     0.089 A 
ATOM      8  C   UNL d   1      33.237  20.198 -24.202  0.00  0.00     0.103 C 
ATOM      9  C   UNL d   1      33.204  16.321 -23.565  0.00  0.00     0.265 C 
ATOM     10  N   UNL d   1      33.241  20.767 -24.787  0.00  0.00    -0.191 NA
ATOM     11  C   UNL d   1      33.221  18.342 -24.425  0.00  0.00     0.020 A 
ATOM     12  C   UNL d   1      33.214  17.517 -24.360  0.00  0.00     0.083 A 
ATOM     13  O   UNL d   1      33.202  15.956 -22.828  0.00  0.00    -0.267 OA
ATOM     14  C   UNL d   1      33.200  15.863 -24.252  0.00  0.00     0.066 C 
ENDROOT
BRANCH   1  15
ATOM     15  N   UNL d   1      33.241  20.514 -22.431  0.00  0.00    -0.201 NA
ATOM     16  C   UNL d   1      32.872  20.604 -21.699  0.00  0.00     0.280 C 
ATOM     17  O   UNL d   1      32.498  19.975 -21.329  0.00  0.00    -0.265 OA
BRANCH  16  18
ATOM     18  C   UNL d   1      32.878  21.342 -21.334  0.00  0.00     0.058 A 
ATOM     19  C   UNL d   1      32.552  21.989 -21.707  0.00  0.00     0.007 A 
ATOM     20  C   UNL d   1      32.559  22.734 -21.338  0.00  0.00     0.024 A 
ATOM     21  C   UNL d   1      32.897  22.812 -20.594  0.00  0.00     0.094 A 
ATOM     22  C   UNL d   1      33.227  22.163 -20.215  0.00  0.00     0.024 A 
ATOM     23  C   UNL d   1      33.220  21.425 -20.580  0.00  0.00     0.007 A 
BRANCH  21  24
ATOM     24  O   UNL d   1      32.904  23.561 -20.223  0.00  0.00    -0.328 OA
ATOM     25  C   UNL d   1      32.924  23.624 -19.394  0.00  0.00     0.181 C 
ENDBRANCH  21  24
ENDBRANCH  16  18
ENDBRANCH   1  15
TORSDOF 3
ENDMDL
