MODEL 1
REMARK VINA RESULT:      24.1      0.000      0.000
REMARK  3 active torsions:
REMARK  status: ('A' for Active; 'I' for Inactive)
REMARK    1  A    between atoms: N_7  and  C_1 
REMARK    2  A    between atoms: N_10  and  N_7 
REMARK    3  A    between atoms: C_17  and  N_10 
ROOT
ATOM      1  N   UNL d   1      14.566  12.808  -0.139  0.00  0.00    -0.148 NA
ENDROOT
BRANCH   1   2
ATOM      2  N   UNL d   1      14.777  12.213  -0.689  0.00  0.00    -0.138 NA
BRANCH   2   3
ATOM      3  C   UNL d   1      14.322  12.106  -1.341  0.00  0.00     0.218 A 
ATOM      4  C   UNL d   1      14.622  12.164  -2.072  0.00  0.00     0.307 A 
ATOM      5  N   UNL d   1      14.143  12.052  -2.722  0.00  0.00    -0.150 NA
ATOM      6  O   UNL d   1      15.435  12.342  -2.168  0.00  0.00    -0.263 OA
ATOM      7  C   UNL d   1      13.390  11.888  -2.667  0.00  0.00     0.374 A 
ATOM      8  N   UNL d   1      13.057  11.823  -1.909  0.00  0.00    -0.150 NA
ATOM      9  O   UNL d   1      12.931  11.780  -3.367  0.00  0.00    -0.242 OA
ATOM     10  C   UNL d   1      13.508  11.929  -1.246  0.00  0.00     0.307 A 
ATOM     11  O   UNL d   1      13.165  11.861  -0.491  0.00  0.00    -0.263 OA
ENDBRANCH   2   3
ENDBRANCH   1   2
BRANCH   1  12
ATOM     12  C   UNL d   1      15.002  13.517  -0.131  0.00  0.00     0.105 A 
ATOM     13  C   UNL d   1      14.566  14.195  -0.245  0.00  0.00     0.048 A 
ATOM     14  C   UNL d   1      14.954  14.923  -0.245  0.00  0.00     0.124 A 
ATOM     15  O   UNL d   1      14.517  15.603  -0.359  0.00  0.00    -0.301 OA
ATOM     16  C   UNL d   1      15.785  14.961  -0.129  0.00  0.00     0.123 A 
ATOM     17  C   UNL d   1      14.906  16.331  -0.359  0.00  0.00     0.149 A 
ATOM     18  C   UNL d   1      15.737  16.369  -0.243  0.00  0.00     0.149 A 
ATOM     19  O   UNL d   1      16.169  15.678  -0.128  0.00  0.00    -0.301 OA
ATOM     20  C   UNL d   1      16.217  14.271  -0.014  0.00  0.00     0.028 A 
ATOM     21  C   UNL d   1      15.833  13.555  -0.014  0.00  0.00     0.023 A 
ENDBRANCH   1  12
TORSDOF 3
ENDMDL
MODEL 2
REMARK VINA RESULT:      24.6      1.455      4.294
REMARK  3 active torsions:
REMARK  status: ('A' for Active; 'I' for Inactive)
REMARK    1  A    between atoms: N_7  and  C_1 
REMARK    2  A    between atoms: N_10  and  N_7 
REMARK    3  A    between atoms: C_17  and  N_10 
ROOT
ATOM      1  N   UNL d   1      14.355  12.421  -1.735  0.00  0.00    -0.148 NA
ENDROOT
BRANCH   1   2
ATOM      2  N   UNL d   1      14.062  13.005  -1.213  0.00  0.00    -0.138 NA
BRANCH   2   3
ATOM      3  C   UNL d   1      14.569  13.553  -0.917  0.00  0.00     0.218 A 
ATOM      4  C   UNL d   1      14.546  14.310  -1.150  0.00  0.00     0.307 A 
ATOM      5  N   UNL d   1      15.069  14.851  -0.838  0.00  0.00    -0.150 NA
ATOM      6  O   UNL d   1      13.979  14.546  -1.720  0.00  0.00    -0.263 OA
ATOM      7  C   UNL d   1      15.603  14.665  -0.312  0.00  0.00     0.374 A 
ATOM      8  N   UNL d   1      15.643  13.876  -0.055  0.00  0.00    -0.150 NA
ATOM      9  O   UNL d   1      16.126  15.258  -0.015  0.00  0.00    -0.242 OA
ATOM     10  C   UNL d   1      15.136  13.317  -0.348  0.00  0.00     0.307 A 
ATOM     11  O   UNL d   1      15.185  12.530  -0.084  0.00  0.00    -0.263 OA
ENDBRANCH   2   3
ENDBRANCH   1   2
BRANCH   1  12
ATOM     12  C   UNL d   1      13.926  12.253  -2.429  0.00  0.00     0.105 A 
ATOM     13  C   UNL d   1      14.311  12.426  -3.126  0.00  0.00     0.048 A 
ATOM     14  C   UNL d   1      13.926  12.278  -3.841  0.00  0.00     0.124 A 
ATOM     15  O   UNL d   1      14.311  12.451  -4.539  0.00  0.00    -0.301 OA
ATOM     16  C   UNL d   1      13.151  11.954  -3.847  0.00  0.00     0.123 A 
ATOM     17  C   UNL d   1      13.926  12.303  -5.254  0.00  0.00     0.149 A 
ATOM     18  C   UNL d   1      13.151  11.978  -5.259  0.00  0.00     0.149 A 
ATOM     19  O   UNL d   1      12.771  11.807  -4.550  0.00  0.00    -0.301 OA
ATOM     20  C   UNL d   1      12.771  11.782  -3.138  0.00  0.00     0.028 A 
ATOM     21  C   UNL d   1      13.151  11.929  -2.435  0.00  0.00     0.023 A 
ENDBRANCH   1  12
TORSDOF 3
ENDMDL
MODEL 3
REMARK VINA RESULT:      24.9      2.054      4.117
REMARK  3 active torsions:
REMARK  status: ('A' for Active; 'I' for Inactive)
REMARK    1  A    between atoms: N_7  and  C_1 
REMARK    2  A    between atoms: N_10  and  N_7 
REMARK    3  A    between atoms: C_17  and  N_10 
ROOT
ATOM      1  N   UNL d   1      13.300  12.523  -2.196  0.00  0.00    -0.148 NA
ENDROOT
BRANCH   1   2
ATOM      2  N   UNL d   1      13.701  11.893  -1.820  0.00  0.00    -0.138 NA
BRANCH   2   3
ATOM      3  C   UNL d   1      14.350  12.054  -1.375  0.00  0.00     0.218 A 
ATOM      4  C   UNL d   1      15.081  12.023  -1.678  0.00  0.00     0.307 A 
ATOM      5  N   UNL d   1      15.726  12.190  -1.210  0.00  0.00    -0.150 NA
ATOM      6  O   UNL d   1      15.181  11.817  -2.484  0.00  0.00    -0.263 OA
ATOM      7  C   UNL d   1      15.666  12.383  -0.464  0.00  0.00     0.374 A 
ATOM      8  N   UNL d   1      14.908  12.421  -0.128  0.00  0.00    -0.150 NA
ATOM      9  O   UNL d   1      16.362  12.548  -0.015  0.00  0.00    -0.242 OA
ATOM     10  C   UNL d   1      14.249  12.260  -0.569  0.00  0.00     0.307 A 
ATOM     11  O   UNL d   1      13.494  12.300  -0.222  0.00  0.00    -0.263 OA
ENDBRANCH   2   3
ENDBRANCH   1   2
BRANCH   1  12
ATOM     12  C   UNL d   1      13.163  12.477  -3.017  0.00  0.00     0.105 A 
ATOM     13  C   UNL d   1      13.293  13.166  -3.431  0.00  0.00     0.048 A 
ATOM     14  C   UNL d   1      13.171  13.170  -4.247  0.00  0.00     0.124 A 
ATOM     15  O   UNL d   1      13.300  13.860  -4.662  0.00  0.00    -0.301 OA
ATOM     16  C   UNL d   1      12.917  12.473  -4.641  0.00  0.00     0.123 A 
ATOM     17  C   UNL d   1      13.178  13.864  -5.478  0.00  0.00     0.149 A 
ATOM     18  C   UNL d   1      12.925  13.167  -5.872  0.00  0.00     0.149 A 
ATOM     19  O   UNL d   1      12.797  12.475  -5.445  0.00  0.00    -0.301 OA
ATOM     20  C   UNL d   1      12.789  11.781  -4.214  0.00  0.00     0.028 A 
ATOM     21  C   UNL d   1      12.910  11.780  -3.411  0.00  0.00     0.023 A 
ENDBRANCH   1  12
TORSDOF 3
ENDMDL
