MODEL 1
REMARK VINA RESULT:      -8.4      0.000      0.000
REMARK  3 active torsions:
REMARK  status: ('A' for Active; 'I' for Inactive)
REMARK    1  A    between atoms: N_5  and  C_1 
REMARK    2  A    between atoms: C_9  and  C_2 
REMARK       I    between atoms: C_8  and  N_5 
REMARK    3  A    between atoms: C_10  and  C_8 
ROOT
ATOM      1  C   UNL d   1     -48.188  13.680  22.970  0.00  0.00     0.155 A 
ATOM      2  C   UNL d   1     -48.194  12.863  22.856  0.00  0.00     0.080 A 
ATOM      3  N   UNL d   1     -47.481  14.105  22.872  0.00  0.00    -0.289 N 
ATOM      4  C   UNL d   1     -47.493  12.471  22.643  0.00  0.00     0.200 A 
ATOM      5  C   UNL d   1     -46.794  12.896  22.546  0.00  0.00     0.055 A 
ATOM      6  C   UNL d   1     -46.788  13.713  22.661  0.00  0.00     0.069 A 
ATOM      7  O   UNL d   1     -47.499  11.650  22.528  0.00  0.00    -0.286 OA
ATOM      8  C   UNL d   1     -47.476  14.922  22.986  0.00  0.00     0.101 C 
ATOM      9  C   UNL d   1     -46.102  12.504  22.336  0.00  0.00     0.005 A 
ATOM     10  C   UNL d   1     -46.098  14.138  22.566  0.00  0.00     0.018 A 
ATOM     11  C   UNL d   1     -45.403  12.930  22.239  0.00  0.00     0.000 A 
ATOM     12  C   UNL d   1     -45.397  13.747  22.353  0.00  0.00     0.002 A 
ENDROOT
BRANCH   1  13
ATOM     13  N   UNL d   1     -48.892  14.079  23.185  0.00  0.00    -0.190 NA
ATOM     14  C   UNL d   1     -49.136  14.766  22.788  0.00  0.00     0.286 C 
ATOM     15  O   UNL d   1     -48.671  15.052  22.175  0.00  0.00    -0.265 OA
BRANCH  14  16
ATOM     16  C   UNL d   1     -49.829  15.158  23.000  0.00  0.00     0.087 A 
ATOM     17  S   UNL d   1     -50.456  15.206  22.466  0.00  0.00    -0.082 SA
ATOM     18  C   UNL d   1     -51.064  15.626  22.832  0.00  0.00     0.036 A 
ATOM     19  C   UNL d   1     -50.818  15.839  23.591  0.00  0.00     0.008 A 
ATOM     20  C   UNL d   1     -50.048  15.549  23.698  0.00  0.00     0.012 A 
ENDBRANCH  14  16
ENDBRANCH   1  13
BRANCH   2  21
ATOM     21  C   UNL d   1     -48.892  12.437  22.952  0.00  0.00     0.035 A 
ATOM     22  S   UNL d   1     -49.177  12.133  23.666  0.00  0.00    -0.086 SA
ATOM     23  C   UNL d   1     -49.890  11.748  23.505  0.00  0.00     0.035 A 
ATOM     24  C   UNL d   1     -50.049  11.813  22.693  0.00  0.00     0.007 A 
ATOM     25  C   UNL d   1     -49.426  12.240  22.361  0.00  0.00     0.007 A 
ENDBRANCH   2  21
TORSDOF 3
ENDMDL
MODEL 2
REMARK VINA RESULT:      -8.0      1.272      3.560
REMARK  3 active torsions:
REMARK  status: ('A' for Active; 'I' for Inactive)
REMARK    1  A    between atoms: N_5  and  C_1 
REMARK    2  A    between atoms: C_9  and  C_2 
REMARK       I    between atoms: C_8  and  N_5 
REMARK    3  A    between atoms: C_10  and  C_8 
ROOT
ATOM      1  C   UNL d   1     -48.572  13.699  22.804  0.00  0.00     0.155 A 
ATOM      2  C   UNL d   1     -49.152  13.176  23.070  0.00  0.00     0.080 A 
ATOM      3  N   UNL d   1     -48.712  14.517  22.829  0.00  0.00    -0.289 N 
ATOM      4  C   UNL d   1     -49.873  13.471  23.359  0.00  0.00     0.200 A 
ATOM      5  C   UNL d   1     -50.008  14.284  23.381  0.00  0.00     0.055 A 
ATOM      6  C   UNL d   1     -49.428  14.806  23.116  0.00  0.00     0.069 A 
ATOM      7  O   UNL d   1     -50.456  12.946  23.625  0.00  0.00    -0.286 OA
ATOM      8  C   UNL d   1     -48.132  15.040  22.563  0.00  0.00     0.101 C 
ATOM      9  C   UNL d   1     -50.723  14.572  23.668  0.00  0.00     0.005 A 
ATOM     10  C   UNL d   1     -49.558  15.611  23.136  0.00  0.00     0.018 A 
ATOM     11  C   UNL d   1     -50.858  15.384  23.691  0.00  0.00     0.000 A 
ATOM     12  C   UNL d   1     -50.278  15.907  23.425  0.00  0.00     0.002 A 
ENDROOT
BRANCH   1  13
ATOM     13  N   UNL d   1     -47.845  13.405  22.512  0.00  0.00    -0.190 NA
ATOM     14  C   UNL d   1     -47.120  13.722  22.764  0.00  0.00     0.286 C 
ATOM     15  O   UNL d   1     -47.126  14.334  23.311  0.00  0.00    -0.265 OA
BRANCH  14  16
ATOM     16  C   UNL d   1     -46.405  13.433  22.476  0.00  0.00     0.087 A 
ATOM     17  S   UNL d   1     -45.813  13.197  23.000  0.00  0.00    -0.082 SA
ATOM     18  C   UNL d   1     -45.171  12.937  22.552  0.00  0.00     0.036 A 
ATOM     19  C   UNL d   1     -45.361  13.009  21.752  0.00  0.00     0.008 A 
ATOM     20  C   UNL d   1     -46.129  13.318  21.702  0.00  0.00     0.012 A 
ENDBRANCH  14  16
ENDBRANCH   1  13
BRANCH   2  21
ATOM     21  C   UNL d   1     -49.018  12.364  23.048  0.00  0.00     0.035 A 
ATOM     22  S   UNL d   1     -48.836  11.887  23.698  0.00  0.00    -0.086 SA
ATOM     23  C   UNL d   1     -48.748  11.113  23.422  0.00  0.00     0.035 A 
ATOM     24  C   UNL d   1     -48.875  11.109  22.601  0.00  0.00     0.007 A 
ATOM     25  C   UNL d   1     -49.041  11.886  22.381  0.00  0.00     0.007 A 
ENDBRANCH   2  21
TORSDOF 3
ENDMDL
MODEL 3
REMARK VINA RESULT:      -7.5      1.702      2.736
REMARK  3 active torsions:
REMARK  status: ('A' for Active; 'I' for Inactive)
REMARK    1  A    between atoms: N_5  and  C_1 
REMARK    2  A    between atoms: C_9  and  C_2 
REMARK       I    between atoms: C_8  and  N_5 
REMARK    3  A    between atoms: C_10  and  C_8 
ROOT
ATOM      1  C   UNL d   1     -47.638  12.459  23.159  0.00  0.00     0.155 A 
ATOM      2  C   UNL d   1     -47.061  12.984  22.890  0.00  0.00     0.080 A 
ATOM      3  N   UNL d   1     -47.415  11.706  23.429  0.00  0.00    -0.289 N 
ATOM      4  C   UNL d   1     -46.262  12.756  22.892  0.00  0.00     0.200 A 
ATOM      5  C   UNL d   1     -46.046  12.008  23.161  0.00  0.00     0.055 A 
ATOM      6  C   UNL d   1     -46.622  11.483  23.429  0.00  0.00     0.069 A 
ATOM      7  O   UNL d   1     -45.683  13.284  22.622  0.00  0.00    -0.286 OA
ATOM      8  C   UNL d   1     -47.992  11.180  23.698  0.00  0.00     0.101 C 
ATOM      9  C   UNL d   1     -45.253  11.786  23.160  0.00  0.00     0.005 A 
ATOM     10  C   UNL d   1     -46.412  10.741  23.696  0.00  0.00     0.018 A 
ATOM     11  C   UNL d   1     -45.037  11.038  23.429  0.00  0.00     0.000 A 
ATOM     12  C   UNL d   1     -45.614  10.513  23.698  0.00  0.00     0.002 A 
ENDROOT
BRANCH   1  13
ATOM     13  N   UNL d   1     -48.444  12.684  23.160  0.00  0.00    -0.190 NA
ATOM     14  C   UNL d   1     -49.025  12.208  22.806  0.00  0.00     0.286 C 
ATOM     15  O   UNL d   1     -48.795  11.504  22.452  0.00  0.00    -0.265 OA
BRANCH  14  16
ATOM     16  C   UNL d   1     -49.817  12.431  22.807  0.00  0.00     0.087 A 
ATOM     17  S   UNL d   1     -50.260  12.385  22.113  0.00  0.00    -0.082 SA
ATOM     18  C   UNL d   1     -51.025  12.642  22.286  0.00  0.00     0.036 A 
ATOM     19  C   UNL d   1     -51.059  12.848  23.085  0.00  0.00     0.008 A 
ATOM     20  C   UNL d   1     -50.308  12.717  23.412  0.00  0.00     0.012 A 
ENDBRANCH  14  16
ENDBRANCH   1  13
BRANCH   2  21
ATOM     21  C   UNL d   1     -47.276  13.732  22.622  0.00  0.00     0.035 A 
ATOM     22  S   UNL d   1     -47.396  14.399  23.095  0.00  0.00    -0.086 SA
ATOM     23  C   UNL d   1     -47.604  15.024  22.596  0.00  0.00     0.035 A 
ATOM     24  C   UNL d   1     -47.614  14.746  21.814  0.00  0.00     0.007 A 
ATOM     25  C   UNL d   1     -47.410  13.947  21.841  0.00  0.00     0.007 A 
ENDBRANCH   2  21
TORSDOF 3
ENDMDL
MODEL 4
REMARK VINA RESULT:      -6.4      1.333      3.967
REMARK  3 active torsions:
REMARK  status: ('A' for Active; 'I' for Inactive)
REMARK    1  A    between atoms: N_5  and  C_1 
REMARK    2  A    between atoms: C_9  and  C_2 
REMARK       I    between atoms: C_8  and  N_5 
REMARK    3  A    between atoms: C_10  and  C_8 
ROOT
ATOM      1  C   UNL d   1     -48.505  13.196  22.996  0.00  0.00     0.155 A 
ATOM      2  C   UNL d   1     -49.105  13.740  22.841  0.00  0.00     0.080 A 
ATOM      3  N   UNL d   1     -48.699  12.430  23.251  0.00  0.00    -0.289 N 
ATOM      4  C   UNL d   1     -49.899  13.518  22.940  0.00  0.00     0.200 A 
ATOM      5  C   UNL d   1     -50.088  12.757  23.192  0.00  0.00     0.055 A 
ATOM      6  C   UNL d   1     -49.488  12.213  23.348  0.00  0.00     0.069 A 
ATOM      7  O   UNL d   1     -50.503  14.065  22.783  0.00  0.00    -0.286 OA
ATOM      8  C   UNL d   1     -48.099  11.885  23.407  0.00  0.00     0.101 C 
ATOM      9  C   UNL d   1     -50.876  12.541  23.289  0.00  0.00     0.005 A 
ATOM     10  C   UNL d   1     -49.670  11.458  23.599  0.00  0.00     0.018 A 
ATOM     11  C   UNL d   1     -51.064  11.780  23.542  0.00  0.00     0.000 A 
ATOM     12  C   UNL d   1     -50.464  11.236  23.698  0.00  0.00     0.002 A 
ENDROOT
BRANCH   1  13
ATOM     13  N   UNL d   1     -47.703  13.415  22.898  0.00  0.00    -0.190 NA
ATOM     14  C   UNL d   1     -47.160  12.908  22.527  0.00  0.00     0.286 C 
ATOM     15  O   UNL d   1     -47.423  12.181  22.255  0.00  0.00    -0.265 OA
BRANCH  14  16
ATOM     16  C   UNL d   1     -46.371  13.125  22.431  0.00  0.00     0.087 A 
ATOM     17  S   UNL d   1     -45.945  12.854  21.779  0.00  0.00    -0.082 SA
ATOM     18  C   UNL d   1     -45.180  13.161  21.835  0.00  0.00     0.036 A 
ATOM     19  C   UNL d   1     -45.131  13.621  22.518  0.00  0.00     0.008 A 
ATOM     20  C   UNL d   1     -45.871  13.601  22.891  0.00  0.00     0.012 A 
ENDBRANCH  14  16
ENDBRANCH   1  13
BRANCH   2  21
ATOM     21  C   UNL d   1     -48.917  14.501  22.588  0.00  0.00     0.035 A 
ATOM     22  S   UNL d   1     -48.821  15.161  23.075  0.00  0.00    -0.086 SA
ATOM     23  C   UNL d   1     -48.637  15.804  22.590  0.00  0.00     0.035 A 
ATOM     24  C   UNL d   1     -48.618  15.544  21.802  0.00  0.00     0.007 A 
ATOM     25  C   UNL d   1     -48.793  14.738  21.812  0.00  0.00     0.007 A 
ENDBRANCH   2  21
TORSDOF 3
ENDMDL
MODEL 5
REMARK VINA RESULT:      -6.4      7.910      9.847
REMARK  3 active torsions:
REMARK  status: ('A' for Active; 'I' for Inactive)
REMARK    1  A    between atoms: N_5  and  C_1 
REMARK    2  A    between atoms: C_9  and  C_2 
REMARK       I    between atoms: C_8  and  N_5 
REMARK    3  A    between atoms: C_10  and  C_8 
ROOT
ATOM      1  C   UNL d   1     -39.249  14.475  20.024  0.00  0.00     0.155 A 
ATOM      2  C   UNL d   1     -39.993  14.669  19.725  0.00  0.00     0.080 A 
ATOM      3  N   UNL d   1     -38.683  14.126  19.526  0.00  0.00    -0.289 N 
ATOM      4  C   UNL d   1     -40.171  14.514  18.928  0.00  0.00     0.200 A 
ATOM      5  C   UNL d   1     -39.607  14.168  18.438  0.00  0.00     0.055 A 
ATOM      6  C   UNL d   1     -38.863  13.973  18.737  0.00  0.00     0.069 A 
ATOM      7  O   UNL d   1     -40.919  14.710  18.628  0.00  0.00    -0.286 OA
ATOM      8  C   UNL d   1     -37.939  13.931  19.825  0.00  0.00     0.101 C 
ATOM      9  C   UNL d   1     -39.788  14.016  17.650  0.00  0.00     0.005 A 
ATOM     10  C   UNL d   1     -38.302  13.630  18.255  0.00  0.00     0.018 A 
ATOM     11  C   UNL d   1     -39.224  13.669  17.160  0.00  0.00     0.000 A 
ATOM     12  C   UNL d   1     -38.480  13.474  17.459  0.00  0.00     0.002 A 
ENDROOT
BRANCH   1  13
ATOM     13  N   UNL d   1     -39.065  14.629  20.826  0.00  0.00    -0.190 NA
ATOM     14  C   UNL d   1     -38.736  14.043  21.313  0.00  0.00     0.286 C 
ATOM     15  O   UNL d   1     -38.593  13.301  20.994  0.00  0.00    -0.265 OA
BRANCH  14  16
ATOM     16  C   UNL d   1     -38.556  14.196  22.102  0.00  0.00     0.087 A 
ATOM     17  S   UNL d   1     -38.699  13.623  22.677  0.00  0.00    -0.082 SA
ATOM     18  C   UNL d   1     -38.465  13.934  23.405  0.00  0.00     0.036 A 
ATOM     19  C   UNL d   1     -38.176  14.698  23.284  0.00  0.00     0.008 A 
ATOM     20  C   UNL d   1     -38.232  14.864  22.473  0.00  0.00     0.012 A 
ENDBRANCH  14  16
ENDBRANCH   1  13
BRANCH   2  21
ATOM     21  C   UNL d   1     -40.557  15.016  20.214  0.00  0.00     0.035 A 
ATOM     22  S   UNL d   1     -40.628  15.824  20.372  0.00  0.00    -0.086 SA
ATOM     23  C   UNL d   1     -41.266  15.922  20.888  0.00  0.00     0.035 A 
ATOM     24  C   UNL d   1     -41.591  15.175  21.052  0.00  0.00     0.007 A 
ATOM     25  C   UNL d   1     -41.146  14.624  20.630  0.00  0.00     0.007 A 
ENDBRANCH   2  21
TORSDOF 3
ENDMDL
MODEL 6
REMARK VINA RESULT:      -5.7      8.949     10.403
REMARK  3 active torsions:
REMARK  status: ('A' for Active; 'I' for Inactive)
REMARK    1  A    between atoms: N_5  and  C_1 
REMARK    2  A    between atoms: C_9  and  C_2 
REMARK       I    between atoms: C_8  and  N_5 
REMARK    3  A    between atoms: C_10  and  C_8 
ROOT
ATOM      1  C   UNL d   1     -39.172  14.431  19.261  0.00  0.00     0.155 A 
ATOM      2  C   UNL d   1     -39.903  14.746  19.479  0.00  0.00     0.080 A 
ATOM      3  N   UNL d   1     -38.671  14.112  19.842  0.00  0.00    -0.289 N 
ATOM      4  C   UNL d   1     -40.132  14.744  20.278  0.00  0.00     0.200 A 
ATOM      5  C   UNL d   1     -39.632  14.427  20.851  0.00  0.00     0.055 A 
ATOM      6  C   UNL d   1     -38.901  14.111  20.633  0.00  0.00     0.069 A 
ATOM      7  O   UNL d   1     -40.866  15.061  20.497  0.00  0.00    -0.286 OA
ATOM      8  C   UNL d   1     -37.941  13.796  19.624  0.00  0.00     0.101 C 
ATOM      9  C   UNL d   1     -39.863  14.426  21.641  0.00  0.00     0.005 A 
ATOM     10  C   UNL d   1     -38.404  13.796  21.197  0.00  0.00     0.018 A 
ATOM     11  C   UNL d   1     -39.363  14.109  22.213  0.00  0.00     0.000 A 
ATOM     12  C   UNL d   1     -38.632  13.793  21.995  0.00  0.00     0.002 A 
ENDROOT
BRANCH   1  13
ATOM     13  N   UNL d   1     -38.937  14.431  18.458  0.00  0.00    -0.190 NA
ATOM     14  C   UNL d   1     -38.578  13.767  18.113  0.00  0.00     0.286 C 
ATOM     15  O   UNL d   1     -38.455  13.101  18.577  0.00  0.00    -0.265 OA
BRANCH  14  16
ATOM     16  C   UNL d   1     -38.347  13.769  17.323  0.00  0.00     0.087 A 
ATOM     17  S   UNL d   1     -38.333  13.064  16.895  0.00  0.00    -0.082 SA
ATOM     18  C   UNL d   1     -38.082  13.241  16.129  0.00  0.00     0.036 A 
ATOM     19  C   UNL d   1     -37.940  14.053  16.079  0.00  0.00     0.008 A 
ATOM     20  C   UNL d   1     -38.104  14.384  16.822  0.00  0.00     0.012 A 
ENDBRANCH  14  16
ENDBRANCH   1  13
BRANCH   2  21
ATOM     21  C   UNL d   1     -40.403  15.063  18.907  0.00  0.00     0.035 A 
ATOM     22  S   UNL d   1     -40.411  15.851  18.657  0.00  0.00    -0.086 SA
ATOM     23  C   UNL d   1     -40.998  15.922  18.079  0.00  0.00     0.035 A 
ATOM     24  C   UNL d   1     -41.353  15.179  17.970  0.00  0.00     0.007 A 
ATOM     25  C   UNL d   1     -40.978  14.657  18.486  0.00  0.00     0.007 A 
ENDBRANCH   2  21
TORSDOF 3
ENDMDL
