MODEL 1
REMARK VINA RESULT:      -6.9      0.000      0.000
REMARK  2 active torsions:
REMARK  status: ('A' for Active; 'I' for Inactive)
REMARK    1  A    between atoms: C_11  and  C_1 
REMARK    2  A    between atoms: C_13  and  C_11 
ROOT
ATOM      1  C   UNL d   1      56.523  -0.166  32.154  0.00  0.00     0.058 A 
ATOM      2  C   UNL d   1      55.618   0.101  33.126  0.00  0.00    -0.008 A 
ATOM      3  C   UNL d   1      55.544  -0.369  33.220  0.00  0.00    -0.008 A 
ATOM      4  C   UNL d   1      56.102  -1.349  32.646  0.00  0.00     0.045 A 
ATOM      5  C   UNL d   1      56.005  -0.053  32.711  0.00  0.00    -0.019 A 
ATOM      6  C   UNL d   1      56.104   0.463  32.588  0.00  0.00    -0.019 A 
ATOM      7  C   UNL d   1      56.583  -0.988  32.115  0.00  0.00     0.021 A 
ATOM      8  C   UNL d   1      55.060   0.262  33.724  0.00  0.00    -0.001 A 
ATOM      9  C   UNL d   1      55.598  -1.153  33.186  0.00  0.00    -0.022 A 
ATOM     10  C   UNL d   1      55.678  -0.740  33.086  0.00  0.00    -0.022 A 
ENDROOT
BRANCH   1  11
ATOM     11  C   UNL d   1      57.083  -0.135  31.547  0.00  0.00     0.004 C 
BRANCH  11  12
ATOM     12  C   UNL d   1      57.342   0.600  31.277  0.00  0.00     0.118 C 
ATOM     13  N   UNL d   1      57.884   0.641  30.649  0.00  0.00    -0.147 N 
ENDBRANCH  11  12
ENDBRANCH   1  11
TORSDOF 2
ENDMDL
MODEL 2
REMARK VINA RESULT:      -6.7      1.506      2.351
REMARK  2 active torsions:
REMARK  status: ('A' for Active; 'I' for Inactive)
REMARK    1  A    between atoms: C_11  and  C_1 
REMARK    2  A    between atoms: C_13  and  C_11 
ROOT
ATOM      1  C   UNL d   1      55.727  -0.007  33.100  0.00  0.00     0.058 A 
ATOM      2  C   UNL d   1      56.643   0.248  32.133  0.00  0.00    -0.008 A 
ATOM      3  C   UNL d   1      56.705  -0.222  32.034  0.00  0.00    -0.008 A 
ATOM      4  C   UNL d   1      56.120  -1.195  32.595  0.00  0.00     0.045 A 
ATOM      5  C   UNL d   1      56.250   0.099  32.545  0.00  0.00    -0.019 A 
ATOM      6  C   UNL d   1      56.163   0.616  32.674  0.00  0.00    -0.019 A 
ATOM      7  C   UNL d   1      55.646  -0.828  33.129  0.00  0.00     0.021 A 
ATOM      8  C   UNL d   1      57.206   0.402  31.539  0.00  0.00    -0.001 A 
ATOM      9  C   UNL d   1      56.631  -1.005  32.059  0.00  0.00    -0.022 A 
ATOM     10  C   UNL d   1      56.561  -0.592  32.163  0.00  0.00    -0.022 A 
ENDROOT
BRANCH   1  11
ATOM     11  C   UNL d   1      55.166   0.031  33.705  0.00  0.00     0.004 C 
BRANCH  11  12
ATOM     12  C   UNL d   1      55.182   0.669  34.227  0.00  0.00     0.118 C 
ATOM     13  N   UNL d   1      54.666   0.682  34.878  0.00  0.00    -0.147 N 
ENDBRANCH  11  12
ENDBRANCH   1  11
TORSDOF 2
ENDMDL
MODEL 3
REMARK VINA RESULT:      -5.3      1.457      2.518
REMARK  2 active torsions:
REMARK  status: ('A' for Active; 'I' for Inactive)
REMARK    1  A    between atoms: C_11  and  C_1 
REMARK    2  A    between atoms: C_13  and  C_11 
ROOT
ATOM      1  C   UNL d   1      56.119  -0.067  32.950  0.00  0.00     0.058 A 
ATOM      2  C   UNL d   1      56.638  -0.893  32.009  0.00  0.00    -0.008 A 
ATOM      3  C   UNL d   1      56.891  -0.536  31.800  0.00  0.00    -0.008 A 
ATOM      4  C   UNL d   1      56.919   0.678  32.159  0.00  0.00     0.045 A 
ATOM      5  C   UNL d   1      56.433  -0.505  32.401  0.00  0.00    -0.019 A 
ATOM      6  C   UNL d   1      56.144  -0.885  32.651  0.00  0.00    -0.019 A 
ATOM      7  C   UNL d   1      56.428   0.682  32.794  0.00  0.00     0.021 A 
ATOM      8  C   UNL d   1      56.959  -1.399  31.430  0.00  0.00    -0.001 A 
ATOM      9  C   UNL d   1      57.188   0.177  31.648  0.00  0.00    -0.022 A 
ATOM     10  C   UNL d   1      56.955  -0.127  31.850  0.00  0.00    -0.022 A 
ENDROOT
BRANCH   1  11
ATOM     11  C   UNL d   1      55.714   0.275  33.583  0.00  0.00     0.004 C 
BRANCH  11  12
ATOM     12  C   UNL d   1      54.890   0.286  33.574  0.00  0.00     0.118 C 
ATOM     13  N   UNL d   1      54.474   0.573  34.233  0.00  0.00    -0.147 N 
ENDBRANCH  11  12
ENDBRANCH   1  11
TORSDOF 2
ENDMDL
MODEL 4
REMARK VINA RESULT:      -4.2      8.478      9.208
REMARK  2 active torsions:
REMARK  status: ('A' for Active; 'I' for Inactive)
REMARK    1  A    between atoms: C_11  and  C_1 
REMARK    2  A    between atoms: C_13  and  C_11 
ROOT
ATOM      1  C   UNL d   1      60.364  -7.983  35.781  0.00  0.00     0.058 A 
ATOM      2  C   UNL d   1      60.605  -6.693  36.120  0.00  0.00    -0.008 A 
ATOM      3  C   UNL d   1      60.140  -6.608  36.225  0.00  0.00    -0.008 A 
ATOM      4  C   UNL d   1      59.186  -7.436  36.144  0.00  0.00     0.045 A 
ATOM      5  C   UNL d   1      60.463  -7.247  35.981  0.00  0.00    -0.019 A 
ATOM      6  C   UNL d   1      60.974  -7.366  35.859  0.00  0.00    -0.019 A 
ATOM      7  C   UNL d   1      59.554  -8.100  35.885  0.00  0.00     0.021 A 
ATOM      8  C   UNL d   1      60.751  -5.900  36.330  0.00  0.00    -0.001 A 
ATOM      9  C   UNL d   1      59.367  -6.716  36.326  0.00  0.00    -0.022 A 
ATOM     10  C   UNL d   1      59.777  -6.813  36.227  0.00  0.00    -0.022 A 
ENDROOT
BRANCH   1  11
ATOM     11  C   UNL d   1      60.408  -8.772  35.541  0.00  0.00     0.004 C 
BRANCH  11  12
ATOM     12  C   UNL d   1      60.999  -8.998  35.012  0.00  0.00     0.118 C 
ATOM     13  N   UNL d   1      61.110  -9.802  34.836  0.00  0.00    -0.147 N 
ENDBRANCH  11  12
ENDBRANCH   1  11
TORSDOF 2
ENDMDL
MODEL 5
REMARK VINA RESULT:      -4.0      1.352      2.346
REMARK  2 active torsions:
REMARK  status: ('A' for Active; 'I' for Inactive)
REMARK    1  A    between atoms: C_11  and  C_1 
REMARK    2  A    between atoms: C_13  and  C_11 
ROOT
ATOM      1  C   UNL d   1      57.750  -0.445  30.595  0.00  0.00     0.058 A 
ATOM      2  C   UNL d   1      56.908  -0.780  31.603  0.00  0.00    -0.008 A 
ATOM      3  C   UNL d   1      56.887  -0.326  31.770  0.00  0.00    -0.008 A 
ATOM      4  C   UNL d   1      57.485   0.681  31.289  0.00  0.00     0.045 A 
ATOM      5  C   UNL d   1      57.272  -0.598  31.179  0.00  0.00    -0.019 A 
ATOM      6  C   UNL d   1      57.311  -1.096  30.975  0.00  0.00    -0.019 A 
ATOM      7  C   UNL d   1      57.883   0.366  30.667  0.00  0.00     0.021 A 
ATOM      8  C   UNL d   1      56.391  -0.984  32.224  0.00  0.00    -0.001 A 
ATOM      9  C   UNL d   1      57.012   0.448  31.842  0.00  0.00    -0.022 A 
ATOM     10  C   UNL d   1      57.044   0.049  31.677  0.00  0.00    -0.022 A 
ENDROOT
BRANCH   1  11
ATOM     11  C   UNL d   1      58.250  -0.430  29.938  0.00  0.00     0.004 C 
BRANCH  11  12
ATOM     12  C   UNL d   1      58.717  -1.089  29.774  0.00  0.00     0.118 C 
ATOM     13  N   UNL d   1      59.192  -1.099  29.093  0.00  0.00    -0.147 N 
ENDBRANCH  11  12
ENDBRANCH   1  11
TORSDOF 2
ENDMDL
