MODEL 1
REMARK VINA RESULT:      -9.1      0.000      0.000
REMARK  6 active torsions:
REMARK  status: ('A' for Active; 'I' for Inactive)
REMARK    1  A    between atoms: C_9  and  C_3 
REMARK    2  A    between atoms: C_4  and  C_18 
REMARK       I    between atoms: N_7  and  C_4 
REMARK    3  A    between atoms: S_11  and  C_5 
REMARK       I    between atoms: C_6  and  N_8 
REMARK    4  A    between atoms: C_12  and  N_7 
REMARK    5  A    between atoms: N_8  and  C_13 
REMARK    6  A    between atoms: C_18  and  S_11 
ROOT
ATOM      1  C   UNL d   1      50.500  34.144  52.923  0.00  0.00     0.099 C 
ENDROOT
BRANCH   1   2
ATOM      2  C   UNL d   1      51.262  33.836  52.900  0.00  0.00     0.286 C 
ATOM      3  N   UNL d   1      51.506  33.292  53.470  0.00  0.00    -0.207 NA
ATOM      4  O   UNL d   1      51.786  34.071  52.307  0.00  0.00    -0.265 OA
BRANCH   3   5
ATOM      5  C   UNL d   1      52.273  32.983  53.447  0.00  0.00     0.086 A 
ATOM      6  C   UNL d   1      52.885  33.390  53.813  0.00  0.00     0.038 A 
ATOM      7  C   UNL d   1      53.651  33.081  53.790  0.00  0.00     0.086 A 
ATOM      8  C   UNL d   1      53.792  32.366  53.400  0.00  0.00     0.019 A 
ATOM      9  C   UNL d   1      53.166  31.968  53.037  0.00  0.00     0.003 A 
ATOM     10  C   UNL d   1      52.412  32.273  53.059  0.00  0.00     0.019 A 
BRANCH   7  11
ATOM     11  N   UNL d   1      54.271  33.485  54.155  0.00  0.00    -0.208 NA
ATOM     12  C   UNL d   1      54.491  33.298  54.924  0.00  0.00     0.279 C 
ATOM     13  O   UNL d   1      54.084  32.697  55.335  0.00  0.00    -0.265 OA
ATOM     14  C   UNL d   1      55.107  33.696  55.293  0.00  0.00     0.068 C 
ENDBRANCH   7  11
ENDBRANCH   3   5
ENDBRANCH   1   2
BRANCH   1  15
ATOM     15  S   UNL d   1      50.169  34.456  52.239  0.00  0.00    -0.061 SA
BRANCH  15  16
ATOM     16  C   UNL d   1      49.433  34.828  52.265  0.00  0.00     0.133 A 
ATOM     17  N   UNL d   1      49.184  35.215  52.943  0.00  0.00    -0.141 NA
ATOM     18  N   UNL d   1      48.449  35.587  52.968  0.00  0.00    -0.148 NA
ATOM     19  C   UNL d   1      47.952  35.571  52.304  0.00  0.00     0.104 A 
ATOM     20  C   UNL d   1      48.200  35.181  51.618  0.00  0.00     0.023 A 
ATOM     21  C   UNL d   1      48.935  34.811  51.596  0.00  0.00     0.029 A 
BRANCH  19  22
ATOM     22  C   UNL d   1      47.216  35.943  52.329  0.00  0.00     0.039 A 
ATOM     23  C   UNL d   1      46.729  35.918  51.678  0.00  0.00     0.101 A 
ATOM     24  N   UNL d   1      45.998  36.285  51.699  0.00  0.00    -0.242 NA
ATOM     25  C   UNL d   1      45.756  36.685  52.387  0.00  0.00     0.099 A 
ATOM     26  C   UNL d   1      46.249  36.708  53.039  0.00  0.00     0.021 A 
ATOM     27  C   UNL d   1      46.987  36.339  53.023  0.00  0.00     0.005 A 
ENDBRANCH  19  22
ENDBRANCH  15  16
ENDBRANCH   1  15
TORSDOF 6
ENDMDL
MODEL 2
REMARK VINA RESULT:      -8.7      1.668      6.682
REMARK  6 active torsions:
REMARK  status: ('A' for Active; 'I' for Inactive)
REMARK    1  A    between atoms: C_9  and  C_3 
REMARK    2  A    between atoms: C_4  and  C_18 
REMARK       I    between atoms: N_7  and  C_4 
REMARK    3  A    between atoms: S_11  and  C_5 
REMARK       I    between atoms: C_6  and  N_8 
REMARK    4  A    between atoms: C_12  and  N_7 
REMARK    5  A    between atoms: N_8  and  C_13 
REMARK    6  A    between atoms: C_18  and  S_11 
ROOT
ATOM      1  C   UNL d   1      49.696  34.916  53.062  0.00  0.00     0.099 C 
ENDROOT
BRANCH   1   2
ATOM      2  C   UNL d   1      48.963  35.152  52.774  0.00  0.00     0.286 C 
ATOM      3  N   UNL d   1      48.517  35.711  53.186  0.00  0.00    -0.207 NA
ATOM      4  O   UNL d   1      48.671  34.830  52.073  0.00  0.00    -0.265 OA
BRANCH   3   5
ATOM      5  C   UNL d   1      47.779  35.948  52.897  0.00  0.00     0.086 A 
ATOM      6  C   UNL d   1      47.100  35.761  53.318  0.00  0.00     0.038 A 
ATOM      7  C   UNL d   1      46.363  35.998  53.028  0.00  0.00     0.086 A 
ATOM      8  C   UNL d   1      46.318  36.420  52.319  0.00  0.00     0.019 A 
ATOM      9  C   UNL d   1      47.010  36.601  51.907  0.00  0.00     0.003 A 
ATOM     10  C   UNL d   1      47.736  36.367  52.192  0.00  0.00     0.019 A 
BRANCH   7  11
ATOM     11  N   UNL d   1      45.675  35.814  53.446  0.00  0.00    -0.208 NA
ATOM     12  C   UNL d   1      45.156  35.246  53.160  0.00  0.00     0.279 C 
ATOM     13  O   UNL d   1      45.327  34.856  52.442  0.00  0.00    -0.265 OA
ATOM     14  C   UNL d   1      44.470  35.058  53.570  0.00  0.00     0.068 C 
ENDBRANCH   7  11
ENDBRANCH   3   5
ENDBRANCH   1   2
BRANCH   1  15
ATOM     15  S   UNL d   1      50.156  34.399  52.622  0.00  0.00    -0.061 SA
BRANCH  15  16
ATOM     16  C   UNL d   1      50.884  34.138  52.911  0.00  0.00     0.133 A 
ATOM     17  N   UNL d   1      50.935  33.448  53.350  0.00  0.00    -0.141 NA
ATOM     18  N   UNL d   1      51.662  33.188  53.639  0.00  0.00    -0.148 NA
ATOM     19  C   UNL d   1      52.350  33.624  53.487  0.00  0.00     0.104 A 
ATOM     20  C   UNL d   1      52.302  34.321  53.044  0.00  0.00     0.023 A 
ATOM     21  C   UNL d   1      51.575  34.578  52.757  0.00  0.00     0.029 A 
BRANCH  19  22
ATOM     22  C   UNL d   1      53.078  33.364  53.776  0.00  0.00     0.039 A 
ATOM     23  C   UNL d   1      53.527  32.850  53.333  0.00  0.00     0.101 A 
ATOM     24  N   UNL d   1      54.249  32.589  53.616  0.00  0.00    -0.242 NA
ATOM     25  C   UNL d   1      54.522  32.850  54.357  0.00  0.00     0.099 A 
ATOM     26  C   UNL d   1      54.067  33.367  54.799  0.00  0.00     0.021 A 
ATOM     27  C   UNL d   1      53.337  33.633  54.518  0.00  0.00     0.005 A 
ENDBRANCH  19  22
ENDBRANCH  15  16
ENDBRANCH   1  15
TORSDOF 6
ENDMDL
