MODEL 1
REMARK VINA RESULT:      14.8      0.000      0.000
REMARK  5 active torsions:
REMARK  status: ('A' for Active; 'I' for Inactive)
REMARK    1  A    between atoms: N_8  and  C_1 
REMARK    2  A    between atoms: C_11  and  C_2 
REMARK    3  A    between atoms: C_4  and  C_6 
REMARK       I    between atoms: C_6  and  N_8 
REMARK    4  A    between atoms: O_17  and  C_11 
REMARK    5  A    between atoms: C_19  and  O_17 
ROOT
ATOM      1  C   UNL d   1      45.839 -14.169  44.781  0.00  0.00     0.114 A 
ATOM      2  C   UNL d   1      45.530 -15.388  44.360  0.00  0.00     0.094 A 
ATOM      3  S   UNL d   1      46.123 -14.848  44.414  0.00  0.00    -0.062 SA
ATOM      4  C   UNL d   1      44.859 -15.023  44.710  0.00  0.00     0.013 A 
ATOM      5  C   UNL d   1      45.055 -14.307  44.953  0.00  0.00     0.027 A 
ATOM      6  C   UNL d   1      44.111 -15.362  44.786  0.00  0.00     0.001 C 
ENDROOT
BRANCH   1   7
ATOM      7  N   UNL d   1      46.273 -13.452  44.954  0.00  0.00    -0.201 NA
ATOM      8  C   UNL d   1      46.109 -12.770  44.535  0.00  0.00     0.286 C 
ATOM      9  O   UNL d   1      46.532 -12.081  44.709  0.00  0.00    -0.265 OA
BRANCH   8  10
ATOM     10  C   UNL d   1      45.530 -12.775  43.950  0.00  0.00     0.088 A 
ATOM     11  S   UNL d   1      45.625 -12.511  43.187  0.00  0.00    -0.071 SA
ATOM     12  C   UNL d   1      44.916 -12.615  42.790  0.00  0.00     0.087 A 
ATOM     13 CL   UNL d   1      44.802 -12.415  42.019  0.00  0.00    -0.075 Cl
ATOM     14  C   UNL d   1      44.370 -12.955  43.339  0.00  0.00     0.019 A 
ATOM     15  C   UNL d   1      44.751 -13.048  44.038  0.00  0.00     0.013 A 
ENDBRANCH   8  10
ENDBRANCH   1   7
BRANCH   2  16
ATOM     16  C   UNL d   1      45.569 -16.150  44.030  0.00  0.00     0.306 C 
ATOM     17  O   UNL d   1      45.314 -16.250  43.263  0.00  0.00    -0.258 OA
BRANCH  16  18
ATOM     18  O   UNL d   1      45.851 -16.787  44.452  0.00  0.00    -0.271 OA
BRANCH  18  19
ATOM     19  C   UNL d   1      46.173 -17.434  44.065  0.00  0.00     0.126 C 
ATOM     20  C   UNL d   1      46.082 -18.182  44.398  0.00  0.00     0.029 C 
ENDBRANCH  18  19
ENDBRANCH  16  18
ENDBRANCH   2  16
TORSDOF 5
ENDMDL
