MODEL 1
REMARK VINA RESULT:      -1.1      0.000      0.000
REMARK  5 active torsions:
REMARK  status: ('A' for Active; 'I' for Inactive)
REMARK    1  A    between atoms: C_11  and  C_3 
REMARK    2  A    between atoms: C_14  and  C_7 
REMARK    3  A    between atoms: O_18  and  C_11 
REMARK    4  A    between atoms: C_16  and  C_20 
REMARK    5  A    between atoms: C_20  and  O_18 
ROOT
ATOM      1  C   UNL d   1      29.484  17.204 -24.175  0.00  0.00     0.172 A 
ATOM      2  C   UNL d   1      30.073  16.726 -23.860  0.00  0.00     0.094 A 
ATOM      3  C   UNL d   1      31.074  17.609 -24.348  0.00  0.00     0.081 A 
ATOM      4  C   UNL d   1      29.861  16.035 -23.452  0.00  0.00     0.286 A 
ATOM      5  N   UNL d   1      28.694  17.004 -24.090  0.00  0.00    -0.172 NA
ATOM      6  N   UNL d   1      29.068  15.839 -23.370  0.00  0.00    -0.152 NA
ATOM      7  C   UNL d   1      30.866  16.927 -23.945  0.00  0.00     0.014 A 
ATOM      8  C   UNL d   1      30.486  18.098 -24.670  0.00  0.00     0.088 A 
ATOM      9  N   UNL d   1      29.687  17.890 -24.581  0.00  0.00    -0.226 NA
ATOM     10  C   UNL d   1      28.486  16.322 -23.688  0.00  0.00     0.373 A 
ATOM     11  O   UNL d   1      30.449  15.547 -23.131  0.00  0.00    -0.265 OA
ATOM     12  O   UNL d   1      27.687  16.125 -23.605  0.00  0.00    -0.242 OA
ATOM     13  C   UNL d   1      30.691  18.783 -25.074  0.00  0.00     0.021 C 
ENDROOT
BRANCH   3  14
ATOM     14  C   UNL d   1      31.864  17.818 -24.438  0.00  0.00     0.302 C 
ATOM     15  O   UNL d   1      32.289  17.542 -25.095  0.00  0.00    -0.259 OA
BRANCH  14  16
ATOM     16  O   UNL d   1      32.236  18.299 -23.881  0.00  0.00    -0.271 OA
BRANCH  16  17
ATOM     17  C   UNL d   1      32.770  18.881 -24.125  0.00  0.00     0.126 C 
BRANCH  17  18
ATOM     18  C   UNL d   1      33.081  19.412 -23.574  0.00  0.00     0.027 C 
ATOM     19  C   UNL d   1      33.206  20.199 -23.780  0.00  0.00     0.002 C 
ENDBRANCH  17  18
ENDBRANCH  16  17
ENDBRANCH  14  16
ENDBRANCH   3  14
BRANCH   7  20
ATOM     20  C   UNL d   1      31.451  16.441 -23.625  0.00  0.00     0.001 A 
ATOM     21  C   UNL d   1      31.602  16.461 -22.814  0.00  0.00     0.000 A 
ATOM     22  C   UNL d   1      32.189  15.973 -22.488  0.00  0.00     0.000 A 
ATOM     23  C   UNL d   1      32.620  15.472 -22.978  0.00  0.00     0.000 A 
ATOM     24  C   UNL d   1      32.469  15.453 -23.790  0.00  0.00     0.000 A 
ATOM     25  C   UNL d   1      31.880  15.941 -24.112  0.00  0.00     0.000 A 
ENDBRANCH   7  20
TORSDOF 5
ENDMDL
