MODEL 1
REMARK VINA RESULT:     -11.0      0.000      0.000
REMARK  4 active torsions:
REMARK  status: ('A' for Active; 'I' for Inactive)
REMARK       I    between atoms: C_2  and  N_1 
REMARK    1  A    between atoms: C_6  and  C_2 
REMARK       I    between atoms: C_4  and  N_7 
REMARK    2  A    between atoms: C_5  and  C_4 
REMARK       I    between atoms: N_10  and  C_5 
REMARK    3  A    between atoms: N_7  and  C_13 
REMARK    4  A    between atoms: C_19  and  N_10 
ROOT
ATOM      1  N   UNL d   1      53.326  32.295  53.728  0.00  0.00    -0.273 N 
ATOM      2  C   UNL d   1      53.008  31.685  53.255  0.00  0.00     0.265 C 
ATOM      3  C   UNL d   1      53.050  33.064  53.660  0.00  0.00     0.068 A 
ATOM      4  C   UNL d   1      52.451  33.242  53.120  0.00  0.00     0.037 A 
ATOM      5  C   UNL d   1      53.368  33.661  54.129  0.00  0.00     0.016 A 
ATOM      6  C   UNL d   1      52.173  34.016  53.052  0.00  0.00     0.086 A 
ATOM      7  O   UNL d   1      52.412  31.862  52.718  0.00  0.00    -0.267 OA
ATOM      8  C   UNL d   1      53.090  34.434  54.061  0.00  0.00     0.003 A 
ATOM      9  C   UNL d   1      53.923  32.117  54.265  0.00  0.00     0.083 A 
ATOM     10  C   UNL d   1      52.494  34.612  53.524  0.00  0.00     0.019 A 
ATOM     11  C   UNL d   1      54.243  32.714  54.737  0.00  0.00     0.019 A 
ATOM     12  C   UNL d   1      53.967  33.483  54.669  0.00  0.00     0.003 A 
ENDROOT
BRANCH   6  13
ATOM     13  N   UNL d   1      51.571  34.191  52.509  0.00  0.00    -0.204 NA
ATOM     14  C   UNL d   1      50.803  34.326  52.778  0.00  0.00     0.337 C 
ATOM     15  O   UNL d   1      50.635  34.287  53.585  0.00  0.00    -0.260 OA
BRANCH  14  16
ATOM     16  C   UNL d   1      50.203  34.500  52.243  0.00  0.00     0.337 C 
ATOM     17  N   UNL d   1      49.448  34.688  52.515  0.00  0.00    -0.204 NA
ATOM     18  O   UNL d   1      50.359  34.487  51.432  0.00  0.00    -0.260 OA
BRANCH  17  19
ATOM     19  C   UNL d   1      48.848  34.863  51.976  0.00  0.00     0.085 A 
ATOM     20  C   UNL d   1      48.792  34.439  51.279  0.00  0.00     0.019 A 
ATOM     21  C   UNL d   1      48.187  34.612  50.732  0.00  0.00     0.002 A 
ATOM     22  C   UNL d   1      47.647  35.212  50.898  0.00  0.00     0.000 A 
ATOM     23  C   UNL d   1      47.710  35.640  51.611  0.00  0.00     0.002 A 
ATOM     24  C   UNL d   1      48.307  35.463  52.142  0.00  0.00     0.019 A 
ENDBRANCH  17  19
ENDBRANCH  14  16
ENDBRANCH   6  13
BRANCH   2  25
ATOM     25  C   UNL d   1      53.288  30.912  53.326  0.00  0.00     0.057 A 
ATOM     26  C   UNL d   1      53.566  30.139  53.395  0.00  0.00     0.005 A 
ATOM     27  C   UNL d   1      52.894  30.296  52.943  0.00  0.00     0.005 A 
ENDBRANCH   2  25
TORSDOF 4
ENDMDL
MODEL 2
REMARK VINA RESULT:      -9.9      1.366      5.728
REMARK  4 active torsions:
REMARK  status: ('A' for Active; 'I' for Inactive)
REMARK       I    between atoms: C_2  and  N_1 
REMARK    1  A    between atoms: C_6  and  C_2 
REMARK       I    between atoms: C_4  and  N_7 
REMARK    2  A    between atoms: C_5  and  C_4 
REMARK       I    between atoms: N_10  and  C_5 
REMARK    3  A    between atoms: N_7  and  C_13 
REMARK    4  A    between atoms: C_19  and  N_10 
ROOT
ATOM      1  N   UNL d   1      48.226  35.494  52.533  0.00  0.00    -0.273 N 
ATOM      2  C   UNL d   1      48.257  35.812  53.305  0.00  0.00     0.265 C 
ATOM      3  C   UNL d   1      48.849  35.048  52.240  0.00  0.00     0.068 A 
ATOM      4  C   UNL d   1      49.514  34.909  52.709  0.00  0.00     0.037 A 
ATOM      5  C   UNL d   1      48.812  34.738  51.480  0.00  0.00     0.016 A 
ATOM      6  C   UNL d   1      50.140  34.461  52.414  0.00  0.00     0.086 A 
ATOM      7  O   UNL d   1      48.919  35.674  53.771  0.00  0.00    -0.267 OA
ATOM      8  C   UNL d   1      49.439  34.289  51.185  0.00  0.00     0.003 A 
ATOM      9  C   UNL d   1      47.563  35.633  52.068  0.00  0.00     0.083 A 
ATOM     10  C   UNL d   1      50.101  34.150  51.651  0.00  0.00     0.019 A 
ATOM     11  C   UNL d   1      47.524  35.322  51.304  0.00  0.00     0.019 A 
ATOM     12  C   UNL d   1      48.147  34.876  51.011  0.00  0.00     0.003 A 
ENDROOT
BRANCH   6  13
ATOM     13  N   UNL d   1      50.807  34.323  52.887  0.00  0.00    -0.204 NA
ATOM     14  C   UNL d   1      51.558  34.320  52.546  0.00  0.00     0.337 C 
ATOM     15  O   UNL d   1      51.644  34.454  51.736  0.00  0.00    -0.260 OA
BRANCH  14  16
ATOM     16  C   UNL d   1      52.223  34.184  53.011  0.00  0.00     0.337 C 
ATOM     17  N   UNL d   1      52.441  33.413  53.206  0.00  0.00    -0.204 NA
ATOM     18  O   UNL d   1      52.671  34.822  53.283  0.00  0.00    -0.260 OA
BRANCH  17  19
ATOM     19  C   UNL d   1      53.108  33.279  53.673  0.00  0.00     0.085 A 
ATOM     20  C   UNL d   1      53.064  33.382  54.483  0.00  0.00     0.019 A 
ATOM     21  C   UNL d   1      53.735  33.248  54.958  0.00  0.00     0.002 A 
ATOM     22  C   UNL d   1      54.443  33.012  54.607  0.00  0.00     0.000 A 
ATOM     23  C   UNL d   1      54.480  32.910  53.780  0.00  0.00     0.002 A 
ATOM     24  C   UNL d   1      53.816  33.043  53.322  0.00  0.00     0.019 A 
ENDBRANCH  17  19
ENDBRANCH  14  16
ENDBRANCH   6  13
BRANCH   2  25
ATOM     25  C   UNL d   1      47.628  36.261  53.597  0.00  0.00     0.057 A 
ATOM     26  C   UNL d   1      47.002  36.709  53.892  0.00  0.00     0.005 A 
ATOM     27  C   UNL d   1      47.647  36.534  54.376  0.00  0.00     0.005 A 
ENDBRANCH   2  25
TORSDOF 4
ENDMDL
MODEL 3
REMARK VINA RESULT:      -9.9      1.042      2.185
REMARK  4 active torsions:
REMARK  status: ('A' for Active; 'I' for Inactive)
REMARK       I    between atoms: C_2  and  N_1 
REMARK    1  A    between atoms: C_6  and  C_2 
REMARK       I    between atoms: C_4  and  N_7 
REMARK    2  A    between atoms: C_5  and  C_4 
REMARK       I    between atoms: N_10  and  C_5 
REMARK    3  A    between atoms: N_7  and  C_13 
REMARK    4  A    between atoms: C_19  and  N_10 
ROOT
ATOM      1  N   UNL d   1      53.542  32.838  53.991  0.00  0.00    -0.273 N 
ATOM      2  C   UNL d   1      53.691  33.512  54.462  0.00  0.00     0.265 C 
ATOM      3  C   UNL d   1      52.818  32.739  53.619  0.00  0.00     0.068 A 
ATOM      4  C   UNL d   1      52.227  33.310  53.708  0.00  0.00     0.037 A 
ATOM      5  C   UNL d   1      52.678  32.074  53.157  0.00  0.00     0.016 A 
ATOM      6  C   UNL d   1      51.498  33.211  53.333  0.00  0.00     0.086 A 
ATOM      7  O   UNL d   1      53.102  34.079  54.550  0.00  0.00    -0.267 OA
ATOM      8  C   UNL d   1      51.949  31.975  52.783  0.00  0.00     0.003 A 
ATOM      9  C   UNL d   1      54.131  32.271  53.904  0.00  0.00     0.083 A 
ATOM     10  C   UNL d   1      51.361  32.542  52.870  0.00  0.00     0.019 A 
ATOM     11  C   UNL d   1      53.992  31.602  53.440  0.00  0.00     0.019 A 
ATOM     12  C   UNL d   1      53.268  31.504  53.068  0.00  0.00     0.003 A 
ENDROOT
BRANCH   6  13
ATOM     13  N   UNL d   1      50.907  33.784  53.424  0.00  0.00    -0.204 NA
ATOM     14  C   UNL d   1      50.644  34.209  52.768  0.00  0.00     0.337 C 
ATOM     15  O   UNL d   1      50.969  34.062  52.023  0.00  0.00    -0.260 OA
BRANCH  14  16
ATOM     16  C   UNL d   1      50.058  34.779  52.853  0.00  0.00     0.337 C 
ATOM     17  N   UNL d   1      49.309  34.656  52.528  0.00  0.00    -0.204 NA
ATOM     18  O   UNL d   1      50.219  35.477  53.264  0.00  0.00    -0.260 OA
BRANCH  17  19
ATOM     19  C   UNL d   1      48.723  35.230  52.616  0.00  0.00     0.085 A 
ATOM     20  C   UNL d   1      48.565  35.540  53.355  0.00  0.00     0.019 A 
ATOM     21  C   UNL d   1      47.973  36.119  53.447  0.00  0.00     0.002 A 
ATOM     22  C   UNL d   1      47.549  36.378  52.789  0.00  0.00     0.000 A 
ATOM     23  C   UNL d   1      47.716  36.057  52.038  0.00  0.00     0.002 A 
ATOM     24  C   UNL d   1      48.298  35.488  51.957  0.00  0.00     0.019 A 
ENDBRANCH  17  19
ENDBRANCH  14  16
ENDBRANCH   6  13
BRANCH   2  25
ATOM     25  C   UNL d   1      54.420  33.607  54.835  0.00  0.00     0.057 A 
ATOM     26  C   UNL d   1      55.149  33.706  55.209  0.00  0.00     0.005 A 
ATOM     27  C   UNL d   1      54.575  34.297  55.262  0.00  0.00     0.005 A 
ENDBRANCH   2  25
TORSDOF 4
ENDMDL
