MODEL 1
REMARK VINA RESULT:      -6.7      0.000      0.000
REMARK  4 active torsions:
REMARK  status: ('A' for Active; 'I' for Inactive)
REMARK    1  A    between atoms: C_10  and  C_2 
REMARK    2  A    between atoms: C_9  and  C_4 
REMARK    3  A    between atoms: C_8  and  N_6 
REMARK    4  A    between atoms: N_7  and  C_9 
ROOT
ATOM      1  N   UNL d   1     -45.760  12.372  23.043  0.00  0.00    -0.301 N 
ATOM      2  N   UNL d   1     -46.556  13.787  22.763  0.00  0.00    -0.297 N 
ATOM      3  C   UNL d   1     -46.218  12.715  23.638  0.00  0.00     0.100 A 
ATOM      4  C   UNL d   1     -45.701  12.736  22.309  0.00  0.00     0.100 A 
ATOM      5  C   UNL d   1     -46.616  13.423  23.498  0.00  0.00     0.100 A 
ATOM      6  C   UNL d   1     -46.099  13.446  22.166  0.00  0.00     0.100 A 
ENDROOT
BRANCH   2   7
ATOM      7  C   UNL d   1     -46.952  14.494  22.618  0.00  0.00     0.127 C 
BRANCH   7   8
ATOM      8  C   UNL d   1     -47.774  14.504  22.615  0.00  0.00     0.222 A 
ATOM      9  N   UNL d   1     -48.268  14.972  23.091  0.00  0.00    -0.119 NA
ATOM     10  N   UNL d   1     -49.051  14.798  22.899  0.00  0.00    -0.121 NA
ATOM     11  C   UNL d   1     -49.045  14.222  22.304  0.00  0.00     0.204 A 
ATOM     12  O   UNL d   1     -48.258  14.039  22.128  0.00  0.00    -0.267 OA
BRANCH  11  13
ATOM     13  C   UNL d   1     -49.714  13.890  21.951  0.00  0.00     0.043 A 
ATOM     14  C   UNL d   1     -49.695  13.113  21.681  0.00  0.00     0.004 A 
ATOM     15  C   UNL d   1     -50.364  12.781  21.328  0.00  0.00     0.000 A 
ATOM     16  C   UNL d   1     -51.050  13.229  21.246  0.00  0.00     0.000 A 
ATOM     17  C   UNL d   1     -51.064  14.018  21.521  0.00  0.00     0.000 A 
ATOM     18  C   UNL d   1     -50.393  14.338  21.871  0.00  0.00     0.004 A 
ENDBRANCH  11  13
ENDBRANCH   7   8
ENDBRANCH   2   7
BRANCH   1  19
ATOM     19  C   UNL d   1     -45.362  11.665  23.183  0.00  0.00     0.064 A 
ATOM     20  C   UNL d   1     -44.576  11.580  22.946  0.00  0.00     0.020 A 
ATOM     21  C   UNL d   1     -44.179  10.869  23.087  0.00  0.00     0.031 A 
ATOM     22  C   UNL d   1     -44.565  10.242  23.465  0.00  0.00     0.140 A 
ATOM     23  C   UNL d   1     -45.352  10.338  23.698  0.00  0.00     0.031 A 
ATOM     24  F   UNL d   1     -44.207   9.518  23.625  0.00  0.00    -0.204 F 
ATOM     25  C   UNL d   1     -45.750  11.046  23.558  0.00  0.00     0.020 A 
ENDBRANCH   1  19
TORSDOF 4
ENDMDL
MODEL 2
REMARK VINA RESULT:      -6.6      8.428      9.925
REMARK  4 active torsions:
REMARK  status: ('A' for Active; 'I' for Inactive)
REMARK    1  A    between atoms: C_10  and  C_2 
REMARK    2  A    between atoms: C_9  and  C_4 
REMARK    3  A    between atoms: C_8  and  N_6 
REMARK    4  A    between atoms: N_7  and  C_9 
ROOT
ATOM      1  N   UNL d   1     -39.064  14.947  17.626  0.00  0.00    -0.301 N 
ATOM      2  N   UNL d   1     -39.624  15.574  19.043  0.00  0.00    -0.297 N 
ATOM      3  C   UNL d   1     -39.857  14.855  17.836  0.00  0.00     0.100 A 
ATOM      4  C   UNL d   1     -38.552  15.351  18.124  0.00  0.00     0.100 A 
ATOM      5  C   UNL d   1     -40.137  15.169  18.545  0.00  0.00     0.100 A 
ATOM      6  C   UNL d   1     -38.830  15.667  18.835  0.00  0.00     0.100 A 
ENDROOT
BRANCH   2   7
ATOM      7  C   UNL d   1     -39.898  15.890  19.752  0.00  0.00     0.127 C 
BRANCH   7   8
ATOM      8  C   UNL d   1     -39.964  15.404  20.412  0.00  0.00     0.222 A 
ATOM      9  N   UNL d   1     -40.640  14.991  20.661  0.00  0.00    -0.119 NA
ATOM     10  N   UNL d   1     -40.450  14.576  21.348  0.00  0.00    -0.121 NA
ATOM     11  C   UNL d   1     -39.656  14.731  21.527  0.00  0.00     0.204 A 
ATOM     12  O   UNL d   1     -39.354  15.241  20.951  0.00  0.00    -0.267 OA
BRANCH  11  13
ATOM     13  C   UNL d   1     -39.241  14.424  22.173  0.00  0.00     0.043 A 
ATOM     14  C   UNL d   1     -38.983  14.924  22.772  0.00  0.00     0.004 A 
ATOM     15  C   UNL d   1     -38.569  14.618  23.417  0.00  0.00     0.000 A 
ATOM     16  C   UNL d   1     -38.414  13.810  23.460  0.00  0.00     0.000 A 
ATOM     17  C   UNL d   1     -38.679  13.306  22.849  0.00  0.00     0.000 A 
ATOM     18  C   UNL d   1     -39.090  13.621  22.211  0.00  0.00     0.004 A 
ENDBRANCH  11  13
ENDBRANCH   7   8
ENDBRANCH   2   7
BRANCH   1  19
ATOM     19  C   UNL d   1     -38.784  14.633  16.918  0.00  0.00     0.064 A 
ATOM     20  C   UNL d   1     -38.681  15.123  16.262  0.00  0.00     0.020 A 
ATOM     21  C   UNL d   1     -38.400  14.806  15.552  0.00  0.00     0.031 A 
ATOM     22  C   UNL d   1     -38.222  13.999  15.496  0.00  0.00     0.140 A 
ATOM     23  C   UNL d   1     -38.329  13.519  16.159  0.00  0.00     0.031 A 
ATOM     24  F   UNL d   1     -37.940  13.643  14.809  0.00  0.00    -0.204 F 
ATOM     25  C   UNL d   1     -38.609  13.832  16.868  0.00  0.00     0.020 A 
ENDBRANCH   1  19
TORSDOF 4
ENDMDL
MODEL 3
REMARK VINA RESULT:      -6.5      1.766      2.279
REMARK  4 active torsions:
REMARK  status: ('A' for Active; 'I' for Inactive)
REMARK    1  A    between atoms: C_10  and  C_2 
REMARK    2  A    between atoms: C_9  and  C_4 
REMARK    3  A    between atoms: C_8  and  N_6 
REMARK    4  A    between atoms: N_7  and  C_9 
ROOT
ATOM      1  N   UNL d   1     -45.211  12.500  22.545  0.00  0.00    -0.301 N 
ATOM      2  N   UNL d   1     -46.648  12.262  23.314  0.00  0.00    -0.297 N 
ATOM      3  C   UNL d   1     -45.383  11.769  22.886  0.00  0.00     0.100 A 
ATOM      4  C   UNL d   1     -45.757  13.112  22.589  0.00  0.00     0.100 A 
ATOM      5  C   UNL d   1     -46.102  11.649  23.270  0.00  0.00     0.100 A 
ATOM      6  C   UNL d   1     -46.479  12.995  22.974  0.00  0.00     0.100 A 
ENDROOT
BRANCH   2   7
ATOM      7  C   UNL d   1     -47.368  12.148  23.697  0.00  0.00     0.127 C 
BRANCH   7   8
ATOM      8  C   UNL d   1     -48.053  12.055  23.251  0.00  0.00     0.222 A 
ATOM      9  N   UNL d   1     -48.366  11.343  22.962  0.00  0.00    -0.119 NA
ATOM     10  N   UNL d   1     -49.057  11.515  22.546  0.00  0.00    -0.121 NA
ATOM     11  C   UNL d   1     -49.174  12.334  22.576  0.00  0.00     0.204 A 
ATOM     12  O   UNL d   1     -48.556  12.669  23.011  0.00  0.00    -0.267 OA
BRANCH  11  13
ATOM     13  C   UNL d   1     -49.804  12.742  22.229  0.00  0.00     0.043 A 
ATOM     14  C   UNL d   1     -49.808  12.881  21.419  0.00  0.00     0.004 A 
ATOM     15  C   UNL d   1     -50.437  13.289  21.072  0.00  0.00     0.000 A 
ATOM     16  C   UNL d   1     -51.061  13.555  21.538  0.00  0.00     0.000 A 
ATOM     17  C   UNL d   1     -51.053  13.411  22.361  0.00  0.00     0.000 A 
ATOM     18  C   UNL d   1     -50.422  13.005  22.697  0.00  0.00     0.004 A 
ENDBRANCH  11  13
ENDBRANCH   7   8
ENDBRANCH   2   7
BRANCH   1  19
ATOM     19  C   UNL d   1     -44.492  12.620  22.161  0.00  0.00     0.064 A 
ATOM     20  C   UNL d   1     -44.388  13.280  21.676  0.00  0.00     0.020 A 
ATOM     21  C   UNL d   1     -43.666  13.397  21.292  0.00  0.00     0.031 A 
ATOM     22  C   UNL d   1     -43.046  12.856  21.390  0.00  0.00     0.140 A 
ATOM     23  C   UNL d   1     -43.162  12.200  21.878  0.00  0.00     0.031 A 
ATOM     24  F   UNL d   1     -42.312  12.936  21.026  0.00  0.00    -0.204 F 
ATOM     25  C   UNL d   1     -43.881  12.081  22.262  0.00  0.00     0.020 A 
ENDBRANCH   1  19
TORSDOF 4
ENDMDL
MODEL 4
REMARK VINA RESULT:      -6.3      2.091      5.107
REMARK  4 active torsions:
REMARK  status: ('A' for Active; 'I' for Inactive)
REMARK    1  A    between atoms: C_10  and  C_2 
REMARK    2  A    between atoms: C_9  and  C_4 
REMARK    3  A    between atoms: C_8  and  N_6 
REMARK    4  A    between atoms: N_7  and  C_9 
ROOT
ATOM      1  N   UNL d   1     -47.944  12.904  22.756  0.00  0.00    -0.301 N 
ATOM      2  N   UNL d   1     -46.407  13.306  22.324  0.00  0.00    -0.297 N 
ATOM      3  C   UNL d   1     -47.443  13.268  23.300  0.00  0.00     0.100 A 
ATOM      4  C   UNL d   1     -47.678  12.740  21.996  0.00  0.00     0.100 A 
ATOM      5  C   UNL d   1     -46.674  13.469  23.084  0.00  0.00     0.100 A 
ATOM      6  C   UNL d   1     -46.907  12.941  21.777  0.00  0.00     0.100 A 
ENDROOT
BRANCH   2   7
ATOM      7  C   UNL d   1     -45.639  13.505  22.103  0.00  0.00     0.127 C 
BRANCH   7   8
ATOM      8  C   UNL d   1     -45.035  12.956  22.200  0.00  0.00     0.222 A 
ATOM      9  N   UNL d   1     -44.275  12.988  21.869  0.00  0.00    -0.119 NA
ATOM     10  N   UNL d   1     -43.858  12.321  22.117  0.00  0.00    -0.121 NA
ATOM     11  C   UNL d   1     -44.358  11.874  22.601  0.00  0.00     0.204 A 
ATOM     12  O   UNL d   1     -45.085  12.263  22.654  0.00  0.00    -0.267 OA
BRANCH  11  13
ATOM     13  C   UNL d   1     -44.159  11.159  22.967  0.00  0.00     0.043 A 
ATOM     14  C   UNL d   1     -43.379  10.899  22.966  0.00  0.00     0.004 A 
ATOM     15  C   UNL d   1     -43.180  10.186  23.331  0.00  0.00     0.000 A 
ATOM     16  C   UNL d   1     -43.764   9.735  23.697  0.00  0.00     0.000 A 
ATOM     17  C   UNL d   1     -44.555  10.004  23.696  0.00  0.00     0.000 A 
ATOM     18  C   UNL d   1     -44.742  10.715  23.330  0.00  0.00     0.004 A 
ENDBRANCH  11  13
ENDBRANCH   7   8
ENDBRANCH   2   7
BRANCH   1  19
ATOM     19  C   UNL d   1     -48.714  12.702  22.971  0.00  0.00     0.064 A 
ATOM     20  C   UNL d   1     -48.895  11.923  23.173  0.00  0.00     0.020 A 
ATOM     21  C   UNL d   1     -49.667  11.723  23.389  0.00  0.00     0.031 A 
ATOM     22  C   UNL d   1     -50.260  12.302  23.404  0.00  0.00     0.140 A 
ATOM     23  C   UNL d   1     -50.067  13.078  23.201  0.00  0.00     0.031 A 
ATOM     24  F   UNL d   1     -51.041  12.146  23.613  0.00  0.00    -0.204 F 
ATOM     25  C   UNL d   1     -49.298  13.280  22.985  0.00  0.00     0.020 A 
ENDBRANCH   1  19
TORSDOF 4
ENDMDL
MODEL 5
REMARK VINA RESULT:      -5.9      2.411      5.708
REMARK  4 active torsions:
REMARK  status: ('A' for Active; 'I' for Inactive)
REMARK    1  A    between atoms: C_10  and  C_2 
REMARK    2  A    between atoms: C_9  and  C_4 
REMARK    3  A    between atoms: C_8  and  N_6 
REMARK    4  A    between atoms: N_7  and  C_9 
ROOT
ATOM      1  N   UNL d   1     -49.136  13.180  22.723  0.00  0.00    -0.301 N 
ATOM      2  N   UNL d   1     -48.190  11.911  23.176  0.00  0.00    -0.297 N 
ATOM      3  C   UNL d   1     -48.501  12.947  22.250  0.00  0.00     0.100 A 
ATOM      4  C   UNL d   1     -49.298  12.780  23.421  0.00  0.00     0.100 A 
ATOM      5  C   UNL d   1     -48.028  12.312  22.477  0.00  0.00     0.100 A 
ATOM      6  C   UNL d   1     -48.824  12.142  23.651  0.00  0.00     0.100 A 
ENDROOT
BRANCH   2   7
ATOM      7  C   UNL d   1     -47.720  11.275  23.407  0.00  0.00     0.127 C 
BRANCH   7   8
ATOM      8  C   UNL d   1     -46.907  11.378  23.476  0.00  0.00     0.222 A 
ATOM      9  N   UNL d   1     -46.505  12.091  23.608  0.00  0.00    -0.119 NA
ATOM     10  N   UNL d   1     -45.696  11.930  23.637  0.00  0.00    -0.121 NA
ATOM     11  C   UNL d   1     -45.595  11.116  23.523  0.00  0.00     0.204 A 
ATOM     12  O   UNL d   1     -46.341  10.773  23.423  0.00  0.00    -0.267 OA
BRANCH  11  13
ATOM     13  C   UNL d   1     -44.870  10.719  23.511  0.00  0.00     0.043 A 
ATOM     14  C   UNL d   1     -44.182  11.125  23.314  0.00  0.00     0.004 A 
ATOM     15  C   UNL d   1     -43.458  10.728  23.303  0.00  0.00     0.000 A 
ATOM     16  C   UNL d   1     -43.424   9.927  23.488  0.00  0.00     0.000 A 
ATOM     17  C   UNL d   1     -44.126   9.520  23.688  0.00  0.00     0.000 A 
ATOM     18  C   UNL d   1     -44.842   9.923  23.696  0.00  0.00     0.004 A 
ENDBRANCH  11  13
ENDBRANCH   7   8
ENDBRANCH   2   7
BRANCH   1  19
ATOM     19  C   UNL d   1     -49.609  13.816  22.496  0.00  0.00     0.064 A 
ATOM     20  C   UNL d   1     -49.423  14.580  22.747  0.00  0.00     0.020 A 
ATOM     21  C   UNL d   1     -49.899  15.215  22.518  0.00  0.00     0.031 A 
ATOM     22  C   UNL d   1     -50.563  15.089  22.039  0.00  0.00     0.140 A 
ATOM     23  C   UNL d   1     -50.740  14.320  21.794  0.00  0.00     0.031 A 
ATOM     24  F   UNL d   1     -51.063  15.693  21.789  0.00  0.00    -0.204 F 
ATOM     25  C   UNL d   1     -50.266  13.685  22.021  0.00  0.00     0.020 A 
ENDBRANCH   1  19
TORSDOF 4
ENDMDL
MODEL 6
REMARK VINA RESULT:      -5.8      1.566      2.104
REMARK  4 active torsions:
REMARK  status: ('A' for Active; 'I' for Inactive)
REMARK    1  A    between atoms: C_10  and  C_2 
REMARK    2  A    between atoms: C_9  and  C_4 
REMARK    3  A    between atoms: C_8  and  N_6 
REMARK    4  A    between atoms: N_7  and  C_9 
ROOT
ATOM      1  N   UNL d   1     -46.046  11.162  23.465  0.00  0.00    -0.301 N 
ATOM      2  N   UNL d   1     -47.639  11.551  23.620  0.00  0.00    -0.297 N 
ATOM      3  C   UNL d   1     -46.613  10.567  23.534  0.00  0.00     0.100 A 
ATOM      4  C   UNL d   1     -46.275  11.951  23.474  0.00  0.00     0.100 A 
ATOM      5  C   UNL d   1     -47.410  10.762  23.611  0.00  0.00     0.100 A 
ATOM      6  C   UNL d   1     -47.073  12.149  23.552  0.00  0.00     0.100 A 
ENDROOT
BRANCH   2   7
ATOM      7  C   UNL d   1     -48.434  11.751  23.698  0.00  0.00     0.127 C 
BRANCH   7   8
ATOM      8  C   UNL d   1     -48.735  12.385  23.270  0.00  0.00     0.222 A 
ATOM      9  N   UNL d   1     -48.861  12.418  22.451  0.00  0.00    -0.119 NA
ATOM     10  N   UNL d   1     -49.169  13.161  22.267  0.00  0.00    -0.121 NA
ATOM     11  C   UNL d   1     -49.236  13.589  22.972  0.00  0.00     0.204 A 
ATOM     12  O   UNL d   1     -48.969  13.113  23.592  0.00  0.00    -0.267 OA
BRANCH  11  13
ATOM     13  C   UNL d   1     -49.522  14.362  23.038  0.00  0.00     0.043 A 
ATOM     14  C   UNL d   1     -49.056  14.996  22.799  0.00  0.00     0.004 A 
ATOM     15  C   UNL d   1     -49.342  15.768  22.865  0.00  0.00     0.000 A 
ATOM     16  C   UNL d   1     -50.094  15.903  23.171  0.00  0.00     0.000 A 
ATOM     17  C   UNL d   1     -50.564  15.256  23.412  0.00  0.00     0.000 A 
ATOM     18  C   UNL d   1     -50.271  14.492  23.342  0.00  0.00     0.004 A 
ENDBRANCH  11  13
ENDBRANCH   7   8
ENDBRANCH   2   7
BRANCH   1  19
ATOM     19  C   UNL d   1     -45.249  10.968  23.387  0.00  0.00     0.064 A 
ATOM     20  C   UNL d   1     -44.965  10.257  23.698  0.00  0.00     0.020 A 
ATOM     21  C   UNL d   1     -44.166  10.065  23.618  0.00  0.00     0.031 A 
ATOM     22  C   UNL d   1     -43.648  10.581  23.229  0.00  0.00     0.140 A 
ATOM     23  C   UNL d   1     -43.943  11.289  22.923  0.00  0.00     0.031 A 
ATOM     24  F   UNL d   1     -42.845  10.428  23.129  0.00  0.00    -0.204 F 
ATOM     25  C   UNL d   1     -44.740  11.483  23.001  0.00  0.00     0.020 A 
ENDBRANCH   1  19
TORSDOF 4
ENDMDL
MODEL 7
REMARK VINA RESULT:      -5.6      2.411      5.380
REMARK  4 active torsions:
REMARK  status: ('A' for Active; 'I' for Inactive)
REMARK    1  A    between atoms: C_10  and  C_2 
REMARK    2  A    between atoms: C_9  and  C_4 
REMARK    3  A    between atoms: C_8  and  N_6 
REMARK    4  A    between atoms: N_7  and  C_9 
ROOT
ATOM      1  N   UNL d   1     -48.840  13.325  22.988  0.00  0.00    -0.301 N 
ATOM      2  N   UNL d   1     -47.809  12.040  22.989  0.00  0.00    -0.297 N 
ATOM      3  C   UNL d   1     -48.659  12.938  22.283  0.00  0.00     0.100 A 
ATOM      4  C   UNL d   1     -48.507  13.070  23.694  0.00  0.00     0.100 A 
ATOM      5  C   UNL d   1     -48.144  12.296  22.283  0.00  0.00     0.100 A 
ATOM      6  C   UNL d   1     -47.989  12.426  23.697  0.00  0.00     0.100 A 
ENDROOT
BRANCH   2   7
ATOM      7  C   UNL d   1     -47.293  11.399  22.995  0.00  0.00     0.127 C 
BRANCH   7   8
ATOM      8  C   UNL d   1     -46.484  11.532  23.048  0.00  0.00     0.222 A 
ATOM      9  N   UNL d   1     -45.989  11.344  23.687  0.00  0.00    -0.119 NA
ATOM     10  N   UNL d   1     -45.221  11.577  23.496  0.00  0.00    -0.121 NA
ATOM     11  C   UNL d   1     -45.238  11.909  22.737  0.00  0.00     0.204 A 
ATOM     12  O   UNL d   1     -46.016  11.882  22.459  0.00  0.00    -0.267 OA
BRANCH  11  13
ATOM     13  C   UNL d   1     -44.585  12.214  22.333  0.00  0.00     0.043 A 
ATOM     14  C   UNL d   1     -43.846  11.862  22.419  0.00  0.00     0.004 A 
ATOM     15  C   UNL d   1     -43.194  12.167  22.014  0.00  0.00     0.000 A 
ATOM     16  C   UNL d   1     -43.283  12.823  21.525  0.00  0.00     0.000 A 
ATOM     17  C   UNL d   1     -44.035  13.176  21.441  0.00  0.00     0.000 A 
ATOM     18  C   UNL d   1     -44.678  12.866  21.847  0.00  0.00     0.004 A 
ENDBRANCH  11  13
ENDBRANCH   7   8
ENDBRANCH   2   7
BRANCH   1  19
ATOM     19  C   UNL d   1     -49.356  13.968  22.988  0.00  0.00     0.064 A 
ATOM     20  C   UNL d   1     -49.086  14.714  23.215  0.00  0.00     0.020 A 
ATOM     21  C   UNL d   1     -49.605  15.357  23.214  0.00  0.00     0.031 A 
ATOM     22  C   UNL d   1     -50.395  15.256  22.987  0.00  0.00     0.140 A 
ATOM     23  C   UNL d   1     -50.654  14.505  22.762  0.00  0.00     0.031 A 
ATOM     24  F   UNL d   1     -50.944  15.869  22.972  0.00  0.00    -0.204 F 
ATOM     25  C   UNL d   1     -50.139  13.862  22.762  0.00  0.00     0.020 A 
ENDBRANCH   1  19
TORSDOF 4
ENDMDL
MODEL 8
REMARK VINA RESULT:      -4.8      9.090     10.689
REMARK  4 active torsions:
REMARK  status: ('A' for Active; 'I' for Inactive)
REMARK    1  A    between atoms: C_10  and  C_2 
REMARK    2  A    between atoms: C_9  and  C_4 
REMARK    3  A    between atoms: C_8  and  N_6 
REMARK    4  A    between atoms: N_7  and  C_9 
ROOT
ATOM      1  N   UNL d   1     -37.979  14.482  16.115  0.00  0.00    -0.301 N 
ATOM      2  N   UNL d   1     -37.998  15.189  17.602  0.00  0.00    -0.297 N 
ATOM      3  C   UNL d   1     -37.961  14.017  16.796  0.00  0.00     0.100 A 
ATOM      4  C   UNL d   1     -38.006  15.300  16.177  0.00  0.00     0.100 A 
ATOM      5  C   UNL d   1     -37.971  14.370  17.540  0.00  0.00     0.100 A 
ATOM      6  C   UNL d   1     -38.016  15.658  16.923  0.00  0.00     0.100 A 
ENDROOT
BRANCH   2   7
ATOM      7  C   UNL d   1     -38.008  15.548  18.344  0.00  0.00     0.127 C 
BRANCH   7   8
ATOM      8  C   UNL d   1     -38.670  15.466  18.824  0.00  0.00     0.222 A 
ATOM      9  N   UNL d   1     -39.407  15.832  18.722  0.00  0.00    -0.119 NA
ATOM     10  N   UNL d   1     -39.903  15.588  19.335  0.00  0.00    -0.121 NA
ATOM     11  C   UNL d   1     -39.474  15.070  19.817  0.00  0.00     0.204 A 
ATOM     12  O   UNL d   1     -38.714  14.993  19.504  0.00  0.00    -0.267 OA
BRANCH  11  13
ATOM     13  C   UNL d   1     -39.764  14.696  20.496  0.00  0.00     0.043 A 
ATOM     14  C   UNL d   1     -40.571  14.561  20.579  0.00  0.00     0.004 A 
ATOM     15  C   UNL d   1     -40.860  14.188  21.257  0.00  0.00     0.000 A 
ATOM     16  C   UNL d   1     -40.339  13.951  21.849  0.00  0.00     0.000 A 
ATOM     17  C   UNL d   1     -39.520  14.091  21.760  0.00  0.00     0.000 A 
ATOM     18  C   UNL d   1     -39.243  14.463  21.082  0.00  0.00     0.004 A 
ENDBRANCH  11  13
ENDBRANCH   7   8
ENDBRANCH   2   7
BRANCH   1  19
ATOM     19  C   UNL d   1     -37.970  14.129  15.371  0.00  0.00     0.064 A 
ATOM     20  C   UNL d   1     -37.981  13.306  15.305  0.00  0.00     0.020 A 
ATOM     21  C   UNL d   1     -37.971  12.954  14.557  0.00  0.00     0.031 A 
ATOM     22  C   UNL d   1     -37.950  13.422  13.874  0.00  0.00     0.140 A 
ATOM     23  C   UNL d   1     -37.940  14.244  13.953  0.00  0.00     0.031 A 
ATOM     24  F   UNL d   1     -37.940  13.112  13.112  0.00  0.00    -0.204 F 
ATOM     25  C   UNL d   1     -37.949  14.597  14.697  0.00  0.00     0.020 A 
ENDBRANCH   1  19
TORSDOF 4
ENDMDL
MODEL 9
REMARK VINA RESULT:      -4.5      2.620      5.617
REMARK  4 active torsions:
REMARK  status: ('A' for Active; 'I' for Inactive)
REMARK    1  A    between atoms: C_10  and  C_2 
REMARK    2  A    between atoms: C_9  and  C_4 
REMARK    3  A    between atoms: C_8  and  N_6 
REMARK    4  A    between atoms: N_7  and  C_9 
ROOT
ATOM      1  N   UNL d   1     -48.176  13.902  22.806  0.00  0.00    -0.301 N 
ATOM      2  N   UNL d   1     -46.731  13.129  22.965  0.00  0.00    -0.297 N 
ATOM      3  C   UNL d   1     -48.141  13.079  22.777  0.00  0.00     0.100 A 
ATOM      4  C   UNL d   1     -47.490  14.339  22.915  0.00  0.00     0.100 A 
ATOM      5  C   UNL d   1     -47.418  12.692  22.856  0.00  0.00     0.100 A 
ATOM      6  C   UNL d   1     -46.763  13.954  22.995  0.00  0.00     0.100 A 
ENDROOT
BRANCH   2   7
ATOM      7  C   UNL d   1     -46.005  12.747  23.045  0.00  0.00     0.127 C 
BRANCH   7   8
ATOM      8  C   UNL d   1     -45.469  12.764  22.422  0.00  0.00     0.222 A 
ATOM      9  N   UNL d   1     -45.629  12.605  21.624  0.00  0.00    -0.119 NA
ATOM     10  N   UNL d   1     -44.927  12.687  21.199  0.00  0.00    -0.121 NA
ATOM     11  C   UNL d   1     -44.330  12.898  21.732  0.00  0.00     0.204 A 
ATOM     12  O   UNL d   1     -44.662  12.946  22.488  0.00  0.00    -0.267 OA
BRANCH  11  13
ATOM     13  C   UNL d   1     -43.539  13.035  21.537  0.00  0.00     0.043 A 
ATOM     14  C   UNL d   1     -43.318  13.746  21.187  0.00  0.00     0.004 A 
ATOM     15  C   UNL d   1     -42.528  13.884  20.992  0.00  0.00     0.000 A 
ATOM     16  C   UNL d   1     -41.960  13.309  21.149  0.00  0.00     0.000 A 
ATOM     17  C   UNL d   1     -42.189  12.588  21.505  0.00  0.00     0.000 A 
ATOM     18  C   UNL d   1     -42.978  12.461  21.695  0.00  0.00     0.004 A 
ENDBRANCH  11  13
ENDBRANCH   7   8
ENDBRANCH   2   7
BRANCH   1  19
ATOM     19  C   UNL d   1     -48.899  14.289  22.727  0.00  0.00     0.064 A 
ATOM     20  C   UNL d   1     -49.387  14.125  22.081  0.00  0.00     0.020 A 
ATOM     21  C   UNL d   1     -50.112  14.514  22.004  0.00  0.00     0.031 A 
ATOM     22  C   UNL d   1     -50.352  15.068  22.571  0.00  0.00     0.140 A 
ATOM     23  C   UNL d   1     -49.856  15.224  23.212  0.00  0.00     0.031 A 
ATOM     24  F   UNL d   1     -51.064  15.478  22.532  0.00  0.00    -0.204 F 
ATOM     25  C   UNL d   1     -49.133  14.838  23.292  0.00  0.00     0.020 A 
ENDBRANCH   1  19
TORSDOF 4
ENDMDL
