MODEL 1
REMARK VINA RESULT:      57.8      0.000      0.000
REMARK  4 active torsions:
REMARK  status: ('A' for Active; 'I' for Inactive)
REMARK    1  A    between atoms: C_2  and  S_1 
REMARK    2  A    between atoms: N_7  and  S_1 
REMARK    3  A    between atoms: C_3  and  C_12 
REMARK    4  A    between atoms: C_15  and  N_7 
ROOT
ATOM      1  C   UNL d   1     -55.146-101.705 -41.395  0.00  0.00     0.024 A 
ATOM      2  C   UNL d   1     -55.034-101.329 -43.006  0.00  0.00     0.094 A 
ATOM      3  C   UNL d   1     -54.766-101.019 -41.645  0.00  0.00     0.004 A 
ATOM      4  C   UNL d   1     -55.476-102.214 -41.958  0.00  0.00     0.004 A 
ATOM      5  C   UNL d   1     -54.711-100.833 -42.438  0.00  0.00     0.020 A 
ATOM      6  C   UNL d   1     -55.423-102.031 -42.756  0.00  0.00     0.020 A 
ENDROOT
BRANCH   2   7
ATOM      7  N   UNL d   1     -54.981-101.147 -43.800  0.00  0.00    -0.158 NA
BRANCH   7   8
ATOM      8  S   UNL d   1     -55.457-100.546 -44.119  0.00  0.00     0.287 S 
ATOM      9  O   UNL d   1     -56.062-101.089 -44.252  0.00  0.00    -0.198 OA
ATOM     10  O   UNL d   1     -54.853-100.002 -43.986  0.00  0.00    -0.198 OA
BRANCH   8  11
ATOM     11  C   UNL d   1     -55.933 -99.954 -44.435  0.00  0.00     0.135 A 
ATOM     12  C   UNL d   1     -56.725 -99.895 -44.234  0.00  0.00     0.045 A 
ATOM     13  C   UNL d   1     -57.197 -99.305 -44.550  0.00  0.00     0.141 A 
ATOM     14  F   UNL d   1     -57.992 -99.252 -44.344  0.00  0.00    -0.204 F 
ATOM     15  C   UNL d   1     -56.870 -98.762 -45.079  0.00  0.00     0.032 A 
ATOM     16  C   UNL d   1     -56.072 -98.809 -45.291  0.00  0.00     0.033 A 
ATOM     17  C   UNL d   1     -55.606 -99.411 -44.964  0.00  0.00     0.152 A 
ATOM     18  F   UNL d   1     -54.804 -99.460 -45.176  0.00  0.00    -0.203 F 
ENDBRANCH   8  11
ENDBRANCH   7   8
ENDBRANCH   2   7
BRANCH   1  19
ATOM     19  C   UNL d   1     -55.201-101.893 -40.593  0.00  0.00     0.112 A 
ATOM     20  S   UNL d   1     -54.742-101.568 -39.996  0.00  0.00    -0.047 SA
ATOM     21  C   UNL d   1     -54.980-101.912 -39.268  0.00  0.00     0.130 A 
ATOM     22  N   UNL d   1     -54.722-101.803 -38.494  0.00  0.00    -0.236 NA
ATOM     23  C   UNL d   1     -55.592-102.451 -39.437  0.00  0.00     0.106 A 
ATOM     24  C   UNL d   1     -55.077-102.236 -37.884  0.00  0.00     0.100 A 
ATOM     25  C   UNL d   1     -55.685-102.774 -38.047  0.00  0.00     0.022 A 
ATOM     26  C   UNL d   1     -55.941-102.880 -38.821  0.00  0.00     0.023 A 
ATOM     27  N   UNL d   1     -55.728-102.438 -40.261  0.00  0.00    -0.237 NA
ENDBRANCH   1  19
TORSDOF 4
ENDMDL
