MODEL 1
REMARK VINA RESULT:      47.3      0.000      0.000
REMARK  6 active torsions:
REMARK  status: ('A' for Active; 'I' for Inactive)
REMARK    1  A    between atoms: N_4  and  S_1 
REMARK    2  A    between atoms: C_12  and  S_1 
REMARK    3  A    between atoms: N_3  and  C_2 
REMARK    4  A    between atoms: C_7  and  N_4 
REMARK    5  A    between atoms: C_6  and  C_8 
REMARK       I    between atoms: C_8  and  N_13 
REMARK    6  A    between atoms: N_13  and  C_22 
ROOT
ATOM      1  C   UNL d   1      13.455  13.188  -3.796  0.00  0.00     0.106 A 
ATOM      2  C   UNL d   1      13.147  13.143  -4.554  0.00  0.00     0.015 A 
ATOM      3  C   UNL d   1      13.683  13.913  -3.473  0.00  0.00     0.015 A 
ATOM      4  C   UNL d   1      13.291  14.561  -4.683  0.00  0.00     0.085 A 
ATOM      5  C   UNL d   1      13.601  14.602  -3.919  0.00  0.00     0.020 A 
ATOM      6  C   UNL d   1      13.065  13.833  -5.000  0.00  0.00     0.020 A 
ENDROOT
BRANCH   1   7
ATOM      7  S   UNL d   1      13.537  12.499  -3.350  0.00  0.00     0.300 S 
ATOM      8  O   UNL d   1      13.961  12.911  -2.775  0.00  0.00    -0.198 OA
ATOM      9  O   UNL d   1      13.113  12.071  -3.920  0.00  0.00    -0.198 OA
BRANCH   7  10
ATOM     10  N   UNL d   1      13.617  11.801  -2.903  0.00  0.00     0.034 NA
BRANCH  10  11
ATOM     11  C   UNL d   1      13.909  11.834  -2.132  0.00  0.00     0.760 A 
ATOM     12  N   UNL d   1      13.382  11.790  -1.482  0.00  0.00    -0.059 NA
ATOM     13  C   UNL d   1      13.673  11.823  -0.710  0.00  0.00     0.102 A 
ATOM     14  C   UNL d   1      13.153  11.779  -0.068  0.00  0.00     0.021 C 
ATOM     15  C   UNL d   1      14.484  11.899  -0.581  0.00  0.00     0.041 A 
ATOM     16  C   UNL d   1      15.012  11.943  -1.232  0.00  0.00     0.120 A 
ATOM     17  N   UNL d   1      14.715  11.910  -1.996  0.00  0.00    -0.057 NA
ENDBRANCH  10  11
ENDBRANCH   7  10
ENDBRANCH   1   7
BRANCH   4  18
ATOM     18  N   UNL d   1      13.209  15.261  -5.133  0.00  0.00    -0.208 NA
ATOM     19  C   UNL d   1      13.739  15.887  -5.031  0.00  0.00     0.285 C 
ATOM     20  O   UNL d   1      14.352  15.814  -4.479  0.00  0.00    -0.265 OA
BRANCH  19  21
ATOM     21  C   UNL d   1      13.655  16.576  -5.477  0.00  0.00     0.089 A 
ATOM     22  S   UNL d   1      14.087  17.280  -5.379  0.00  0.00    -0.059 SA
ATOM     23  C   UNL d   1      13.810  17.813  -5.949  0.00  0.00     0.156 A 
ATOM     24  C   UNL d   1      13.217  17.436  -6.389  0.00  0.00     0.031 A 
ATOM     25  C   UNL d   1      13.131  16.684  -6.092  0.00  0.00     0.014 A 
BRANCH  23  26
ATOM     26  N   UNL d   1      14.093  18.595  -6.052  0.00  0.00    -0.107 N 
ATOM     27  O   UNL d   1      13.597  19.187  -6.349  0.00  0.00    -0.531 OA
ATOM     28  O   UNL d   1      14.878  18.769  -5.851  0.00  0.00    -0.531 OA
ENDBRANCH  23  26
ENDBRANCH  19  21
ENDBRANCH   4  18
TORSDOF 6
ENDMDL
