MODEL 1
REMARK VINA RESULT:      -9.0      0.000      0.000
REMARK  4 active torsions:
REMARK  status: ('A' for Active; 'I' for Inactive)
REMARK       I    between atoms: N_2  and  C_1 
REMARK    1  A    between atoms: O_3  and  C_1 
REMARK    2  A    between atoms: C_5  and  O_3 
REMARK    3  A    between atoms: O_8  and  C_7 
REMARK    4  A    between atoms: C_10  and  O_8 
ROOT
ATOM      1  C   UNL d   1      53.239  33.405  53.649  0.00  0.00     0.107 A 
ATOM      2  C   UNL d   1      53.445  32.682  53.308  0.00  0.00     0.050 A 
ATOM      3  C   UNL d   1      53.962  32.170  53.702  0.00  0.00     0.102 A 
ATOM      4  C   UNL d   1      54.067  33.103  54.778  0.00  0.00     0.004 A 
ATOM      5  C   UNL d   1      53.551  33.616  54.384  0.00  0.00     0.025 A 
ATOM      6  C   UNL d   1      54.272  32.381  54.436  0.00  0.00     0.025 A 
ENDROOT
BRANCH   1   7
ATOM      7  O   UNL d   1      52.723  33.917  53.256  0.00  0.00    -0.259 OA
BRANCH   7   8
ATOM      8  C   UNL d   1      51.938  33.988  53.485  0.00  0.00     0.378 C 
ATOM      9  N   UNL d   1      51.336  34.134  52.925  0.00  0.00    -0.247 N 
ATOM     10  C   UNL d   1      51.539  34.208  52.121  0.00  0.00     0.112 A 
ATOM     11  C   UNL d   1      50.548  34.204  53.168  0.00  0.00     0.112 A 
ATOM     12  C   UNL d   1      50.948  34.352  51.561  0.00  0.00     0.142 A 
ATOM     13  O   UNL d   1      50.157  34.423  51.795  0.00  0.00    -0.300 OA
ATOM     14  C   UNL d   1      49.958  34.348  52.607  0.00  0.00     0.142 A 
ATOM     15  O   UNL d   1      51.742  33.910  54.311  0.00  0.00    -0.237 OA
ENDBRANCH   7   8
ENDBRANCH   1   7
BRANCH   3  16
ATOM     16  O   UNL d   1      54.167  31.448  53.361  0.00  0.00    -0.307 OA
BRANCH  16  17
ATOM     17  C   UNL d   1      53.666  30.795  53.441  0.00  0.00     0.100 A 
ATOM     18  C   UNL d   1      53.763  30.276  54.075  0.00  0.00     0.025 A 
ATOM     19  C   UNL d   1      53.262  29.623  54.155  0.00  0.00     0.002 A 
ATOM     20  C   UNL d   1      52.665  29.489  53.602  0.00  0.00     0.000 A 
ATOM     21  C   UNL d   1      52.574  30.015  52.967  0.00  0.00     0.002 A 
ATOM     22  C   UNL d   1      53.069  30.662  52.888  0.00  0.00     0.025 A 
ENDBRANCH  16  17
ENDBRANCH   3  16
TORSDOF 4
ENDMDL
MODEL 2
REMARK VINA RESULT:      -8.8      1.390      4.019
REMARK  4 active torsions:
REMARK  status: ('A' for Active; 'I' for Inactive)
REMARK       I    between atoms: N_2  and  C_1 
REMARK    1  A    between atoms: O_3  and  C_1 
REMARK    2  A    between atoms: C_5  and  O_3 
REMARK    3  A    between atoms: O_8  and  C_7 
REMARK    4  A    between atoms: C_10  and  O_8 
ROOT
ATOM      1  C   UNL d   1      53.914  32.609  54.605  0.00  0.00     0.107 A 
ATOM      2  C   UNL d   1      53.216  33.041  54.512  0.00  0.00     0.050 A 
ATOM      3  C   UNL d   1      53.232  33.867  54.548  0.00  0.00     0.102 A 
ATOM      4  C   UNL d   1      54.642  33.831  54.768  0.00  0.00     0.004 A 
ATOM      5  C   UNL d   1      54.627  33.005  54.733  0.00  0.00     0.025 A 
ATOM      6  C   UNL d   1      53.945  34.261  54.676  0.00  0.00     0.025 A 
ENDROOT
BRANCH   1   7
ATOM      7  O   UNL d   1      53.898  31.784  54.569  0.00  0.00    -0.259 OA
BRANCH   7   8
ATOM      8  C   UNL d   1      53.822  31.390  53.853  0.00  0.00     0.378 C 
ATOM      9  N   UNL d   1      53.505  30.618  53.815  0.00  0.00    -0.247 N 
ATOM     10  C   UNL d   1      53.264  30.244  54.518  0.00  0.00     0.112 A 
ATOM     11  C   UNL d   1      53.433  30.231  53.087  0.00  0.00     0.112 A 
ATOM     12  C   UNL d   1      52.950  29.480  54.488  0.00  0.00     0.142 A 
ATOM     13  O   UNL d   1      52.874  29.086  53.765  0.00  0.00    -0.300 OA
ATOM     14  C   UNL d   1      53.119  29.468  53.058  0.00  0.00     0.142 A 
ATOM     15  O   UNL d   1      54.072  31.783  53.139  0.00  0.00    -0.237 OA
ENDBRANCH   7   8
ENDBRANCH   1   7
BRANCH   3  16
ATOM     16  O   UNL d   1      52.534  34.297  54.456  0.00  0.00    -0.307 OA
BRANCH  16  17
ATOM     17  C   UNL d   1      52.137  34.291  53.730  0.00  0.00     0.100 A 
ATOM     18  C   UNL d   1      51.425  33.882  53.653  0.00  0.00     0.025 A 
ATOM     19  C   UNL d   1      51.027  33.875  52.928  0.00  0.00     0.002 A 
ATOM     20  C   UNL d   1      51.342  34.278  52.281  0.00  0.00     0.000 A 
ATOM     21  C   UNL d   1      52.058  34.687  52.366  0.00  0.00     0.002 A 
ATOM     22  C   UNL d   1      52.452  34.694  53.083  0.00  0.00     0.025 A 
ENDBRANCH  16  17
ENDBRANCH   3  16
TORSDOF 4
ENDMDL
MODEL 3
REMARK VINA RESULT:      -8.3      1.900      3.195
REMARK  4 active torsions:
REMARK  status: ('A' for Active; 'I' for Inactive)
REMARK       I    between atoms: N_2  and  C_1 
REMARK    1  A    between atoms: O_3  and  C_1 
REMARK    2  A    between atoms: C_5  and  O_3 
REMARK    3  A    between atoms: O_8  and  C_7 
REMARK    4  A    between atoms: C_10  and  O_8 
ROOT
ATOM      1  C   UNL d   1      50.786  34.092  53.128  0.00  0.00     0.107 A 
ATOM      2  C   UNL d   1      51.577  34.325  53.118  0.00  0.00     0.050 A 
ATOM      3  C   UNL d   1      52.177  33.755  53.108  0.00  0.00     0.102 A 
ATOM      4  C   UNL d   1      51.194  32.720  53.116  0.00  0.00     0.004 A 
ATOM      5  C   UNL d   1      50.594  33.289  53.127  0.00  0.00     0.025 A 
ATOM      6  C   UNL d   1      51.985  32.953  53.107  0.00  0.00     0.025 A 
ENDROOT
BRANCH   1   7
ATOM      7  O   UNL d   1      50.187  34.661  53.139  0.00  0.00    -0.259 OA
BRANCH   7   8
ATOM      8  C   UNL d   1      49.669  34.746  52.507  0.00  0.00     0.378 C 
ATOM      9  N   UNL d   1      48.974  35.205  52.576  0.00  0.00    -0.247 N 
ATOM     10  C   UNL d   1      48.807  35.582  53.299  0.00  0.00     0.112 A 
ATOM     11  C   UNL d   1      48.460  35.282  51.932  0.00  0.00     0.112 A 
ATOM     12  C   UNL d   1      48.121  36.038  53.374  0.00  0.00     0.142 A 
ATOM     13  O   UNL d   1      47.601  36.121  52.736  0.00  0.00    -0.300 OA
ATOM     14  C   UNL d   1      47.775  35.738  52.009  0.00  0.00     0.142 A 
ATOM     15  O   UNL d   1      49.850  34.355  51.771  0.00  0.00    -0.237 OA
ENDBRANCH   7   8
ENDBRANCH   1   7
BRANCH   3  16
ATOM     16  O   UNL d   1      52.968  33.989  53.098  0.00  0.00    -0.307 OA
BRANCH  16  17
ATOM     17  C   UNL d   1      53.463  33.800  53.733  0.00  0.00     0.100 A 
ATOM     18  C   UNL d   1      53.448  34.258  54.419  0.00  0.00     0.025 A 
ATOM     19  C   UNL d   1      53.943  34.069  55.054  0.00  0.00     0.002 A 
ATOM     20  C   UNL d   1      54.453  33.423  55.003  0.00  0.00     0.000 A 
ATOM     21  C   UNL d   1      54.463  32.967  54.310  0.00  0.00     0.002 A 
ATOM     22  C   UNL d   1      53.973  33.154  53.682  0.00  0.00     0.025 A 
ENDBRANCH  16  17
ENDBRANCH   3  16
TORSDOF 4
ENDMDL
MODEL 4
REMARK VINA RESULT:      -8.3      1.035      2.347
REMARK  4 active torsions:
REMARK  status: ('A' for Active; 'I' for Inactive)
REMARK       I    between atoms: N_2  and  C_1 
REMARK    1  A    between atoms: O_3  and  C_1 
REMARK    2  A    between atoms: C_5  and  O_3 
REMARK    3  A    between atoms: O_8  and  C_7 
REMARK    4  A    between atoms: C_10  and  O_8 
ROOT
ATOM      1  C   UNL d   1      52.353  32.694  52.782  0.00  0.00     0.107 A 
ATOM      2  C   UNL d   1      53.133  32.850  52.999  0.00  0.00     0.050 A 
ATOM      3  C   UNL d   1      53.609  32.245  53.302  0.00  0.00     0.102 A 
ATOM      4  C   UNL d   1      52.523  31.327  53.172  0.00  0.00     0.004 A 
ATOM      5  C   UNL d   1      52.048  31.932  52.869  0.00  0.00     0.025 A 
ATOM      6  C   UNL d   1      53.303  31.484  53.389  0.00  0.00     0.025 A 
ENDROOT
BRANCH   1   7
ATOM      7  O   UNL d   1      51.878  33.298  52.480  0.00  0.00    -0.259 OA
BRANCH   7   8
ATOM      8  C   UNL d   1      51.326  33.683  52.950  0.00  0.00     0.378 C 
ATOM      9  N   UNL d   1      50.662  34.064  52.616  0.00  0.00    -0.247 N 
ATOM     10  C   UNL d   1      50.561  34.052  51.790  0.00  0.00     0.112 A 
ATOM     11  C   UNL d   1      50.113  34.448  53.101  0.00  0.00     0.112 A 
ATOM     12  C   UNL d   1      49.907  34.428  51.452  0.00  0.00     0.142 A 
ATOM     13  O   UNL d   1      49.352  34.814  51.929  0.00  0.00    -0.300 OA
ATOM     14  C   UNL d   1      49.459  34.823  52.763  0.00  0.00     0.142 A 
ATOM     15  O   UNL d   1      51.439  33.688  53.796  0.00  0.00    -0.237 OA
ENDBRANCH   7   8
ENDBRANCH   1   7
BRANCH   3  16
ATOM     16  O   UNL d   1      54.389  32.402  53.519  0.00  0.00    -0.307 OA
BRANCH  16  17
ATOM     17  C   UNL d   1      54.550  32.829  54.209  0.00  0.00     0.100 A 
ATOM     18  C   UNL d   1      54.268  32.560  54.936  0.00  0.00     0.025 A 
ATOM     19  C   UNL d   1      54.429  32.986  55.626  0.00  0.00     0.002 A 
ATOM     20  C   UNL d   1      54.870  33.682  55.588  0.00  0.00     0.000 A 
ATOM     21  C   UNL d   1      55.150  33.947  54.854  0.00  0.00     0.002 A 
ATOM     22  C   UNL d   1      54.991  33.525  54.171  0.00  0.00     0.025 A 
ENDBRANCH  16  17
ENDBRANCH   3  16
TORSDOF 4
ENDMDL
MODEL 5
REMARK VINA RESULT:      -8.2      1.315      2.253
REMARK  4 active torsions:
REMARK  status: ('A' for Active; 'I' for Inactive)
REMARK       I    between atoms: N_2  and  C_1 
REMARK    1  A    between atoms: O_3  and  C_1 
REMARK    2  A    between atoms: C_5  and  O_3 
REMARK    3  A    between atoms: O_8  and  C_7 
REMARK    4  A    between atoms: C_10  and  O_8 
ROOT
ATOM      1  C   UNL d   1      51.321  34.066  52.582  0.00  0.00     0.107 A 
ATOM      2  C   UNL d   1      51.492  33.416  53.060  0.00  0.00     0.050 A 
ATOM      3  C   UNL d   1      52.198  33.391  53.489  0.00  0.00     0.102 A 
ATOM      4  C   UNL d   1      52.562  34.668  52.963  0.00  0.00     0.004 A 
ATOM      5  C   UNL d   1      51.856  34.692  52.534  0.00  0.00     0.025 A 
ATOM      6  C   UNL d   1      52.733  34.018  53.441  0.00  0.00     0.025 A 
ENDROOT
BRANCH   1   7
ATOM      7  O   UNL d   1      50.615  34.090  52.152  0.00  0.00    -0.259 OA
BRANCH   7   8
ATOM      8  C   UNL d   1      49.968  34.519  52.420  0.00  0.00     0.378 C 
ATOM      9  N   UNL d   1      49.303  34.650  51.932  0.00  0.00    -0.247 N 
ATOM     10  C   UNL d   1      49.300  34.339  51.161  0.00  0.00     0.112 A 
ATOM     11  C   UNL d   1      48.657  35.084  52.214  0.00  0.00     0.112 A 
ATOM     12  C   UNL d   1      48.645  34.465  50.672  0.00  0.00     0.142 A 
ATOM     13  O   UNL d   1      47.994  34.897  50.945  0.00  0.00    -0.300 OA
ATOM     14  C   UNL d   1      48.004  35.209  51.724  0.00  0.00     0.142 A 
ATOM     15  O   UNL d   1      49.983  34.834  53.213  0.00  0.00    -0.237 OA
ENDBRANCH   7   8
ENDBRANCH   1   7
BRANCH   3  16
ATOM     16  O   UNL d   1      52.369  32.741  53.967  0.00  0.00    -0.307 OA
BRANCH  16  17
ATOM     17  C   UNL d   1      52.816  32.113  53.667  0.00  0.00     0.100 A 
ATOM     18  C   UNL d   1      52.451  31.517  53.230  0.00  0.00     0.025 A 
ATOM     19  C   UNL d   1      52.898  30.890  52.930  0.00  0.00     0.002 A 
ATOM     20  C   UNL d   1      53.710  30.859  53.069  0.00  0.00     0.000 A 
ATOM     21  C   UNL d   1      54.071  31.461  53.510  0.00  0.00     0.002 A 
ATOM     22  C   UNL d   1      53.629  32.082  53.806  0.00  0.00     0.025 A 
ENDBRANCH  16  17
ENDBRANCH   3  16
TORSDOF 4
ENDMDL
MODEL 6
REMARK VINA RESULT:      -8.0      1.530      3.858
REMARK  4 active torsions:
REMARK  status: ('A' for Active; 'I' for Inactive)
REMARK       I    between atoms: N_2  and  C_1 
REMARK    1  A    between atoms: O_3  and  C_1 
REMARK    2  A    between atoms: C_5  and  O_3 
REMARK    3  A    between atoms: O_8  and  C_7 
REMARK    4  A    between atoms: C_10  and  O_8 
ROOT
ATOM      1  C   UNL d   1      52.047  32.994  53.157  0.00  0.00     0.107 A 
ATOM      2  C   UNL d   1      52.405  33.249  53.856  0.00  0.00     0.050 A 
ATOM      3  C   UNL d   1      52.536  34.055  53.984  0.00  0.00     0.102 A 
ATOM      4  C   UNL d   1      51.952  34.352  52.715  0.00  0.00     0.004 A 
ATOM      5  C   UNL d   1      51.821  33.546  52.587  0.00  0.00     0.025 A 
ATOM      6  C   UNL d   1      52.310  34.606  53.413  0.00  0.00     0.025 A 
ENDROOT
BRANCH   1   7
ATOM      7  O   UNL d   1      51.916  32.188  53.029  0.00  0.00    -0.259 OA
BRANCH   7   8
ATOM      8  C   UNL d   1      52.524  31.689  52.796  0.00  0.00     0.378 C 
ATOM      9  N   UNL d   1      52.539  30.887  53.026  0.00  0.00    -0.247 N 
ATOM     10  C   UNL d   1      51.924  30.590  53.502  0.00  0.00     0.112 A 
ATOM     11  C   UNL d   1      53.158  30.394  52.784  0.00  0.00     0.112 A 
ATOM     12  C   UNL d   1      51.932  29.797  53.734  0.00  0.00     0.142 A 
ATOM     13  O   UNL d   1      52.546  29.297  53.497  0.00  0.00    -0.300 OA
ATOM     14  C   UNL d   1      53.165  29.601  53.017  0.00  0.00     0.142 A 
ATOM     15  O   UNL d   1      53.150  32.004  52.308  0.00  0.00    -0.237 OA
ENDBRANCH   7   8
ENDBRANCH   1   7
BRANCH   3  16
ATOM     16  O   UNL d   1      52.894  34.310  54.682  0.00  0.00    -0.307 OA
BRANCH  16  17
ATOM     17  C   UNL d   1      53.670  34.084  54.856  0.00  0.00     0.100 A 
ATOM     18  C   UNL d   1      54.303  34.475  54.500  0.00  0.00     0.025 A 
ATOM     19  C   UNL d   1      55.080  34.250  54.674  0.00  0.00     0.002 A 
ATOM     20  C   UNL d   1      55.222  33.633  55.203  0.00  0.00     0.000 A 
ATOM     21  C   UNL d   1      54.581  33.245  55.557  0.00  0.00     0.002 A 
ATOM     22  C   UNL d   1      53.813  33.468  55.385  0.00  0.00     0.025 A 
ENDBRANCH  16  17
ENDBRANCH   3  16
TORSDOF 4
ENDMDL
