MODEL 1
REMARK VINA RESULT:       3.3      0.000      0.000
REMARK  4 active torsions:
REMARK  status: ('A' for Active; 'I' for Inactive)
REMARK    1  A    between atoms: N_11  and  C_4 
REMARK    2  A    between atoms: C_22  and  N_15 
REMARK    3  A    between atoms: O_29  and  C_17 
REMARK    4  A    between atoms: C_21  and  C_22 
ROOT
ATOM      1  N   UNL d   1     -41.719-122.406 -52.861  0.00  0.00    -0.195 N 
ATOM      2  C   UNL d   1     -41.832-121.877 -53.459  0.00  0.00     0.168 A 
ATOM      3  C   UNL d   1     -42.065-122.122 -54.177  0.00  0.00     0.073 A 
ATOM      4  C   UNL d   1     -41.486-122.143 -52.150  0.00  0.00     0.153 A 
ATOM      5  N   UNL d   1     -42.074-123.428 -53.697  0.00  0.00    -0.143 NA
ATOM      6  C   UNL d   1     -42.186-122.899 -54.295  0.00  0.00     0.185 A 
ATOM      7  N   UNL d   1     -41.707-121.101 -53.330  0.00  0.00    -0.227 NA
ATOM      8  C   UNL d   1     -42.176-121.600 -54.769  0.00  0.00     0.007 A 
ATOM      9  N   UNL d   1     -42.423-123.163 -55.017  0.00  0.00    -0.225 NA
ATOM     10  C   UNL d   1     -41.361-121.375 -52.017  0.00  0.00     0.057 A 
ATOM     11  C   UNL d   1     -42.410-121.846 -55.488  0.00  0.00     0.019 A 
ATOM     12  C   UNL d   1     -41.474-120.847 -52.616  0.00  0.00     0.086 A 
ATOM     13  C   UNL d   1     -42.535-122.634 -55.615  0.00  0.00     0.083 A 
ATOM     14  C   UNL d   1     -42.051-120.820 -54.638  0.00  0.00     0.000 C 
ATOM     15  C   UNL d   1     -41.343-120.039 -52.478  0.00  0.00     0.021 C 
ATOM     16  C   UNL d   1     -42.768-122.885 -56.328  0.00  0.00     0.021 C 
ENDROOT
BRANCH   4  17
ATOM     17  N   UNL d   1     -41.372-122.694 -51.538  0.00  0.00    -0.286 N 
ATOM     18  C   UNL d   1     -41.244-123.508 -51.420  0.00  0.00     0.101 A 
ATOM     19  C   UNL d   1     -41.160-123.815 -50.659  0.00  0.00     0.100 A 
ATOM     20  N   UNL d   1     -41.206-123.299 -50.007  0.00  0.00    -0.300 N 
ATOM     21  C   UNL d   1     -41.332-122.498 -50.114  0.00  0.00     0.100 A 
ATOM     22  C   UNL d   1     -41.417-122.186 -50.881  0.00  0.00     0.101 A 
BRANCH  20  23
ATOM     23  C   UNL d   1     -41.123-123.600 -49.253  0.00  0.00     0.080 C 
BRANCH  23  24
ATOM     24  C   UNL d   1     -41.722-123.488 -48.677  0.00  0.00     0.020 A 
ATOM     25  C   UNL d   1     -41.567-123.081 -47.976  0.00  0.00     0.033 A 
ATOM     26  C   UNL d   1     -42.165-122.970 -47.404  0.00  0.00     0.162 A 
ATOM     27  F   UNL d   1     -42.006-122.561 -46.703  0.00  0.00    -0.202 F 
ATOM     28  C   UNL d   1     -42.927-123.276 -47.548  0.00  0.00     0.121 A 
ATOM     29  C   UNL d   1     -43.093-123.687 -48.249  0.00  0.00     0.027 A 
ATOM     30  C   UNL d   1     -42.497-123.796 -48.817  0.00  0.00     0.004 A 
BRANCH  28  31
ATOM     31  O   UNL d   1     -43.523-123.168 -46.983  0.00  0.00    -0.326 OA
ATOM     32  C   UNL d   1     -44.104-123.742 -46.871  0.00  0.00     0.181 C 
ENDBRANCH  28  31
ENDBRANCH  23  24
ENDBRANCH  20  23
ENDBRANCH   4  17
TORSDOF 4
ENDMDL
