MODEL 1
REMARK VINA RESULT:      -7.9      0.000      0.000
REMARK  4 active torsions:
REMARK  status: ('A' for Active; 'I' for Inactive)
REMARK    1  A    between atoms: C_6  and  C_1 
REMARK    2  A    between atoms: C_7  and  C_5 
REMARK    3  A    between atoms: O_15  and  C_12 
REMARK    4  A    between atoms: C_16  and  O_15 
ROOT
ATOM      1  C   UNL d   1      53.130  32.600  53.558  0.00  0.00     0.020 A 
ATOM      2  C   UNL d   1      52.620  32.160  53.063  0.00  0.00     0.004 A 
ATOM      3  C   UNL d   1      53.721  32.214  53.985  0.00  0.00     0.004 A 
ATOM      4  C   UNL d   1      53.314  30.953  53.441  0.00  0.00     0.100 A 
ATOM      5  C   UNL d   1      52.711  31.342  53.004  0.00  0.00     0.025 A 
ATOM      6  C   UNL d   1      53.812  31.397  53.927  0.00  0.00     0.025 A 
ENDROOT
BRANCH   1   7
ATOM      7  C   UNL d   1      53.040  33.421  53.618  0.00  0.00     0.105 A 
ATOM      8  C   UNL d   1      53.228  34.336  54.607  0.00  0.00     0.048 A 
ATOM      9  C   UNL d   1      52.997  34.912  54.111  0.00  0.00     0.169 A 
ATOM     10  N   UNL d   1      52.788  34.745  53.371  0.00  0.00    -0.142 NA
ATOM     11  N   UNL d   1      52.812  33.994  53.131  0.00  0.00    -0.148 NA
BRANCH   9  12
ATOM     12  C   UNL d   1      52.978  35.663  54.368  0.00  0.00     0.231 C 
ATOM     13  O   UNL d   1      52.307  35.959  54.661  0.00  0.00    -0.643 OA
ATOM     14  O   UNL d   1      53.659  36.126  54.329  0.00  0.00    -0.643 OA
ENDBRANCH   9  12
ENDBRANCH   1   7
BRANCH   4  15
ATOM     15  O   UNL d   1      53.400  30.127  53.377  0.00  0.00    -0.305 OA
BRANCH  15  16
ATOM     16  C   UNL d   1      53.304  29.656  54.050  0.00  0.00     0.123 C 
ATOM     17  C   UNL d   1      53.320  28.828  53.983  0.00  0.00     0.029 C 
ENDBRANCH  15  16
ENDBRANCH   4  15
TORSDOF 4
ENDMDL
MODEL 2
REMARK VINA RESULT:      -7.6      2.558      3.719
REMARK  4 active torsions:
REMARK  status: ('A' for Active; 'I' for Inactive)
REMARK    1  A    between atoms: C_6  and  C_1 
REMARK    2  A    between atoms: C_7  and  C_5 
REMARK    3  A    between atoms: O_15  and  C_12 
REMARK    4  A    between atoms: C_16  and  O_15 
ROOT
ATOM      1  C   UNL d   1      52.098  34.100  53.434  0.00  0.00     0.020 A 
ATOM      2  C   UNL d   1      52.182  34.432  52.671  0.00  0.00     0.004 A 
ATOM      3  C   UNL d   1      51.376  33.770  53.660  0.00  0.00     0.004 A 
ATOM      4  C   UNL d   1      50.810  34.091  52.385  0.00  0.00     0.100 A 
ATOM      5  C   UNL d   1      51.543  34.428  52.150  0.00  0.00     0.025 A 
ATOM      6  C   UNL d   1      50.737  33.766  53.140  0.00  0.00     0.025 A 
ENDROOT
BRANCH   1   7
ATOM      7  C   UNL d   1      52.738  34.102  53.958  0.00  0.00     0.105 A 
ATOM      8  C   UNL d   1      53.709  33.208  54.291  0.00  0.00     0.048 A 
ATOM      9  C   UNL d   1      54.009  33.734  54.806  0.00  0.00     0.169 A 
ATOM     10  N   UNL d   1      53.676  34.441  54.898  0.00  0.00    -0.142 NA
ATOM     11  N   UNL d   1      53.039  34.619  54.469  0.00  0.00    -0.148 NA
BRANCH   9  12
ATOM     12  C   UNL d   1      54.651  33.540  55.230  0.00  0.00     0.231 C 
ATOM     13  O   UNL d   1      54.642  32.888  55.678  0.00  0.00    -0.643 OA
ATOM     14  O   UNL d   1      55.321  34.019  55.201  0.00  0.00    -0.643 OA
ENDBRANCH   9  12
ENDBRANCH   1   7
BRANCH   4  15
ATOM     15  O   UNL d   1      50.168  34.091  51.853  0.00  0.00    -0.305 OA
BRANCH  15  16
ATOM     16  C   UNL d   1      49.526  34.591  51.994  0.00  0.00     0.123 C 
ATOM     17  C   UNL d   1      48.917  34.654  51.431  0.00  0.00     0.029 C 
ENDBRANCH  15  16
ENDBRANCH   4  15
TORSDOF 4
ENDMDL
MODEL 3
REMARK VINA RESULT:      -7.4      1.390      4.497
REMARK  4 active torsions:
REMARK  status: ('A' for Active; 'I' for Inactive)
REMARK    1  A    between atoms: C_6  and  C_1 
REMARK    2  A    between atoms: C_7  and  C_5 
REMARK    3  A    between atoms: O_15  and  C_12 
REMARK    4  A    between atoms: C_16  and  O_15 
ROOT
ATOM      1  C   UNL d   1      52.923  32.557  53.312  0.00  0.00     0.020 A 
ATOM      2  C   UNL d   1      52.233  33.017  53.206  0.00  0.00     0.004 A 
ATOM      3  C   UNL d   1      53.630  32.922  53.531  0.00  0.00     0.004 A 
ATOM      4  C   UNL d   1      52.985  34.201  53.543  0.00  0.00     0.100 A 
ATOM      5  C   UNL d   1      52.264  33.833  53.320  0.00  0.00     0.025 A 
ATOM      6  C   UNL d   1      53.661  33.738  53.646  0.00  0.00     0.025 A 
ENDROOT
BRANCH   1   7
ATOM      7  C   UNL d   1      52.895  31.738  53.199  0.00  0.00     0.105 A 
ATOM      8  C   UNL d   1      53.006  30.652  54.012  0.00  0.00     0.048 A 
ATOM      9  C   UNL d   1      52.903  30.177  53.383  0.00  0.00     0.169 A 
ATOM     10  N   UNL d   1      52.798  30.480  52.664  0.00  0.00    -0.142 NA
ATOM     11  N   UNL d   1      52.795  31.264  52.580  0.00  0.00    -0.148 NA
BRANCH   9  12
ATOM     12  C   UNL d   1      52.909  29.390  53.485  0.00  0.00     0.231 C 
ATOM     13  O   UNL d   1      52.471  28.931  53.014  0.00  0.00    -0.643 OA
ATOM     14  O   UNL d   1      53.371  29.058  54.082  0.00  0.00    -0.643 OA
ENDBRANCH   9  12
ENDBRANCH   1   7
BRANCH   4  15
ATOM     15  O   UNL d   1      53.007  35.026  53.656  0.00  0.00    -0.305 OA
BRANCH  15  16
ATOM     16  C   UNL d   1      53.041  35.328  54.424  0.00  0.00     0.123 C 
ATOM     17  C   UNL d   1      53.073  36.150  54.546  0.00  0.00     0.029 C 
ENDBRANCH  15  16
ENDBRANCH   4  15
TORSDOF 4
ENDMDL
MODEL 4
REMARK VINA RESULT:      -6.9      2.731      3.519
REMARK  4 active torsions:
REMARK  status: ('A' for Active; 'I' for Inactive)
REMARK    1  A    between atoms: C_6  and  C_1 
REMARK    2  A    between atoms: C_7  and  C_5 
REMARK    3  A    between atoms: O_15  and  C_12 
REMARK    4  A    between atoms: C_16  and  O_15 
ROOT
ATOM      1  C   UNL d   1      51.989  33.962  52.907  0.00  0.00     0.020 A 
ATOM      2  C   UNL d   1      52.215  33.163  53.013  0.00  0.00     0.004 A 
ATOM      3  C   UNL d   1      52.465  34.566  53.205  0.00  0.00     0.004 A 
ATOM      4  C   UNL d   1      53.395  33.604  53.717  0.00  0.00     0.100 A 
ATOM      5  C   UNL d   1      52.913  32.986  53.415  0.00  0.00     0.025 A 
ATOM      6  C   UNL d   1      53.163  34.389  53.607  0.00  0.00     0.025 A 
ENDROOT
BRANCH   1   7
ATOM      7  C   UNL d   1      51.289  34.142  52.503  0.00  0.00     0.105 A 
ATOM      8  C   UNL d   1      50.041  34.536  52.877  0.00  0.00     0.048 A 
ATOM      9  C   UNL d   1      49.823  34.551  52.113  0.00  0.00     0.169 A 
ATOM     10  N   UNL d   1      50.335  34.362  51.545  0.00  0.00    -0.142 NA
ATOM     11  N   UNL d   1      51.069  34.158  51.749  0.00  0.00    -0.148 NA
BRANCH   9  12
ATOM     12  C   UNL d   1      49.080  34.758  51.925  0.00  0.00     0.231 C 
ATOM     13  O   UNL d   1      48.645  35.165  52.443  0.00  0.00    -0.643 OA
ATOM     14  O   UNL d   1      48.770  34.547  51.191  0.00  0.00    -0.643 OA
ENDBRANCH   9  12
ENDBRANCH   1   7
BRANCH   4  15
ATOM     15  O   UNL d   1      54.098  33.417  54.122  0.00  0.00    -0.305 OA
BRANCH  15  16
ATOM     16  C   UNL d   1      54.157  33.583  54.930  0.00  0.00     0.123 C 
ATOM     17  C   UNL d   1      54.882  33.481  55.323  0.00  0.00     0.029 C 
ENDBRANCH  15  16
ENDBRANCH   4  15
TORSDOF 4
ENDMDL
MODEL 5
REMARK VINA RESULT:      -6.6      2.054      4.511
REMARK  4 active torsions:
REMARK  status: ('A' for Active; 'I' for Inactive)
REMARK    1  A    between atoms: C_6  and  C_1 
REMARK    2  A    between atoms: C_7  and  C_5 
REMARK    3  A    between atoms: O_15  and  C_12 
REMARK    4  A    between atoms: C_16  and  O_15 
ROOT
ATOM      1  C   UNL d   1      52.001  32.972  53.140  0.00  0.00     0.020 A 
ATOM      2  C   UNL d   1      52.273  33.697  52.825  0.00  0.00     0.004 A 
ATOM      3  C   UNL d   1      51.200  32.874  53.314  0.00  0.00     0.004 A 
ATOM      4  C   UNL d   1      50.924  34.207  52.868  0.00  0.00     0.100 A 
ATOM      5  C   UNL d   1      51.738  34.310  52.690  0.00  0.00     0.025 A 
ATOM      6  C   UNL d   1      50.666  33.487  53.179  0.00  0.00     0.025 A 
ENDROOT
BRANCH   1   7
ATOM      7  C   UNL d   1      52.536  32.355  53.276  0.00  0.00     0.105 A 
ATOM      8  C   UNL d   1      52.492  31.001  53.142  0.00  0.00     0.048 A 
ATOM      9  C   UNL d   1      53.241  30.956  53.405  0.00  0.00     0.169 A 
ATOM     10  N   UNL d   1      53.637  31.608  53.603  0.00  0.00    -0.142 NA
ATOM     11  N   UNL d   1      53.276  32.305  53.536  0.00  0.00    -0.148 NA
BRANCH   9  12
ATOM     12  C   UNL d   1      53.589  30.246  53.467  0.00  0.00     0.231 C 
ATOM     13  O   UNL d   1      54.310  30.136  53.163  0.00  0.00    -0.643 OA
ATOM     14  O   UNL d   1      53.196  29.629  53.847  0.00  0.00    -0.643 OA
ENDBRANCH   9  12
ENDBRANCH   1   7
BRANCH   4  15
ATOM     15  O   UNL d   1      50.390  34.831  52.729  0.00  0.00    -0.305 OA
BRANCH  15  16
ATOM     16  C   UNL d   1      49.578  34.682  52.750  0.00  0.00     0.123 C 
ATOM     17  C   UNL d   1      49.038  35.310  52.683  0.00  0.00     0.029 C 
ENDBRANCH  15  16
ENDBRANCH   4  15
TORSDOF 4
ENDMDL
MODEL 6
REMARK VINA RESULT:      -5.4      9.918     10.239
REMARK  4 active torsions:
REMARK  status: ('A' for Active; 'I' for Inactive)
REMARK    1  A    between atoms: C_6  and  C_1 
REMARK    2  A    between atoms: C_7  and  C_5 
REMARK    3  A    between atoms: O_15  and  C_12 
REMARK    4  A    between atoms: C_16  and  O_15 
ROOT
ATOM      1  C   UNL d   1      45.187  28.673  58.037  0.00  0.00     0.020 A 
ATOM      2  C   UNL d   1      45.023  28.779  57.223  0.00  0.00     0.004 A 
ATOM      3  C   UNL d   1      45.399  27.927  58.318  0.00  0.00     0.004 A 
ATOM      4  C   UNL d   1      45.292  27.379  56.999  0.00  0.00     0.100 A 
ATOM      5  C   UNL d   1      45.075  28.137  56.708  0.00  0.00     0.025 A 
ATOM      6  C   UNL d   1      45.452  27.285  57.804  0.00  0.00     0.025 A 
ENDROOT
BRANCH   1   7
ATOM      7  C   UNL d   1      45.135  29.316  58.555  0.00  0.00     0.105 A 
ATOM      8  C   UNL d   1      44.749  29.474  59.851  0.00  0.00     0.048 A 
ATOM      9  C   UNL d   1      44.904  30.252  59.797  0.00  0.00     0.169 A 
ATOM     10  N   UNL d   1      45.174  30.561  59.125  0.00  0.00    -0.142 NA
ATOM     11  N   UNL d   1      45.287  30.085  58.506  0.00  0.00    -0.148 NA
BRANCH   9  12
ATOM     12  C   UNL d   1      44.785  30.717  60.428  0.00  0.00     0.231 C 
ATOM     13  O   UNL d   1      44.551  31.464  60.325  0.00  0.00    -0.643 OA
ATOM     14  O   UNL d   1      44.906  30.416  61.186  0.00  0.00    -0.643 OA
ENDBRANCH   9  12
ENDBRANCH   1   7
BRANCH   4  15
ATOM     15  O   UNL d   1      45.343  26.735  56.473  0.00  0.00    -0.305 OA
BRANCH  15  16
ATOM     16  C   UNL d   1      44.804  26.112  56.542  0.00  0.00     0.123 C 
ATOM     17  C   UNL d   1      44.841  25.472  56.014  0.00  0.00     0.029 C 
ENDBRANCH  15  16
ENDBRANCH   4  15
TORSDOF 4
ENDMDL
MODEL 7
REMARK VINA RESULT:      -4.9      9.981     11.242
REMARK  4 active torsions:
REMARK  status: ('A' for Active; 'I' for Inactive)
REMARK    1  A    between atoms: C_6  and  C_1 
REMARK    2  A    between atoms: C_7  and  C_5 
REMARK    3  A    between atoms: O_15  and  C_12 
REMARK    4  A    between atoms: C_16  and  O_15 
ROOT
ATOM      1  C   UNL d   1      45.106  27.978  57.497  0.00  0.00     0.020 A 
ATOM      2  C   UNL d   1      44.936  28.685  57.083  0.00  0.00     0.004 A 
ATOM      3  C   UNL d   1      45.247  28.003  58.310  0.00  0.00     0.004 A 
ATOM      4  C   UNL d   1      45.055  29.422  58.317  0.00  0.00     0.100 A 
ATOM      5  C   UNL d   1      44.911  29.401  57.490  0.00  0.00     0.025 A 
ATOM      6  C   UNL d   1      45.222  28.720  58.716  0.00  0.00     0.025 A 
ENDROOT
BRANCH   1   7
ATOM      7  C   UNL d   1      45.132  27.258  57.091  0.00  0.00     0.105 A 
ATOM      8  C   UNL d   1      44.323  26.165  57.024  0.00  0.00     0.048 A 
ATOM      9  C   UNL d   1      44.830  25.827  56.514  0.00  0.00     0.169 A 
ATOM     10  N   UNL d   1      45.486  26.202  56.292  0.00  0.00    -0.142 NA
ATOM     11  N   UNL d   1      45.630  26.920  56.586  0.00  0.00    -0.148 NA
BRANCH   9  12
ATOM     12  C   UNL d   1      44.670  25.105  56.227  0.00  0.00     0.231 C 
ATOM     13  O   UNL d   1      44.406  24.541  56.713  0.00  0.00    -0.643 OA
ATOM     14  O   UNL d   1      44.780  24.949  55.425  0.00  0.00    -0.643 OA
ENDBRANCH   9  12
ENDBRANCH   1   7
BRANCH   4  15
ATOM     15  O   UNL d   1      45.028  30.150  58.721  0.00  0.00    -0.305 OA
BRANCH  15  16
ATOM     16  C   UNL d   1      44.763  30.170  59.503  0.00  0.00     0.123 C 
ATOM     17  C   UNL d   1      44.709  30.895  59.905  0.00  0.00     0.029 C 
ENDBRANCH  15  16
ENDBRANCH   4  15
TORSDOF 4
ENDMDL
