MODEL 1
REMARK VINA RESULT:      25.5      0.000      0.000
REMARK  4 active torsions:
REMARK  status: ('A' for Active; 'I' for Inactive)
REMARK    1  A    between atoms: C_2  and  S_1 
REMARK    2  A    between atoms: N_9  and  S_1 
REMARK    3  A    between atoms: C_18  and  N_9 
REMARK    4  A    between atoms: C_19  and  N_9 
ROOT
ATOM      1  C   UNL d   1     -51.613  25.684  33.311  0.00  0.00     0.104 A 
ATOM      2  C   UNL d   1     -53.745  23.937  33.311  0.00  0.00     0.225 A 
ATOM      3  S   UNL d   1     -53.955  25.005  33.314  0.00  0.00    -0.046 SA
ATOM      4  C   UNL d   1     -52.663  24.707  33.311  0.00  0.00     0.010 A 
ATOM      5  C   UNL d   1     -53.225  25.341  33.313  0.00  0.00     0.033 A 
ATOM      6  C   UNL d   1     -51.857  24.874  33.310  0.00  0.00     0.013 A 
ATOM      7  C   UNL d   1     -52.920  23.932  33.310  0.00  0.00     0.046 A 
ATOM      8  C   UNL d   1     -52.152  26.292  33.313  0.00  0.00     0.013 A 
ATOM      9  C   UNL d   1     -52.957  26.115  33.314  0.00  0.00     0.007 A 
ATOM     10  O   UNL d   1     -54.119  23.190  33.310  0.00  0.00    -0.279 OA
ATOM     11  C   UNL d   1     -51.295  24.240  33.307  0.00  0.00     0.001 A 
ATOM     12  C   UNL d   1     -52.358  23.298  33.307  0.00  0.00     0.004 A 
ATOM     13  C   UNL d   1     -51.563  23.465  33.306  0.00  0.00     0.000 A 
ENDROOT
BRANCH   1  14
ATOM     14  S   UNL d   1     -50.791  25.874  33.310  0.00  0.00     0.271 S 
ATOM     15  O   UNL d   1     -51.009  26.673  33.306  0.00  0.00    -0.200 OA
ATOM     16  O   UNL d   1     -50.592  25.042  33.314  0.00  0.00    -0.200 OA
BRANCH  14  17
ATOM     17  N   UNL d   1     -49.961  26.054  33.309  0.00  0.00    -0.229 N 
BRANCH  17  18
ATOM     18  C   UNL d   1     -49.454  25.396  33.306  0.00  0.00     0.092 C 
ATOM     19  C   UNL d   1     -49.177  25.035  33.979  0.00  0.00     0.021 C 
ENDBRANCH  17  18
BRANCH  17  20
ATOM     20  C   UNL d   1     -49.681  26.818  33.311  0.00  0.00     0.092 C 
ATOM     21  C   UNL d   1     -49.395  27.151  34.015  0.00  0.00     0.021 C 
ENDBRANCH  17  20
ENDBRANCH  14  17
ENDBRANCH   1  14
TORSDOF 4
ENDMDL
