MODEL 1
REMARK VINA RESULT:       2.6      0.000      0.000
REMARK  5 active torsions:
REMARK  status: ('A' for Active; 'I' for Inactive)
REMARK    1  A    between atoms: S_14  and  C_7 
REMARK       I    between atoms: N_10  and  C_13 
REMARK    2  A    between atoms: C_26  and  C_11 
REMARK    3  A    between atoms: C_22  and  N_12 
REMARK    4  A    between atoms: C_13  and  C_17 
REMARK    5  A    between atoms: C_17  and  S_14 
ROOT
ATOM      1  N   UNL d   1     -42.040-122.980 -55.251  0.00  0.00    -0.224 N 
ATOM      2  N   UNL d   1     -41.955-121.550 -55.135  0.00  0.00    -0.241 N 
ATOM      3  C   UNL d   1     -42.121-122.220 -55.586  0.00  0.00     0.343 A 
ATOM      4  C   UNL d   1     -41.708-121.639 -54.349  0.00  0.00     0.160 A 
ATOM      5  C   UNL d   1     -41.793-123.063 -54.467  0.00  0.00     0.273 A 
ATOM      6  C   UNL d   1     -41.628-122.392 -54.017  0.00  0.00     0.115 A 
ATOM      7  C   UNL d   1     -41.382-122.474 -53.233  0.00  0.00     0.120 A 
ATOM      8  N   UNL d   1     -41.540-120.965 -53.891  0.00  0.00    -0.209 NA
ATOM      9  N   UNL d   1     -41.215-121.808 -52.781  0.00  0.00    -0.220 NA
ATOM     10  C   UNL d   1     -41.294-121.047 -53.108  0.00  0.00     0.165 A 
ATOM     11  O   UNL d   1     -42.368-122.140 -56.373  0.00  0.00    -0.245 OA
ATOM     12  O   UNL d   1     -41.714-123.817 -54.139  0.00  0.00    -0.266 OA
ATOM     13  C   UNL d   1     -42.206-123.644 -55.705  0.00  0.00     0.107 C 
ATOM     14  C   UNL d   1     -42.036-120.797 -55.467  0.00  0.00     0.105 C 
ENDROOT
BRANCH   7  15
ATOM     15  S   UNL d   1     -41.302-123.228 -52.905  0.00  0.00    -0.062 SA
BRANCH  15  16
ATOM     16  C   UNL d   1     -41.226-123.318 -52.086  0.00  0.00     0.098 C 
BRANCH  16  17
ATOM     17  C   UNL d   1     -41.875-123.544 -51.631  0.00  0.00     0.272 C 
ATOM     18  N   UNL d   1     -41.851-123.505 -50.811  0.00  0.00    -0.269 N 
ATOM     19  C   UNL d   1     -41.160-123.233 -50.437  0.00  0.00     0.102 A 
ATOM     20  C   UNL d   1     -42.496-123.730 -50.363  0.00  0.00     0.102 A 
ATOM     21  C   UNL d   1     -41.141-123.196 -49.616  0.00  0.00     0.100 A 
ATOM     22  N   UNL d   1     -41.788-123.422 -49.164  0.00  0.00    -0.301 N 
ATOM     23  C   UNL d   1     -42.472-123.691 -49.544  0.00  0.00     0.100 A 
ATOM     24  O   UNL d   1     -42.560-123.814 -52.006  0.00  0.00    -0.266 OA
BRANCH  22  25
ATOM     25  C   UNL d   1     -41.764-123.383 -48.345  0.00  0.00     0.064 A 
ATOM     26  C   UNL d   1     -42.297-122.918 -47.929  0.00  0.00     0.018 A 
ATOM     27  C   UNL d   1     -42.276-122.876 -47.103  0.00  0.00     0.002 A 
ATOM     28  C   UNL d   1     -41.709-123.310 -46.686  0.00  0.00     0.000 A 
ATOM     29  C   UNL d   1     -41.165-123.785 -47.109  0.00  0.00     0.002 A 
ATOM     30  C   UNL d   1     -41.200-123.814 -47.922  0.00  0.00     0.018 A 
ENDBRANCH  22  25
ENDBRANCH  16  17
ENDBRANCH  15  16
ENDBRANCH   7  15
BRANCH  10  31
ATOM     31  C   UNL d   1     -41.127-120.378 -52.651  0.00  0.00     0.039 C 
ATOM     32  C   UNL d   1     -41.386-120.333 -51.869  0.00  0.00     0.003 C 
ENDBRANCH  10  31
TORSDOF 5
ENDMDL
MODEL 2
REMARK VINA RESULT:       3.3      1.785      6.071
REMARK  5 active torsions:
REMARK  status: ('A' for Active; 'I' for Inactive)
REMARK    1  A    between atoms: S_14  and  C_7 
REMARK       I    between atoms: N_10  and  C_13 
REMARK    2  A    between atoms: C_26  and  C_11 
REMARK    3  A    between atoms: C_22  and  N_12 
REMARK    4  A    between atoms: C_13  and  C_17 
REMARK    5  A    between atoms: C_17  and  S_14 
ROOT
ATOM      1  N   UNL d   1     -41.841-123.540 -47.906  0.00  0.00    -0.224 N 
ATOM      2  N   UNL d   1     -43.275-123.442 -47.875  0.00  0.00    -0.241 N 
ATOM      3  C   UNL d   1     -42.563-123.600 -47.491  0.00  0.00     0.343 A 
ATOM      4  C   UNL d   1     -43.267-123.224 -48.675  0.00  0.00     0.160 A 
ATOM      5  C   UNL d   1     -41.839-123.323 -48.703  0.00  0.00     0.273 A 
ATOM      6  C   UNL d   1     -42.552-123.165 -49.087  0.00  0.00     0.115 A 
ATOM      7  C   UNL d   1     -42.549-122.948 -49.883  0.00  0.00     0.120 A 
ATOM      8  N   UNL d   1     -43.983-123.064 -49.066  0.00  0.00    -0.209 NA
ATOM      9  N   UNL d   1     -43.258-122.790 -50.270  0.00  0.00    -0.220 NA
ATOM     10  C   UNL d   1     -43.981-122.847 -49.862  0.00  0.00     0.165 A 
ATOM     11  O   UNL d   1     -42.563-123.817 -46.691  0.00  0.00    -0.245 OA
ATOM     12  O   UNL d   1     -41.123-123.265 -49.110  0.00  0.00    -0.266 OA
ATOM     13  C   UNL d   1     -41.136-123.699 -47.518  0.00  0.00     0.107 C 
ATOM     14  C   UNL d   1     -43.990-123.500 -47.464  0.00  0.00     0.105 C 
ENDROOT
BRANCH   7  15
ATOM     15  S   UNL d   1     -41.833-122.890 -50.291  0.00  0.00    -0.062 SA
BRANCH  15  16
ATOM     16  C   UNL d   1     -41.826-122.897 -51.118  0.00  0.00     0.098 C 
BRANCH  16  17
ATOM     17  C   UNL d   1     -41.526-122.252 -51.535  0.00  0.00     0.272 C 
ATOM     18  N   UNL d   1     -41.617-122.195 -52.349  0.00  0.00    -0.269 N 
ATOM     19  C   UNL d   1     -42.019-122.798 -52.756  0.00  0.00     0.102 A 
ATOM     20  C   UNL d   1     -41.319-121.555 -52.759  0.00  0.00     0.102 A 
ATOM     21  C   UNL d   1     -42.108-122.736 -53.571  0.00  0.00     0.100 A 
ATOM     22  N   UNL d   1     -41.809-122.094 -53.985  0.00  0.00    -0.301 N 
ATOM     23  C   UNL d   1     -41.410-121.498 -53.573  0.00  0.00     0.100 A 
ATOM     24  O   UNL d   1     -41.126-121.654 -51.127  0.00  0.00    -0.266 OA
BRANCH  22  25
ATOM     25  C   UNL d   1     -41.901-122.037 -54.799  0.00  0.00     0.064 A 
ATOM     26  C   UNL d   1     -42.623-121.828 -55.128  0.00  0.00     0.018 A 
ATOM     27  C   UNL d   1     -42.720-121.770 -55.948  0.00  0.00     0.002 A 
ATOM     28  C   UNL d   1     -42.079-121.924 -56.446  0.00  0.00     0.000 A 
ATOM     29  C   UNL d   1     -41.342-122.137 -56.112  0.00  0.00     0.002 A 
ATOM     30  C   UNL d   1     -41.264-122.190 -55.303  0.00  0.00     0.018 A 
ENDBRANCH  22  25
ENDBRANCH  16  17
ENDBRANCH  15  16
ENDBRANCH   7  15
BRANCH  10  31
ATOM     31  C   UNL d   1     -44.693-122.688 -50.253  0.00  0.00     0.039 C 
ATOM     32  C   UNL d   1     -44.788-121.983 -50.672  0.00  0.00     0.003 C 
ENDBRANCH  10  31
TORSDOF 5
ENDMDL
