MODEL 1
REMARK VINA RESULT:      -1.8      0.000      0.000
REMARK  0 active torsions:
REMARK  status: ('A' for Active; 'I' for Inactive)
ROOT
ATOM      1  N   UNL d   1      46.615 -18.761  42.017  0.00  0.00    -0.152 NA
ATOM      2  C   UNL d   1      46.593 -18.474  42.785  0.00  0.00     0.284 A 
ATOM      3  C   UNL d   1      46.626 -19.586  41.883  0.00  0.00     0.371 A 
ATOM      4  C   UNL d   1      46.583 -18.996  43.426  0.00  0.00     0.076 A 
ATOM      5  N   UNL d   1      46.615 -20.108  42.524  0.00  0.00    -0.191 NA
ATOM      6  C   UNL d   1      46.593 -19.811  43.298  0.00  0.00     0.091 A 
ATOM      7  O   UNL d   1      46.583 -17.659  42.918  0.00  0.00    -0.265 OA
ATOM      8  O   UNL d   1      46.647 -19.878  41.111  0.00  0.00    -0.242 OA
ATOM      9  C   UNL d   1      46.561 -18.699  44.195  0.00  0.00     0.006 A 
ATOM     10  C   UNL d   1      46.582 -20.330  43.940  0.00  0.00     0.019 A 
ATOM     11  C   UNL d   1      46.550 -19.217  44.836  0.00  0.00     0.000 A 
ATOM     12  C   UNL d   1      46.561 -20.032  44.709  0.00  0.00     0.002 A 
ENDROOT
TORSDOF 0
ENDMDL
MODEL 2
REMARK VINA RESULT:      -0.2      5.696      6.358
REMARK  0 active torsions:
REMARK  status: ('A' for Active; 'I' for Inactive)
ROOT
ATOM      1  N   UNL d   1      45.454 -12.086  43.313  0.00  0.00    -0.152 NA
ATOM      2  C   UNL d   1      45.835 -12.475  43.926  0.00  0.00     0.284 A 
ATOM      3  C   UNL d   1      44.842 -12.470  42.895  0.00  0.00     0.371 A 
ATOM      4  C   UNL d   1      45.616 -13.246  44.130  0.00  0.00     0.076 A 
ATOM      5  N   UNL d   1      44.623 -13.241  43.100  0.00  0.00    -0.191 NA
ATOM      6  C   UNL d   1      45.012 -13.630  43.720  0.00  0.00     0.091 A 
ATOM      7  O   UNL d   1      46.441 -12.095  44.339  0.00  0.00    -0.265 OA
ATOM      8  O   UNL d   1      44.456 -12.080  42.277  0.00  0.00    -0.242 OA
ATOM      9  C   UNL d   1      46.005 -13.631  44.748  0.00  0.00     0.006 A 
ATOM     10  C   UNL d   1      44.796 -14.398  43.927  0.00  0.00     0.019 A 
ATOM     11  C   UNL d   1      45.788 -14.399  44.955  0.00  0.00     0.000 A 
ATOM     12  C   UNL d   1      45.184 -14.783  44.544  0.00  0.00     0.002 A 
ENDROOT
TORSDOF 0
ENDMDL
MODEL 3
REMARK VINA RESULT:       0.1      5.458      6.427
REMARK  0 active torsions:
REMARK  status: ('A' for Active; 'I' for Inactive)
ROOT
ATOM      1  N   UNL d   1      45.586 -14.300  44.952  0.00  0.00    -0.152 NA
ATOM      2  C   UNL d   1      45.917 -13.613  44.651  0.00  0.00     0.284 A 
ATOM      3  C   UNL d   1      44.857 -14.574  44.653  0.00  0.00     0.371 A 
ATOM      4  C   UNL d   1      45.532 -13.192  44.052  0.00  0.00     0.076 A 
ATOM      5  N   UNL d   1      44.472 -14.154  44.054  0.00  0.00    -0.191 NA
ATOM      6  C   UNL d   1      44.812 -13.460  43.753  0.00  0.00     0.091 A 
ATOM      7  O   UNL d   1      46.639 -13.341  44.948  0.00  0.00    -0.265 OA
ATOM      8  O   UNL d   1      44.521 -15.266  44.955  0.00  0.00    -0.242 OA
ATOM      9  C   UNL d   1      45.872 -12.502  43.755  0.00  0.00     0.006 A 
ATOM     10  C   UNL d   1      44.430 -13.038  43.156  0.00  0.00     0.019 A 
ATOM     11  C   UNL d   1      45.491 -12.080  43.157  0.00  0.00     0.000 A 
ATOM     12  C   UNL d   1      44.770 -12.348  42.858  0.00  0.00     0.002 A 
ENDROOT
TORSDOF 0
ENDMDL
