MODEL 1
REMARK VINA RESULT:      62.8      0.000      0.000
REMARK  7 active torsions:
REMARK  status: ('A' for Active; 'I' for Inactive)
REMARK    1  A    between atoms: C_12  and  N_1 
REMARK    2  A    between atoms: C_2  and  N_6 
REMARK    3  A    between atoms: C_9  and  C_5 
REMARK       I    between atoms: N_6  and  C_9 
REMARK    4  A    between atoms: S_15  and  C_7 
REMARK    5  A    between atoms: C_14  and  C_20 
REMARK       I    between atoms: N_21  and  C_14 
REMARK    6  A    between atoms: C_20  and  S_15 
REMARK    7  A    between atoms: O_22  and  C_18 
ROOT
ATOM      1  N   UNL d   1     -51.518  25.831  33.853  0.00  0.00    -0.271 N 
ATOM      2  C   UNL d   1     -51.779  26.536  33.682  0.00  0.00     0.265 A 
ATOM      3  C   UNL d   1     -50.687  26.664  34.284  0.00  0.00     0.080 A 
ATOM      4  C   UNL d   1     -50.842  25.910  34.226  0.00  0.00     0.088 A 
ATOM      5  C   UNL d   1     -51.266  27.060  33.947  0.00  0.00     0.067 A 
ATOM      6  O   UNL d   1     -52.443  26.700  33.306  0.00  0.00    -0.267 OA
ENDROOT
BRANCH   3   7
ATOM      7  C   UNL d   1     -50.065  26.983  34.617  0.00  0.00     0.283 C 
ATOM      8  N   UNL d   1     -49.655  27.522  34.236  0.00  0.00    -0.181 NA
ATOM      9  O   UNL d   1     -49.851  26.765  35.332  0.00  0.00    -0.265 OA
BRANCH   8  10
ATOM     10  C   UNL d   1     -49.031  27.843  34.566  0.00  0.00     0.219 A 
ATOM     11  S   UNL d   1     -48.833  28.595  34.538  0.00  0.00    -0.019 SA
ATOM     12  C   UNL d   1     -48.181  28.684  34.934  0.00  0.00     0.165 A 
ATOM     13  N   UNL d   1     -47.959  27.995  35.216  0.00  0.00    -0.133 NA
ATOM     14  N   UNL d   1     -48.495  27.466  34.984  0.00  0.00    -0.120 NA
BRANCH  12  15
ATOM     15  S   UNL d   1     -47.543  30.270  35.016  0.00  0.00    -0.054 SA
BRANCH  15  16
ATOM     16  C   UNL d   1     -48.054  30.928  35.002  0.00  0.00     0.100 C 
BRANCH  16  17
ATOM     17  C   UNL d   1     -47.949  31.525  34.426  0.00  0.00     0.286 C 
ATOM     18  O   UNL d   1     -47.319  31.472  33.873  0.00  0.00    -0.265 OA
ATOM     19  N   UNL d   1     -48.476  32.177  34.404  0.00  0.00    -0.204 NA
ATOM     20  C   UNL d   1     -48.362  32.768  33.826  0.00  0.00     0.123 C 
ENDBRANCH  16  17
ENDBRANCH  15  16
ENDBRANCH  12  15
ENDBRANCH   8  10
ENDBRANCH   3   7
BRANCH   1  21
ATOM     21  C   UNL d   1     -51.896  25.105  33.671  0.00  0.00     0.089 A 
ATOM     22  C   UNL d   1     -51.458  24.392  33.673  0.00  0.00     0.110 A 
ATOM     23  C   UNL d   1     -51.825  23.678  33.494  0.00  0.00     0.026 A 
ATOM     24  C   UNL d   1     -52.643  23.669  33.311  0.00  0.00     0.002 A 
ATOM     25  C   UNL d   1     -53.084  24.366  33.306  0.00  0.00     0.002 A 
ATOM     26  C   UNL d   1     -52.711  25.098  33.488  0.00  0.00     0.020 A 
BRANCH  22  27
ATOM     27  O   UNL d   1     -50.646  24.410  33.856  0.00  0.00    -0.327 OA
ATOM     28  C   UNL d   1     -50.094  24.114  33.306  0.00  0.00     0.181 C 
ENDBRANCH  22  27
ENDBRANCH   1  21
TORSDOF 7
ENDMDL
MODEL 2
REMARK VINA RESULT:      65.4      1.284      6.781
REMARK  7 active torsions:
REMARK  status: ('A' for Active; 'I' for Inactive)
REMARK    1  A    between atoms: C_12  and  N_1 
REMARK    2  A    between atoms: C_2  and  N_6 
REMARK    3  A    between atoms: C_9  and  C_5 
REMARK       I    between atoms: N_6  and  C_9 
REMARK    4  A    between atoms: S_15  and  C_7 
REMARK    5  A    between atoms: C_14  and  C_20 
REMARK       I    between atoms: N_21  and  C_14 
REMARK    6  A    between atoms: C_20  and  S_15 
REMARK    7  A    between atoms: O_22  and  C_18 
ROOT
ATOM      1  N   UNL d   1     -47.407  31.628  34.923  0.00  0.00    -0.271 N 
ATOM      2  C   UNL d   1     -47.020  31.593  35.589  0.00  0.00     0.265 A 
ATOM      3  C   UNL d   1     -47.579  30.486  35.410  0.00  0.00     0.080 A 
ATOM      4  C   UNL d   1     -47.754  30.942  34.812  0.00  0.00     0.088 A 
ATOM      5  C   UNL d   1     -47.122  30.884  35.897  0.00  0.00     0.067 A 
ATOM      6  O   UNL d   1     -46.595  32.168  35.902  0.00  0.00    -0.267 OA
ENDROOT
BRANCH   3   7
ATOM      7  C   UNL d   1     -47.813  29.755  35.516  0.00  0.00     0.283 C 
ATOM      8  N   UNL d   1     -47.944  29.298  34.901  0.00  0.00    -0.181 NA
ATOM      9  O   UNL d   1     -47.916  29.479  36.235  0.00  0.00    -0.265 OA
BRANCH   8  10
ATOM     10  C   UNL d   1     -48.178  28.566  35.003  0.00  0.00     0.219 A 
ATOM     11  S   UNL d   1     -48.862  28.268  34.783  0.00  0.00    -0.019 SA
ATOM     12  C   UNL d   1     -48.876  27.527  34.985  0.00  0.00     0.165 A 
ATOM     13  N   UNL d   1     -48.204  27.347  35.332  0.00  0.00    -0.133 NA
ATOM     14  N   UNL d   1     -47.765  28.002  35.343  0.00  0.00    -0.120 NA
BRANCH  12  15
ATOM     15  S   UNL d   1     -50.295  26.651  34.602  0.00  0.00    -0.054 SA
BRANCH  15  16
ATOM     16  C   UNL d   1     -50.535  26.571  33.808  0.00  0.00     0.100 C 
BRANCH  16  17
ATOM     17  C   UNL d   1     -51.284  26.246  33.631  0.00  0.00     0.286 C 
ATOM     18  O   UNL d   1     -51.962  26.740  33.600  0.00  0.00    -0.265 OA
ATOM     19  N   UNL d   1     -51.356  25.424  33.483  0.00  0.00    -0.204 NA
ATOM     20  C   UNL d   1     -52.109  25.109  33.307  0.00  0.00     0.123 C 
ENDBRANCH  16  17
ENDBRANCH  15  16
ENDBRANCH  12  15
ENDBRANCH   8  10
ENDBRANCH   3   7
BRANCH   1  21
ATOM     21  C   UNL d   1     -47.450  32.288  34.408  0.00  0.00     0.089 A 
ATOM     22  C   UNL d   1     -48.168  32.472  34.020  0.00  0.00     0.110 A 
ATOM     23  C   UNL d   1     -48.214  33.119  33.514  0.00  0.00     0.026 A 
ATOM     24  C   UNL d   1     -47.533  33.593  33.388  0.00  0.00     0.002 A 
ATOM     25  C   UNL d   1     -46.821  33.420  33.766  0.00  0.00     0.002 A 
ATOM     26  C   UNL d   1     -46.771  32.759  34.284  0.00  0.00     0.020 A 
BRANCH  22  27
ATOM     27  O   UNL d   1     -48.838  31.996  34.150  0.00  0.00    -0.327 OA
ATOM     28  C   UNL d   1     -49.563  32.354  34.355  0.00  0.00     0.181 C 
ENDBRANCH  22  27
ENDBRANCH   1  21
TORSDOF 7
ENDMDL
