MODEL 1
REMARK VINA RESULT:     -10.0      0.000      0.000
REMARK  5 active torsions:
REMARK  status: ('A' for Active; 'I' for Inactive)
REMARK    1  A    between atoms: O_4  and  C_1 
REMARK    2  A    between atoms: C_9  and  C_2 
REMARK    3  A    between atoms: C_5  and  O_4 
REMARK    4  A    between atoms: C_12  and  C_5 
REMARK    5  A    between atoms: N_10  and  C_9 
ROOT
ATOM      1  C   UNL d   1      52.682  32.743  53.451  0.00  0.00     0.122 A 
ATOM      2  C   UNL d   1      53.382  33.172  53.526  0.00  0.00     0.043 A 
ATOM      3  C   UNL d   1      51.979  33.132  53.263  0.00  0.00     0.105 A 
ATOM      4  C   UNL d   1      51.977  33.948  53.150  0.00  0.00     0.030 A 
ATOM      5  C   UNL d   1      52.678  34.367  53.226  0.00  0.00     0.059 A 
ATOM      6  C   UNL d   1      53.380  33.988  53.412  0.00  0.00     0.015 A 
ATOM      7  N   UNL d   1      51.287  32.703  53.190  0.00  0.00    -0.242 NA
ATOM      8 CL   UNL d   1      52.651  35.193  53.106  0.00  0.00    -0.082 Cl
ATOM      9  C   UNL d   1      51.283  34.327  52.965  0.00  0.00     0.004 A 
ATOM     10  C   UNL d   1      50.584  33.092  53.002  0.00  0.00     0.099 A 
ATOM     11  C   UNL d   1      50.582  33.908  52.889  0.00  0.00     0.021 A 
ENDROOT
BRANCH   1  12
ATOM     12  O   UNL d   1      52.673  32.002  53.552  0.00  0.00    -0.271 OA
BRANCH  12  13
ATOM     13  C   UNL d   1      52.852  31.181  53.080  0.00  0.00     0.300 C 
ATOM     14  O   UNL d   1      52.845  31.272  52.080  0.00  0.00    -0.259 OA
BRANCH  13  15
ATOM     15  C   UNL d   1      52.995  30.478  53.484  0.00  0.00     0.064 A 
ATOM     16  C   UNL d   1      53.738  30.110  53.425  0.00  0.00     0.008 A 
ATOM     17  C   UNL d   1      53.880  29.398  53.835  0.00  0.00     0.030 A 
ATOM     18  C   UNL d   1      53.281  29.052  54.303  0.00  0.00     0.140 A 
ATOM     19  C   UNL d   1      52.540  29.422  54.359  0.00  0.00     0.030 A 
ATOM     20  F   UNL d   1      53.396  28.535  54.596  0.00  0.00    -0.204 F 
ATOM     21  C   UNL d   1      52.400  30.134  53.949  0.00  0.00     0.008 A 
ENDBRANCH  13  15
ENDBRANCH  12  13
ENDBRANCH   1  12
BRANCH   2  22
ATOM     22  C   UNL d   1      54.236  32.924  53.723  0.00  0.00     0.082 C 
BRANCH  22  23
ATOM     23  N   UNL d   1      54.605  33.240  54.385  0.00  0.00    -0.299 N 
ATOM     24  C   UNL d   1      55.264  33.713  54.294  0.00  0.00     0.107 A 
ATOM     25  C   UNL d   1      55.646  34.038  54.952  0.00  0.00     0.142 A 
ATOM     26  O   UNL d   1      55.355  33.879  55.697  0.00  0.00    -0.300 OA
ATOM     27  C   UNL d   1      54.685  33.399  55.792  0.00  0.00     0.142 A 
ATOM     28  C   UNL d   1      54.319  33.085  55.130  0.00  0.00     0.107 A 
ENDBRANCH  22  23
ENDBRANCH   2  22
TORSDOF 5
ENDMDL
MODEL 2
REMARK VINA RESULT:      -9.8      1.146      3.013
REMARK  5 active torsions:
REMARK  status: ('A' for Active; 'I' for Inactive)
REMARK    1  A    between atoms: O_4  and  C_1 
REMARK    2  A    between atoms: C_9  and  C_2 
REMARK    3  A    between atoms: C_5  and  O_4 
REMARK    4  A    between atoms: C_12  and  C_5 
REMARK    5  A    between atoms: N_10  and  C_9 
ROOT
ATOM      1  C   UNL d   1      53.239  33.103  53.923  0.00  0.00     0.122 A 
ATOM      2  C   UNL d   1      52.800  33.586  53.419  0.00  0.00     0.043 A 
ATOM      3  C   UNL d   1      53.701  33.441  54.516  0.00  0.00     0.105 A 
ATOM      4  C   UNL d   1      53.725  34.260  54.606  0.00  0.00     0.030 A 
ATOM      5  C   UNL d   1      53.285  34.733  54.101  0.00  0.00     0.059 A 
ATOM      6  C   UNL d   1      52.823  34.405  53.508  0.00  0.00     0.015 A 
ATOM      7  N   UNL d   1      54.136  32.958  55.014  0.00  0.00    -0.242 NA
ATOM      8 CL   UNL d   1      53.324  35.560  54.211  0.00  0.00    -0.082 Cl
ATOM      9  C   UNL d   1      54.182  34.588  55.192  0.00  0.00     0.004 A 
ATOM     10  C   UNL d   1      54.598  33.296  55.608  0.00  0.00     0.099 A 
ATOM     11  C   UNL d   1      54.622  34.115  55.697  0.00  0.00     0.021 A 
ENDROOT
BRANCH   1  12
ATOM     12  O   UNL d   1      53.225  32.360  53.850  0.00  0.00    -0.271 OA
BRANCH  12  13
ATOM     13  C   UNL d   1      53.679  31.644  53.391  0.00  0.00     0.300 C 
ATOM     14  O   UNL d   1      54.485  31.938  52.869  0.00  0.00    -0.259 OA
BRANCH  13  15
ATOM     15  C   UNL d   1      53.412  30.867  53.438  0.00  0.00     0.064 A 
ATOM     16  C   UNL d   1      52.935  30.556  52.831  0.00  0.00     0.008 A 
ATOM     17  C   UNL d   1      52.665  29.769  52.881  0.00  0.00     0.030 A 
ATOM     18  C   UNL d   1      52.871  29.291  53.536  0.00  0.00     0.140 A 
ATOM     19  C   UNL d   1      53.347  29.605  54.138  0.00  0.00     0.030 A 
ATOM     20  F   UNL d   1      52.668  28.721  53.560  0.00  0.00    -0.204 F 
ATOM     21  C   UNL d   1      53.616  30.392  54.087  0.00  0.00     0.008 A 
ENDBRANCH  13  15
ENDBRANCH  12  13
ENDBRANCH   1  12
BRANCH   2  22
ATOM     22  C   UNL d   1      52.244  33.403  52.722  0.00  0.00     0.082 C 
BRANCH  22  23
ATOM     23  N   UNL d   1      51.470  33.678  52.739  0.00  0.00    -0.299 N 
ATOM     24  C   UNL d   1      51.224  34.229  52.189  0.00  0.00     0.107 A 
ATOM     25  C   UNL d   1      50.448  34.515  52.195  0.00  0.00     0.142 A 
ATOM     26  O   UNL d   1      49.928  34.238  52.759  0.00  0.00    -0.300 OA
ATOM     27  C   UNL d   1      50.175  33.678  53.318  0.00  0.00     0.142 A 
ATOM     28  C   UNL d   1      50.947  33.405  53.299  0.00  0.00     0.107 A 
ENDBRANCH  22  23
ENDBRANCH   2  22
TORSDOF 5
ENDMDL
MODEL 3
REMARK VINA RESULT:      -9.2      2.170      4.218
REMARK  5 active torsions:
REMARK  status: ('A' for Active; 'I' for Inactive)
REMARK    1  A    between atoms: O_4  and  C_1 
REMARK    2  A    between atoms: C_9  and  C_2 
REMARK    3  A    between atoms: C_5  and  O_4 
REMARK    4  A    between atoms: C_12  and  C_5 
REMARK    5  A    between atoms: N_10  and  C_9 
ROOT
ATOM      1  C   UNL d   1      52.753  33.385  53.596  0.00  0.00     0.122 A 
ATOM      2  C   UNL d   1      53.084  32.667  53.359  0.00  0.00     0.043 A 
ATOM      3  C   UNL d   1      53.113  33.828  54.190  0.00  0.00     0.105 A 
ATOM      4  C   UNL d   1      53.804  33.555  54.548  0.00  0.00     0.030 A 
ATOM      5  C   UNL d   1      54.127  32.841  54.307  0.00  0.00     0.059 A 
ATOM      6  C   UNL d   1      53.774  32.394  53.717  0.00  0.00     0.015 A 
ATOM      7  N   UNL d   1      52.782  34.539  54.422  0.00  0.00    -0.242 NA
ATOM      8 CL   UNL d   1      54.827  32.584  54.684  0.00  0.00    -0.082 Cl
ATOM      9  C   UNL d   1      54.156  33.995  55.134  0.00  0.00     0.004 A 
ATOM     10  C   UNL d   1      53.143  34.982  55.017  0.00  0.00     0.099 A 
ATOM     11  C   UNL d   1      53.833  34.709  55.374  0.00  0.00     0.021 A 
ENDROOT
BRANCH   1  12
ATOM     12  O   UNL d   1      52.127  33.642  53.278  0.00  0.00    -0.271 OA
BRANCH  12  13
ATOM     13  C   UNL d   1      51.833  34.201  52.550  0.00  0.00     0.300 C 
ATOM     14  O   UNL d   1      52.579  34.647  52.048  0.00  0.00    -0.259 OA
BRANCH  13  15
ATOM     15  C   UNL d   1      51.033  34.291  52.375  0.00  0.00     0.064 A 
ATOM     16  C   UNL d   1      50.762  34.157  51.600  0.00  0.00     0.008 A 
ATOM     17  C   UNL d   1      49.952  34.249  51.426  0.00  0.00     0.030 A 
ATOM     18  C   UNL d   1      49.412  34.473  52.023  0.00  0.00     0.140 A 
ATOM     19  C   UNL d   1      49.687  34.605  52.795  0.00  0.00     0.030 A 
ATOM     20  F   UNL d   1      48.826  34.536  51.883  0.00  0.00    -0.204 F 
ATOM     21  C   UNL d   1      50.497  34.514  52.968  0.00  0.00     0.008 A 
ENDBRANCH  13  15
ENDBRANCH  12  13
ENDBRANCH   1  12
BRANCH   2  22
ATOM     22  C   UNL d   1      52.836  32.053  52.735  0.00  0.00     0.082 C 
BRANCH  22  23
ATOM     23  N   UNL d   1      52.678  31.282  52.969  0.00  0.00    -0.299 N 
ATOM     24  C   UNL d   1      53.226  30.694  52.825  0.00  0.00     0.107 A 
ATOM     25  C   UNL d   1      53.080  29.913  53.055  0.00  0.00     0.142 A 
ATOM     26  O   UNL d   1      52.376  29.736  53.428  0.00  0.00    -0.300 OA
ATOM     27  C   UNL d   1      51.817  30.331  53.575  0.00  0.00     0.142 A 
ATOM     28  C   UNL d   1      51.978  31.099  53.341  0.00  0.00     0.107 A 
ENDBRANCH  22  23
ENDBRANCH   2  22
TORSDOF 5
ENDMDL
MODEL 4
REMARK VINA RESULT:      -7.5      1.975      3.596
REMARK  5 active torsions:
REMARK  status: ('A' for Active; 'I' for Inactive)
REMARK    1  A    between atoms: O_4  and  C_1 
REMARK    2  A    between atoms: C_9  and  C_2 
REMARK    3  A    between atoms: C_5  and  O_4 
REMARK    4  A    between atoms: C_12  and  C_5 
REMARK    5  A    between atoms: N_10  and  C_9 
ROOT
ATOM      1  C   UNL d   1      52.801  32.386  53.317  0.00  0.00     0.122 A 
ATOM      2  C   UNL d   1      53.580  32.606  53.477  0.00  0.00     0.043 A 
ATOM      3  C   UNL d   1      52.605  31.587  53.252  0.00  0.00     0.105 A 
ATOM      4  C   UNL d   1      53.186  31.011  53.346  0.00  0.00     0.030 A 
ATOM      5  C   UNL d   1      53.957  31.238  53.505  0.00  0.00     0.059 A 
ATOM      6  C   UNL d   1      54.161  32.030  53.571  0.00  0.00     0.015 A 
ATOM      7  N   UNL d   1      51.832  31.373  53.093  0.00  0.00    -0.242 NA
ATOM      8 CL   UNL d   1      54.529  30.636  53.597  0.00  0.00    -0.082 Cl
ATOM      9  C   UNL d   1      52.988  30.225  53.281  0.00  0.00     0.004 A 
ATOM     10  C   UNL d   1      51.635  30.574  53.028  0.00  0.00     0.099 A 
ATOM     11  C   UNL d   1      52.216  29.997  53.122  0.00  0.00     0.021 A 
ENDROOT
BRANCH   1  12
ATOM     12  O   UNL d   1      52.267  32.901  53.230  0.00  0.00    -0.271 OA
BRANCH  12  13
ATOM     13  C   UNL d   1      51.925  33.520  52.575  0.00  0.00     0.300 C 
ATOM     14  O   UNL d   1      52.502  33.614  51.758  0.00  0.00    -0.259 OA
BRANCH  13  15
ATOM     15  C   UNL d   1      51.219  33.926  52.697  0.00  0.00     0.064 A 
ATOM     16  C   UNL d   1      50.651  33.961  52.090  0.00  0.00     0.008 A 
ATOM     17  C   UNL d   1      49.937  34.373  52.217  0.00  0.00     0.030 A 
ATOM     18  C   UNL d   1      49.789  34.750  52.948  0.00  0.00     0.140 A 
ATOM     19  C   UNL d   1      50.358  34.713  53.551  0.00  0.00     0.030 A 
ATOM     20  F   UNL d   1      49.267  35.046  53.027  0.00  0.00    -0.204 F 
ATOM     21  C   UNL d   1      51.072  34.301  53.423  0.00  0.00     0.008 A 
ENDBRANCH  13  15
ENDBRANCH  12  13
ENDBRANCH   1  12
BRANCH   2  22
ATOM     22  C   UNL d   1      53.979  33.417  53.582  0.00  0.00     0.082 C 
BRANCH  22  23
ATOM     23  N   UNL d   1      54.370  33.587  54.284  0.00  0.00    -0.299 N 
ATOM     24  C   UNL d   1      55.184  33.650  54.289  0.00  0.00     0.107 A 
ATOM     25  C   UNL d   1      55.591  33.821  54.988  0.00  0.00     0.142 A 
ATOM     26  O   UNL d   1      55.167  33.925  55.677  0.00  0.00    -0.300 OA
ATOM     27  C   UNL d   1      54.340  33.861  55.675  0.00  0.00     0.142 A 
ATOM     28  C   UNL d   1      53.953  33.692  54.974  0.00  0.00     0.107 A 
ENDBRANCH  22  23
ENDBRANCH   2  22
TORSDOF 5
ENDMDL
