MODEL 1
REMARK VINA RESULT:      13.0      0.000      0.000
REMARK  5 active torsions:
REMARK  status: ('A' for Active; 'I' for Inactive)
REMARK    1  A    between atoms: C_2  and  S_1 
REMARK    2  A    between atoms: N_3  and  S_1 
REMARK    3  A    between atoms: C_14  and  N_3 
REMARK    4  A    between atoms: C_15  and  C_14 
REMARK    5  A    between atoms: O_18  and  C_16 
ROOT
ATOM      1  S   UNL d   1      44.814 -15.277  44.747  0.00  0.00     0.285 S 
ATOM      2  O   UNL d   1      44.409 -15.974  44.920  0.00  0.00    -0.198 OA
ATOM      3  O   UNL d   1      44.154 -14.842  44.954  0.00  0.00    -0.198 OA
ENDROOT
BRANCH   1   4
ATOM      4  C   UNL d   1      45.226 -14.583  44.573  0.00  0.00     0.107 A 
ATOM      5  C   UNL d   1      44.900 -14.020  44.062  0.00  0.00     0.037 A 
ATOM      6  C   UNL d   1      45.318 -13.329  43.892  0.00  0.00     0.095 A 
ATOM      7  C   UNL d   1      46.061 -13.201  44.234  0.00  0.00     0.024 A 
ATOM      8  C   UNL d   1      46.382 -13.763  44.743  0.00  0.00     0.003 A 
ATOM      9  C   UNL d   1      45.965 -14.454  44.912  0.00  0.00     0.013 A 
BRANCH   6  10
ATOM     10  O   UNL d   1      44.997 -12.767  43.384  0.00  0.00    -0.328 OA
ATOM     11  C   UNL d   1      45.475 -12.174  43.068  0.00  0.00     0.181 C 
ENDBRANCH   6  10
ENDBRANCH   1   4
BRANCH   1  12
ATOM     12  N   UNL d   1      45.479 -15.718  44.540  0.00  0.00    -0.157 NA
BRANCH  12  13
ATOM     13  C   UNL d   1      45.653 -16.419  44.953  0.00  0.00     0.112 C 
BRANCH  13  14
ATOM     14  C   UNL d   1      45.909 -17.087  44.542  0.00  0.00     0.022 A 
ATOM     15  C   UNL d   1      45.940 -17.815  44.927  0.00  0.00     0.028 A 
ATOM     16  C   UNL d   1      46.197 -18.482  44.516  0.00  0.00     0.119 A 
ATOM     17  O   UNL d   1      46.284 -19.266  44.748  0.00  0.00    -0.300 OA
ATOM     18  C   UNL d   1      46.422 -18.428  43.724  0.00  0.00     0.119 A 
ATOM     19  C   UNL d   1      46.564 -19.700  44.103  0.00  0.00     0.304 A 
ATOM     20  O   UNL d   1      46.646 -19.167  43.472  0.00  0.00    -0.300 OA
ATOM     21  C   UNL d   1      46.388 -17.691  43.344  0.00  0.00     0.026 A 
ATOM     22  C   UNL d   1      46.132 -17.020  43.750  0.00  0.00     0.004 A 
ENDBRANCH  13  14
ENDBRANCH  12  13
ENDBRANCH   1  12
TORSDOF 5
ENDMDL
