MODEL 1
REMARK VINA RESULT:      -4.8      0.000      0.000
REMARK  4 active torsions:
REMARK  status: ('A' for Active; 'I' for Inactive)
REMARK    1  A    between atoms: C_2  and  C_1 
REMARK       I    between atoms: N_3  and  C_1 
REMARK       I    between atoms: N_4  and  C_2 
REMARK    2  A    between atoms: C_8  and  N_3 
REMARK    3  A    between atoms: C_9  and  N_4 
REMARK    4  A    between atoms: C_10  and  C_9 
ROOT
ATOM      1  C   UNL d   1      58.110   0.139  29.547  0.00  0.00     0.337 C 
ATOM      2  N   UNL d   1      58.300  -0.348  28.908  0.00  0.00    -0.204 NA
ATOM      3  O   UNL d   1      57.492   0.682  29.481  0.00  0.00    -0.260 OA
ENDROOT
BRANCH   1   4
ATOM      4  C   UNL d   1      58.537   0.083  30.246  0.00  0.00     0.337 C 
ATOM      5  N   UNL d   1      58.149  -0.091  30.957  0.00  0.00    -0.201 NA
ATOM      6  O   UNL d   1      59.354   0.200  30.243  0.00  0.00    -0.260 OA
BRANCH   5   7
ATOM      7  C   UNL d   1      57.332  -0.207  30.960  0.00  0.00     0.121 C 
BRANCH   7   8
ATOM      8  C   UNL d   1      56.942  -0.378  31.654  0.00  0.00     0.101 A 
ATOM      9  N   UNL d   1      56.617  -1.129  31.764  0.00  0.00    -0.242 NA
ATOM     10  C   UNL d   1      56.220  -1.308  32.465  0.00  0.00     0.099 A 
ATOM     11  C   UNL d   1      56.148  -0.740  33.052  0.00  0.00     0.021 A 
ATOM     12  C   UNL d   1      56.472   0.011  32.942  0.00  0.00     0.003 A 
ATOM     13  C   UNL d   1      56.869   0.190  32.241  0.00  0.00     0.021 A 
ENDBRANCH   7   8
ENDBRANCH   5   7
ENDBRANCH   1   4
BRANCH   2  14
ATOM     14  C   UNL d   1      58.918  -0.890  28.973  0.00  0.00     0.085 A 
ATOM     15  C   UNL d   1      58.756  -1.685  29.126  0.00  0.00     0.019 A 
ATOM     16  C   UNL d   1      59.374  -2.228  29.191  0.00  0.00     0.002 A 
ATOM     17  C   UNL d   1      60.154  -1.975  29.103  0.00  0.00     0.000 A 
ATOM     18  C   UNL d   1      60.312  -1.188  28.952  0.00  0.00     0.002 A 
ATOM     19  C   UNL d   1      60.772  -2.518  29.168  0.00  0.00     0.000 C 
ATOM     20  C   UNL d   1      59.694  -0.645  28.887  0.00  0.00     0.019 A 
ENDBRANCH   2  14
TORSDOF 4
ENDMDL
MODEL 2
REMARK VINA RESULT:      -3.7      1.013      4.135
REMARK  4 active torsions:
REMARK  status: ('A' for Active; 'I' for Inactive)
REMARK    1  A    between atoms: C_2  and  C_1 
REMARK       I    between atoms: N_3  and  C_1 
REMARK       I    between atoms: N_4  and  C_2 
REMARK    2  A    between atoms: C_8  and  N_3 
REMARK    3  A    between atoms: C_9  and  N_4 
REMARK    4  A    between atoms: C_10  and  C_9 
ROOT
ATOM      1  C   UNL d   1      58.161   0.410  31.124  0.00  0.00     0.337 C 
ATOM      2  N   UNL d   1      58.024   0.414  31.938  0.00  0.00    -0.204 NA
ATOM      3  O   UNL d   1      58.881   0.681  30.826  0.00  0.00    -0.260 OA
ENDROOT
BRANCH   1   4
ATOM      4  C   UNL d   1      57.580   0.137  30.612  0.00  0.00     0.337 C 
ATOM      5  N   UNL d   1      57.752  -0.470  30.074  0.00  0.00    -0.201 NA
ATOM      6  O   UNL d   1      56.823   0.465  30.631  0.00  0.00    -0.260 OA
BRANCH   5   7
ATOM      7  C   UNL d   1      58.509  -0.798  30.054  0.00  0.00     0.121 C 
BRANCH   7   8
ATOM      8  C   UNL d   1      58.686  -1.395  29.531  0.00  0.00     0.101 A 
ATOM      9  N   UNL d   1      58.253  -2.097  29.553  0.00  0.00    -0.242 NA
ATOM     10  C   UNL d   1      58.428  -2.707  29.025  0.00  0.00     0.099 A 
ATOM     11  C   UNL d   1      59.032  -2.615  28.478  0.00  0.00     0.021 A 
ATOM     12  C   UNL d   1      59.465  -1.912  28.455  0.00  0.00     0.003 A 
ATOM     13  C   UNL d   1      59.290  -1.303  28.984  0.00  0.00     0.021 A 
ENDBRANCH   7   8
ENDBRANCH   5   7
ENDBRANCH   1   4
BRANCH   2  14
ATOM     14  C   UNL d   1      57.304   0.143  32.236  0.00  0.00     0.085 A 
ATOM     15  C   UNL d   1      57.215  -0.652  32.441  0.00  0.00     0.019 A 
ATOM     16  C   UNL d   1      56.495  -0.923  32.739  0.00  0.00     0.002 A 
ATOM     17  C   UNL d   1      55.864  -0.399  32.832  0.00  0.00     0.000 A 
ATOM     18  C   UNL d   1      55.956   0.387  32.628  0.00  0.00     0.002 A 
ATOM     19  C   UNL d   1      55.144  -0.670  33.130  0.00  0.00     0.000 C 
ATOM     20  C   UNL d   1      56.676   0.658  32.330  0.00  0.00     0.019 A 
ENDBRANCH   2  14
TORSDOF 4
ENDMDL
MODEL 3
REMARK VINA RESULT:      -3.5      0.884      3.965
REMARK  4 active torsions:
REMARK  status: ('A' for Active; 'I' for Inactive)
REMARK    1  A    between atoms: C_2  and  C_1 
REMARK       I    between atoms: N_3  and  C_1 
REMARK       I    between atoms: N_4  and  C_2 
REMARK    2  A    between atoms: C_8  and  N_3 
REMARK    3  A    between atoms: C_9  and  N_4 
REMARK    4  A    between atoms: C_10  and  C_9 
ROOT
ATOM      1  C   UNL d   1      57.757   0.401  30.220  0.00  0.00     0.337 C 
ATOM      2  N   UNL d   1      57.008   0.459  30.560  0.00  0.00    -0.204 NA
ATOM      3  O   UNL d   1      57.884   0.678  29.453  0.00  0.00    -0.260 OA
ENDROOT
BRANCH   1   4
ATOM      4  C   UNL d   1      58.377   0.067  30.645  0.00  0.00     0.337 C 
ATOM      5  N   UNL d   1      58.776  -0.594  30.346  0.00  0.00    -0.201 NA
ATOM      6  O   UNL d   1      58.602   0.390  31.370  0.00  0.00    -0.260 OA
BRANCH   5   7
ATOM      7  C   UNL d   1      58.551  -0.917  29.621  0.00  0.00     0.121 C 
BRANCH   7   8
ATOM      8  C   UNL d   1      58.932  -1.572  29.324  0.00  0.00     0.101 A 
ATOM      9  N   UNL d   1      58.516  -2.280  29.239  0.00  0.00    -0.242 NA
ATOM     10  C   UNL d   1      58.897  -2.948  28.938  0.00  0.00     0.099 A 
ATOM     11  C   UNL d   1      59.688  -2.908  28.724  0.00  0.00     0.021 A 
ATOM     12  C   UNL d   1      60.103  -2.200  28.809  0.00  0.00     0.003 A 
ATOM     13  C   UNL d   1      59.722  -1.532  29.110  0.00  0.00     0.021 A 
ENDBRANCH   7   8
ENDBRANCH   5   7
ENDBRANCH   1   4
BRANCH   2  14
ATOM     14  C   UNL d   1      56.882   0.183  31.327  0.00  0.00     0.085 A 
ATOM     15  C   UNL d   1      57.013   0.680  31.973  0.00  0.00     0.019 A 
ATOM     16  C   UNL d   1      56.887   0.403  32.740  0.00  0.00     0.002 A 
ATOM     17  C   UNL d   1      56.629  -0.371  32.861  0.00  0.00     0.000 A 
ATOM     18  C   UNL d   1      56.499  -0.861  32.219  0.00  0.00     0.002 A 
ATOM     19  C   UNL d   1      56.502  -0.648  33.628  0.00  0.00     0.000 C 
ATOM     20  C   UNL d   1      56.626  -0.584  31.453  0.00  0.00     0.019 A 
ENDBRANCH   2  14
TORSDOF 4
ENDMDL
