MODEL 1
REMARK VINA RESULT:      72.2      0.000      0.000
REMARK  9 active torsions:
REMARK  status: ('A' for Active; 'I' for Inactive)
REMARK    1  A    between atoms: N_3  and  C_1 
REMARK       I    between atoms: C_7  and  N_3 
REMARK    2  A    between atoms: S_10  and  C_4 
REMARK    3  A    between atoms: C_9  and  C_7 
REMARK    4  A    between atoms: C_8  and  C_17 
REMARK       I    between atoms: N_12  and  C_8 
REMARK    5  A    between atoms: C_17  and  S_10 
REMARK    6  A    between atoms: C_18  and  N_12 
REMARK    7  A    between atoms: C_22  and  C_18 
REMARK    8  A    between atoms: O_23  and  C_19 
REMARK    9  A    between atoms: C_25  and  O_23 
ROOT
ATOM      1  C   UNL d   1      61.283  47.224  50.154  0.00  0.00     0.219 A 
ATOM      2  S   UNL d   1      60.911  47.691  50.722  0.00  0.00    -0.019 SA
ATOM      3  C   UNL d   1      60.941  48.474  50.480  0.00  0.00     0.165 A 
ATOM      4  N   UNL d   1      61.547  47.729  49.554  0.00  0.00    -0.120 NA
ATOM      5  N   UNL d   1      61.336  48.500  49.755  0.00  0.00    -0.133 NA
ENDROOT
BRANCH   1   6
ATOM      6  N   UNL d   1      61.374  46.400  50.183  0.00  0.00    -0.181 NA
ATOM      7  C   UNL d   1      61.980  46.045  49.746  0.00  0.00     0.281 C 
ATOM      8  O   UNL d   1      62.486  46.504  49.289  0.00  0.00    -0.265 OA
BRANCH   7   9
ATOM      9  C   UNL d   1      62.074  45.223  49.773  0.00  0.00     0.058 A 
ATOM     10  C   UNL d   1      61.547  44.740  49.364  0.00  0.00     0.007 A 
ATOM     11  C   UNL d   1      61.646  43.922  49.395  0.00  0.00     0.025 A 
ATOM     12  C   UNL d   1      62.259  43.595  49.825  0.00  0.00     0.100 A 
ATOM     13  C   UNL d   1      62.788  44.083  50.236  0.00  0.00     0.025 A 
ATOM     14  C   UNL d   1      62.688  44.902  50.205  0.00  0.00     0.007 A 
BRANCH  12  15
ATOM     15  O   UNL d   1      62.362  42.778  49.859  0.00  0.00    -0.305 OA
BRANCH  15  16
ATOM     16  C   UNL d   1      62.911  42.442  50.362  0.00  0.00     0.123 C 
ATOM     17  C   UNL d   1      63.145  41.641  50.265  0.00  0.00     0.029 C 
ENDBRANCH  15  16
ENDBRANCH  12  15
ENDBRANCH   7   9
ENDBRANCH   1   6
BRANCH   3  18
ATOM     18  S   UNL d   1      60.632  49.118  50.892  0.00  0.00    -0.054 SA
BRANCH  18  19
ATOM     19  C   UNL d   1      60.060  49.597  50.528  0.00  0.00     0.100 C 
BRANCH  19  20
ATOM     20  C   UNL d   1      59.282  49.582  50.794  0.00  0.00     0.286 C 
ATOM     21  N   UNL d   1      58.667  49.701  50.263  0.00  0.00    -0.204 NA
ATOM     22  O   UNL d   1      59.112  49.447  51.595  0.00  0.00    -0.265 OA
BRANCH  21  23
ATOM     23  C   UNL d   1      57.881  49.686  50.530  0.00  0.00     0.127 C 
BRANCH  23  24
ATOM     24  C   UNL d   1      57.270  49.551  49.997  0.00  0.00     0.119 A 
ATOM     25  O   UNL d   1      57.338  49.232  49.236  0.00  0.00    -0.304 OA
ATOM     26  C   UNL d   1      56.577  49.196  48.898  0.00  0.00     0.123 A 
ATOM     27  C   UNL d   1      56.040  49.491  49.442  0.00  0.00     0.029 A 
ATOM     28  C   UNL d   1      56.466  49.707  50.115  0.00  0.00     0.028 A 
ENDBRANCH  23  24
ENDBRANCH  21  23
ENDBRANCH  19  20
ENDBRANCH  18  19
ENDBRANCH   3  18
TORSDOF 9
ENDMDL
MODEL 2
REMARK VINA RESULT:      73.2      0.832      1.047
REMARK  9 active torsions:
REMARK  status: ('A' for Active; 'I' for Inactive)
REMARK    1  A    between atoms: N_3  and  C_1 
REMARK       I    between atoms: C_7  and  N_3 
REMARK    2  A    between atoms: S_10  and  C_4 
REMARK    3  A    between atoms: C_9  and  C_7 
REMARK    4  A    between atoms: C_8  and  C_17 
REMARK       I    between atoms: N_12  and  C_8 
REMARK    5  A    between atoms: C_17  and  S_10 
REMARK    6  A    between atoms: C_18  and  N_12 
REMARK    7  A    between atoms: C_22  and  C_18 
REMARK    8  A    between atoms: O_23  and  C_19 
REMARK    9  A    between atoms: C_25  and  O_23 
ROOT
ATOM      1  C   UNL d   1      60.990  47.863  50.701  0.00  0.00     0.219 A 
ATOM      2  S   UNL d   1      60.260  48.168  50.928  0.00  0.00    -0.019 SA
ATOM      3  C   UNL d   1      60.300  48.987  50.912  0.00  0.00     0.165 A 
ATOM      4  N   UNL d   1      61.488  48.504  50.543  0.00  0.00    -0.120 NA
ATOM      5  N   UNL d   1      61.062  49.198  50.673  0.00  0.00    -0.133 NA
ENDROOT
BRANCH   1   6
ATOM      6  N   UNL d   1      61.187  47.059  50.643  0.00  0.00    -0.181 NA
ATOM      7  C   UNL d   1      61.691  46.808  50.036  0.00  0.00     0.281 C 
ATOM      8  O   UNL d   1      61.993  47.350  49.498  0.00  0.00    -0.265 OA
BRANCH   7   9
ATOM      9  C   UNL d   1      61.888  46.007  49.976  0.00  0.00     0.058 A 
ATOM     10  C   UNL d   1      61.566  45.467  50.507  0.00  0.00     0.007 A 
ATOM     11  C   UNL d   1      61.767  44.670  50.441  0.00  0.00     0.025 A 
ATOM     12  C   UNL d   1      62.280  44.420  49.856  0.00  0.00     0.100 A 
ATOM     13  C   UNL d   1      62.604  44.965  49.322  0.00  0.00     0.025 A 
ATOM     14  C   UNL d   1      62.402  45.763  49.389  0.00  0.00     0.007 A 
BRANCH  12  15
ATOM     15  O   UNL d   1      62.484  43.625  49.786  0.00  0.00    -0.305 OA
BRANCH  15  16
ATOM     16  C   UNL d   1      62.396  43.108  50.412  0.00  0.00     0.123 C 
ATOM     17  C   UNL d   1      63.054  42.680  50.710  0.00  0.00     0.029 C 
ENDBRANCH  15  16
ENDBRANCH  12  15
ENDBRANCH   7   9
ENDBRANCH   1   6
BRANCH   3  18
ATOM     18  S   UNL d   1      59.686  49.504  51.102  0.00  0.00    -0.054 SA
BRANCH  18  19
ATOM     19  C   UNL d   1      59.045  49.226  51.552  0.00  0.00     0.100 C 
BRANCH  19  20
ATOM     20  C   UNL d   1      58.276  49.418  51.332  0.00  0.00     0.286 C 
ATOM     21  N   UNL d   1      58.083  49.475  50.536  0.00  0.00    -0.204 NA
ATOM     22  O   UNL d   1      57.694  49.553  51.907  0.00  0.00    -0.265 OA
BRANCH  21  23
ATOM     23  C   UNL d   1      57.306  49.668  50.312  0.00  0.00     0.127 C 
BRANCH  23  24
ATOM     24  C   UNL d   1      56.893  49.173  49.803  0.00  0.00     0.119 A 
ATOM     25  O   UNL d   1      56.967  48.350  49.743  0.00  0.00    -0.304 OA
ATOM     26  C   UNL d   1      56.440  48.082  49.156  0.00  0.00     0.123 A 
ATOM     27  C   UNL d   1      56.042  48.730  48.853  0.00  0.00     0.029 A 
ATOM     28  C   UNL d   1      56.320  49.397  49.250  0.00  0.00     0.028 A 
ENDBRANCH  23  24
ENDBRANCH  21  23
ENDBRANCH  19  20
ENDBRANCH  18  19
ENDBRANCH   3  18
TORSDOF 9
ENDMDL
