MODEL 1
REMARK VINA RESULT:      66.5      0.000      0.000
REMARK  5 active torsions:
REMARK  status: ('A' for Active; 'I' for Inactive)
REMARK       I    between atoms: C_2  and  N_1 
REMARK    1  A    between atoms: C_10  and  C_2 
REMARK    2  A    between atoms: C_7  and  C_3 
REMARK       I    between atoms: C_5  and  N_8 
REMARK    3  A    between atoms: C_15  and  C_5 
REMARK    4  A    between atoms: N_8  and  C_7 
REMARK    5  A    between atoms: N_9  and  C_10 
ROOT
ATOM      1  N   UNL d   1      46.322 -18.490  42.229  0.00  0.00    -0.271 N 
ATOM      2  C   UNL d   1      46.219 -17.868  41.684  0.00  0.00     0.282 C 
ATOM      3  C   UNL d   1      46.188 -18.334  43.025  0.00  0.00     0.086 A 
ATOM      4  C   UNL d   1      46.280 -18.917  43.568  0.00  0.00     0.018 A 
ATOM      5  C   UNL d   1      46.557 -19.264  41.989  0.00  0.00     0.083 A 
ATOM      6  C   UNL d   1      46.509 -19.669  43.335  0.00  0.00     0.003 A 
ATOM      7  O   UNL d   1      45.990 -17.115  41.917  0.00  0.00    -0.265 OA
ATOM      8  C   UNL d   1      46.647 -19.847  42.557  0.00  0.00     0.019 A 
ATOM      9  C   UNL d   1      46.146 -18.763  44.371  0.00  0.00     0.002 A 
ATOM     10  C   UNL d   1      46.605 -20.276  43.904  0.00  0.00     0.000 A 
ATOM     11  C   UNL d   1      46.238 -19.353  44.937  0.00  0.00     0.000 A 
ATOM     12  C   UNL d   1      46.473 -20.127  44.698  0.00  0.00     0.000 A 
ENDROOT
BRANCH   3  13
ATOM     13  C   UNL d   1      45.958 -17.577  43.259  0.00  0.00     0.120 C 
BRANCH  13  14
ATOM     14  N   UNL d   1      45.157 -17.393  43.320  0.00  0.00    -0.205 NA
ATOM     15  C   UNL d   1      44.918 -16.702  43.734  0.00  0.00     0.279 C 
ATOM     16  O   UNL d   1      44.124 -16.505  43.804  0.00  0.00    -0.265 OA
BRANCH  15  17
ATOM     17  C   UNL d   1      45.491 -16.229  44.068  0.00  0.00     0.058 A 
ATOM     18  C   UNL d   1      46.022 -16.506  44.615  0.00  0.00     0.005 A 
ATOM     19  C   UNL d   1      46.604 -16.031  44.955  0.00  0.00     0.000 A 
ATOM     20  C   UNL d   1      46.646 -15.221  44.721  0.00  0.00     0.000 A 
ATOM     21  C   UNL d   1      46.104 -14.932  44.161  0.00  0.00     0.000 A 
ATOM     22  C   UNL d   1      45.547 -15.432  43.850  0.00  0.00     0.005 A 
ENDBRANCH  15  17
ENDBRANCH  13  14
ENDBRANCH   3  13
BRANCH   2  23
ATOM     23  C   UNL d   1      46.349 -17.995  40.861  0.00  0.00     0.142 C 
BRANCH  23  24
ATOM     24  N   UNL d   1      45.768 -17.747  40.330  0.00  0.00    -0.295 N 
ATOM     25  C   UNL d   1      45.972 -17.192  39.750  0.00  0.00     0.107 A 
ATOM     26  C   UNL d   1      45.406 -16.924  39.200  0.00  0.00     0.142 A 
ATOM     27  O   UNL d   1      44.638 -17.225  39.247  0.00  0.00    -0.300 OA
ATOM     28  C   UNL d   1      44.419 -17.787  39.830  0.00  0.00     0.142 A 
ATOM     29  C   UNL d   1      44.995 -18.046  40.372  0.00  0.00     0.107 A 
ENDBRANCH  23  24
ENDBRANCH   2  23
TORSDOF 5
ENDMDL
