MODEL 1
REMARK VINA RESULT:     108.1      0.000      0.000
REMARK  4 active torsions:
REMARK  status: ('A' for Active; 'I' for Inactive)
REMARK    1  A    between atoms: S_6  and  C_1 
REMARK    2  A    between atoms: C_9  and  N_2 
REMARK    3  A    between atoms: C_15  and  S_6 
REMARK    4  A    between atoms: C_14  and  C_9 
ROOT
ATOM      1  C   UNL d   1      60.655  47.817  50.682  0.00  0.00     0.145 A 
ATOM      2  N   UNL d   1      60.777  49.031  51.200  0.00  0.00    -0.270 N 
ATOM      3  C   UNL d   1      59.917  48.188  50.625  0.00  0.00     0.130 A 
ATOM      4  C   UNL d   1      61.186  48.336  51.036  0.00  0.00     0.183 A 
ATOM      5  C   UNL d   1      59.993  48.944  50.948  0.00  0.00     0.168 A 
ATOM      6  N   UNL d   1      59.191  47.938  50.325  0.00  0.00    -0.240 NA
ATOM      7  N   UNL d   1      59.343  49.451  50.970  0.00  0.00    -0.225 NA
ATOM      8  C   UNL d   1      58.542  48.445  50.347  0.00  0.00     0.099 A 
ATOM      9  C   UNL d   1      58.618  49.201  50.669  0.00  0.00     0.101 A 
ATOM     10  N   UNL d   1      61.983  48.199  51.202  0.00  0.00    -0.128 N 
ATOM     11  C   UNL d   1      57.817  48.195  50.046  0.00  0.00     0.021 A 
ATOM     12  C   UNL d   1      57.969  49.708  50.691  0.00  0.00     0.021 A 
ATOM     13  C   UNL d   1      57.243  49.458  50.391  0.00  0.00     0.002 A 
ATOM     14  C   UNL d   1      57.167  48.701  50.068  0.00  0.00     0.002 A 
ENDROOT
BRANCH   1  15
ATOM     15  S   UNL d   1      60.823  47.050  50.423  0.00  0.00     0.214 S 
ATOM     16  O   UNL d   1      61.125  47.550  49.844  0.00  0.00    -0.217 OA
ATOM     17  O   UNL d   1      60.519  46.548  51.005  0.00  0.00    -0.217 OA
BRANCH  15  18
ATOM     18  C   UNL d   1      60.997  46.292  50.153  0.00  0.00     0.088 A 
ATOM     19  C   UNL d   1      60.784  45.694  50.684  0.00  0.00     0.011 A 
ATOM     20  C   UNL d   1      60.926  44.900  50.486  0.00  0.00     0.001 A 
ATOM     21  C   UNL d   1      61.279  44.707  49.764  0.00  0.00     0.000 A 
ATOM     22  C   UNL d   1      61.490  45.306  49.237  0.00  0.00     0.001 A 
ATOM     23  C   UNL d   1      61.350  46.100  49.430  0.00  0.00     0.011 A 
ENDBRANCH  15  18
ENDBRANCH   1  15
BRANCH   2  24
ATOM     24  C   UNL d   1      61.090  49.708  51.556  0.00  0.00     0.108 C 
BRANCH  24  25
ATOM     25  C   UNL d   1      61.267  49.705  52.357  0.00  0.00     0.118 A 
ATOM     26  O   UNL d   1      60.722  49.701  52.967  0.00  0.00    -0.304 OA
ATOM     27  C   UNL d   1      61.137  49.699  53.685  0.00  0.00     0.123 A 
ATOM     28  C   UNL d   1      61.937  49.701  53.508  0.00  0.00     0.029 A 
ATOM     29  C   UNL d   1      62.012  49.705  52.688  0.00  0.00     0.028 A 
ENDBRANCH  24  25
ENDBRANCH   2  24
TORSDOF 4
ENDMDL
