MODEL 1
REMARK VINA RESULT:      -4.5      0.000      0.000
REMARK  5 active torsions:
REMARK  status: ('A' for Active; 'I' for Inactive)
REMARK    1  A    between atoms: C_7  and  N_2 
REMARK    2  A    between atoms: C_14  and  C_7 
REMARK    3  A    between atoms: O_10  and  C_9 
REMARK    4  A    between atoms: C_11  and  O_10 
REMARK    5  A    between atoms: C_13  and  C_11 
ROOT
ATOM      1  C   UNL d   1      59.370  -1.134  29.092  0.00  0.00     0.265 A 
ATOM      2  N   UNL d   1      59.021  -1.879  29.022  0.00  0.00    -0.272 N 
ATOM      3  C   UNL d   1      59.087  -0.601  29.649  0.00  0.00     0.059 A 
ATOM      4  C   UNL d   1      58.456  -0.809  30.138  0.00  0.00     0.029 A 
ATOM      5  C   UNL d   1      58.107  -1.549  30.070  0.00  0.00     0.021 A 
ATOM      6  C   UNL d   1      58.390  -2.086  29.511  0.00  0.00     0.083 A 
ATOM      7  O   UNL d   1      60.001  -0.926  28.603  0.00  0.00    -0.267 OA
ATOM      8  C   UNL d   1      58.173  -0.271  30.698  0.00  0.00     0.100 A 
ATOM      9  C   UNL d   1      59.435   0.144  29.720  0.00  0.00     0.005 A 
ATOM     10  C   UNL d   1      59.153   0.681  30.279  0.00  0.00     0.002 A 
ATOM     11  C   UNL d   1      58.522   0.474  30.768  0.00  0.00     0.025 A 
ENDROOT
BRANCH   8  12
ATOM     12  O   UNL d   1      57.542  -0.479  31.187  0.00  0.00    -0.305 OA
BRANCH  12  13
ATOM     13  C   UNL d   1      57.195   0.089  31.675  0.00  0.00     0.122 C 
BRANCH  13  14
ATOM     14  C   UNL d   1      56.583  -0.125  32.186  0.00  0.00     0.025 A 
ATOM     15  C   UNL d   1      56.387  -0.921  32.283  0.00  0.00     0.004 A 
ATOM     16  C   UNL d   1      55.775  -1.135  32.794  0.00  0.00     0.030 A 
ATOM     17  C   UNL d   1      55.361  -0.554  33.208  0.00  0.00     0.140 A 
ATOM     18  C   UNL d   1      55.557   0.242  33.111  0.00  0.00     0.030 A 
ATOM     19  F   UNL d   1      54.749  -0.768  33.719  0.00  0.00    -0.204 F 
ATOM     20  C   UNL d   1      56.168   0.456  32.600  0.00  0.00     0.004 A 
ENDBRANCH  13  14
ENDBRANCH  12  13
ENDBRANCH   8  12
BRANCH   2  21
ATOM     21  C   UNL d   1      59.310  -2.418  28.455  0.00  0.00     0.083 C 
BRANCH  21  22
ATOM     22  C   UNL d   1      59.662  -3.125  28.695  0.00  0.00     0.018 A 
ATOM     23  C   UNL d   1      59.249  -3.833  28.620  0.00  0.00     0.002 A 
ATOM     24  C   UNL d   1      59.601  -4.539  28.859  0.00  0.00     0.000 A 
ATOM     25  C   UNL d   1      60.365  -4.534  29.173  0.00  0.00     0.000 A 
ATOM     26  C   UNL d   1      60.772  -3.825  29.245  0.00  0.00     0.000 A 
ATOM     27  C   UNL d   1      60.420  -3.118  29.005  0.00  0.00     0.002 A 
ENDBRANCH  21  22
ENDBRANCH   2  21
TORSDOF 5
ENDMDL
MODEL 2
REMARK VINA RESULT:      -1.6      2.036      5.154
REMARK  5 active torsions:
REMARK  status: ('A' for Active; 'I' for Inactive)
REMARK    1  A    between atoms: C_7  and  N_2 
REMARK    2  A    between atoms: C_14  and  C_7 
REMARK    3  A    between atoms: O_10  and  C_9 
REMARK    4  A    between atoms: C_11  and  O_10 
REMARK    5  A    between atoms: C_13  and  C_11 
ROOT
ATOM      1  C   UNL d   1      57.334  -0.028  30.370  0.00  0.00     0.265 A 
ATOM      2  N   UNL d   1      57.148  -0.576  30.959  0.00  0.00    -0.272 N 
ATOM      3  C   UNL d   1      57.936  -0.189  29.836  0.00  0.00     0.059 A 
ATOM      4  C   UNL d   1      58.355  -0.898  29.886  0.00  0.00     0.029 A 
ATOM      5  C   UNL d   1      58.172  -1.445  30.471  0.00  0.00     0.021 A 
ATOM      6  C   UNL d   1      57.567  -1.284  31.009  0.00  0.00     0.083 A 
ATOM      7  O   UNL d   1      56.914   0.681  30.320  0.00  0.00    -0.267 OA
ATOM      8  C   UNL d   1      58.960  -1.059  29.348  0.00  0.00     0.100 A 
ATOM      9  C   UNL d   1      58.121   0.359  29.248  0.00  0.00     0.005 A 
ATOM     10  C   UNL d   1      58.726   0.199  28.709  0.00  0.00     0.002 A 
ATOM     11  C   UNL d   1      59.145  -0.510  28.760  0.00  0.00     0.025 A 
ENDROOT
BRANCH   8  12
ATOM     12  O   UNL d   1      59.379  -1.767  29.398  0.00  0.00    -0.305 OA
BRANCH  12  13
ATOM     13  C   UNL d   1      59.727  -2.089  28.723  0.00  0.00     0.122 C 
BRANCH  13  14
ATOM     14  C   UNL d   1      60.023  -2.859  28.738  0.00  0.00     0.025 A 
ATOM     15  C   UNL d   1      60.837  -2.989  28.706  0.00  0.00     0.004 A 
ATOM     16  C   UNL d   1      61.133  -3.759  28.722  0.00  0.00     0.030 A 
ATOM     17  C   UNL d   1      60.615  -4.399  28.770  0.00  0.00     0.140 A 
ATOM     18  C   UNL d   1      59.800  -4.270  28.803  0.00  0.00     0.030 A 
ATOM     19  F   UNL d   1      60.911  -5.169  28.786  0.00  0.00    -0.204 F 
ATOM     20  C   UNL d   1      59.504  -3.500  28.787  0.00  0.00     0.004 A 
ENDBRANCH  13  14
ENDBRANCH  12  13
ENDBRANCH   8  12
BRANCH   2  21
ATOM     21  C   UNL d   1      56.536  -0.409  31.501  0.00  0.00     0.083 C 
BRANCH  21  22
ATOM     22  C   UNL d   1      56.711  -0.249  32.291  0.00  0.00     0.018 A 
ATOM     23  C   UNL d   1      57.252   0.343  32.477  0.00  0.00     0.002 A 
ATOM     24  C   UNL d   1      57.427   0.503  33.267  0.00  0.00     0.000 A 
ATOM     25  C   UNL d   1      57.061   0.070  33.867  0.00  0.00     0.000 A 
ATOM     26  C   UNL d   1      56.522  -0.519  33.675  0.00  0.00     0.000 A 
ATOM     27  C   UNL d   1      56.347  -0.679  32.885  0.00  0.00     0.002 A 
ENDBRANCH  21  22
ENDBRANCH   2  21
TORSDOF 5
ENDMDL
