MODEL 1
REMARK VINA RESULT:     106.7      0.000      0.000
REMARK  5 active torsions:
REMARK  status: ('A' for Active; 'I' for Inactive)
REMARK    1  A    between atoms: C_11  and  C_4 
REMARK    2  A    between atoms: N_10  and  C_5 
REMARK    3  A    between atoms: C_12  and  C_8 
REMARK    4  A    between atoms: C_16  and  N_10 
REMARK    5  A    between atoms: C_17  and  C_16 
ROOT
ATOM      1  C   UNL d   1      60.086  47.563  50.898  0.00  0.00     0.167 A 
ATOM      2  N   UNL d   1      59.436  47.940  51.251  0.00  0.00    -0.195 N 
ATOM      3  N   UNL d   1      60.732  48.002  50.682  0.00  0.00    -0.231 NA
ATOM      4  C   UNL d   1      60.070  46.771  50.775  0.00  0.00     0.057 A 
ATOM      5  C   UNL d   1      59.463  48.736  51.370  0.00  0.00     0.167 A 
ATOM      6  N   UNL d   1      58.783  46.714  51.342  0.00  0.00    -0.161 NA
ATOM      7  C   UNL d   1      60.108  49.180  51.154  0.00  0.00     0.054 A 
ATOM      8  C   UNL d   1      60.754  48.806  50.804  0.00  0.00     0.063 A 
ATOM      9  C   UNL d   1      59.419  46.346  50.997  0.00  0.00     0.124 A 
ENDROOT
BRANCH   5  10
ATOM     10  N   UNL d   1      58.800  49.120  51.729  0.00  0.00    -0.224 NA
BRANCH  10  11
ATOM     11  C   UNL d   1      58.215  49.708  51.582  0.00  0.00     0.120 C 
BRANCH  11  12
ATOM     12  C   UNL d   1      57.748  49.683  50.887  0.00  0.00     0.101 A 
ATOM     13  N   UNL d   1      58.118  49.705  50.122  0.00  0.00    -0.242 NA
ATOM     14  C   UNL d   1      57.641  49.680  49.426  0.00  0.00     0.099 A 
ATOM     15  C   UNL d   1      56.798  49.633  49.487  0.00  0.00     0.021 A 
ATOM     16  C   UNL d   1      56.433  49.612  50.258  0.00  0.00     0.003 A 
ATOM     17  C   UNL d   1      56.907  49.636  50.948  0.00  0.00     0.021 A 
ENDBRANCH  11  12
ENDBRANCH  10  11
ENDBRANCH   5  10
BRANCH   8  18
ATOM     18  C   UNL d   1      61.434  49.259  50.574  0.00  0.00     0.036 C 
ATOM     19  C   UNL d   1      62.108  49.707  50.342  0.00  0.00     0.006 C 
ATOM     20  C   UNL d   1      61.864  49.702  51.157  0.00  0.00     0.006 C 
ATOM     21  C   UNL d   1      61.678  49.264  49.759  0.00  0.00     0.006 C 
ENDBRANCH   8  18
BRANCH   4  22
ATOM     22  C   UNL d   1      60.707  46.402  50.431  0.00  0.00     0.005 A 
ATOM     23  C   UNL d   1      61.072  45.774  50.803  0.00  0.00     0.001 A 
ATOM     24  C   UNL d   1      61.698  45.411  50.464  0.00  0.00     0.011 A 
ATOM     25  C   UNL d   1      61.986  45.662  49.737  0.00  0.00     0.058 A 
ATOM     26  C   UNL d   1      61.633  46.279  49.365  0.00  0.00     0.011 A 
ATOM     27 CL   UNL d   1      62.646  45.280  49.379  0.00  0.00    -0.082 Cl
ATOM     28  C   UNL d   1      60.989  46.651  49.714  0.00  0.00     0.001 A 
ENDBRANCH   4  22
TORSDOF 5
ENDMDL
