MODEL 1
REMARK VINA RESULT:      -0.3      0.000      0.000
REMARK  5 active torsions:
REMARK  status: ('A' for Active; 'I' for Inactive)
REMARK    1  A    between atoms: N_2  and  S_1 
REMARK    2  A    between atoms: C_6  and  S_1 
REMARK       I    between atoms: C_3  and  N_4 
REMARK    3  A    between atoms: C_5  and  C_3 
REMARK    4  A    between atoms: O_22  and  C_12 
REMARK    5  A    between atoms: O_26  and  C_16 
ROOT
ATOM      1  N   UNL d   1     -43.114-122.761 -50.288  0.00  0.00    -0.226 N 
ATOM      2  C   UNL d   1     -41.577-121.879 -52.021  0.00  0.00     0.265 C 
ATOM      3  N   UNL d   1     -42.088-122.171 -51.443  0.00  0.00    -0.269 N 
ATOM      4  C   UNL d   1     -42.655-122.098 -50.151  0.00  0.00     0.111 A 
ATOM      5  C   UNL d   1     -43.056-123.139 -51.026  0.00  0.00     0.111 A 
ATOM      6  C   UNL d   1     -42.542-122.833 -51.588  0.00  0.00     0.103 A 
ATOM      7  C   UNL d   1     -42.146-121.794 -50.705  0.00  0.00     0.103 A 
ATOM      8  O   UNL d   1     -41.127-121.212 -51.857  0.00  0.00    -0.267 OA
ENDROOT
BRANCH   2   9
ATOM      9  C   UNL d   1     -41.520-122.245 -52.738  0.00  0.00     0.059 A 
ATOM     10  C   UNL d   1     -41.802-121.875 -53.418  0.00  0.00     0.031 A 
ATOM     11  C   UNL d   1     -41.746-122.239 -54.131  0.00  0.00     0.116 A 
ATOM     12  C   UNL d   1     -41.405-122.987 -54.190  0.00  0.00     0.116 A 
ATOM     13  C   UNL d   1     -41.123-123.358 -53.510  0.00  0.00     0.026 A 
ATOM     14  C   UNL d   1     -41.179-122.994 -52.797  0.00  0.00     0.007 A 
BRANCH  11  15
ATOM     15  O   UNL d   1     -42.043-121.833 -54.803  0.00  0.00    -0.326 OA
ATOM     16  C   UNL d   1     -42.727-121.349 -54.732  0.00  0.00     0.181 C 
ENDBRANCH  11  15
BRANCH  12  17
ATOM     17  O   UNL d   1     -41.345-123.368 -54.925  0.00  0.00    -0.326 OA
ATOM     18  C   UNL d   1     -42.033-123.773 -55.102  0.00  0.00     0.181 C 
ENDBRANCH  12  17
ENDBRANCH   2   9
BRANCH   1  19
ATOM     19  S   UNL d   1     -43.623-123.053 -49.713  0.00  0.00     0.271 S 
ATOM     20  O   UNL d   1     -44.261-123.031 -50.247  0.00  0.00    -0.200 OA
ATOM     21  O   UNL d   1     -44.129-123.349 -49.121  0.00  0.00    -0.200 OA
BRANCH  19  22
ATOM     22  C   UNL d   1     -42.999-123.079 -49.173  0.00  0.00     0.104 A 
ATOM     23  C   UNL d   1     -42.919-122.504 -48.582  0.00  0.00     0.014 A 
ATOM     24  C   UNL d   1     -42.308-122.517 -48.042  0.00  0.00     0.012 A 
ATOM     25  C   UNL d   1     -41.747-123.124 -48.083  0.00  0.00     0.058 A 
ATOM     26  C   UNL d   1     -41.807-123.708 -48.664  0.00  0.00     0.012 A 
ATOM     27 CL   UNL d   1     -41.123-123.151 -47.543  0.00  0.00    -0.082 Cl
ATOM     28  C   UNL d   1     -42.438-123.687 -49.214  0.00  0.00     0.014 A 
ENDBRANCH  19  22
ENDBRANCH   1  19
TORSDOF 5
ENDMDL
MODEL 2
REMARK VINA RESULT:       1.0      1.535      2.165
REMARK  5 active torsions:
REMARK  status: ('A' for Active; 'I' for Inactive)
REMARK    1  A    between atoms: N_2  and  S_1 
REMARK    2  A    between atoms: C_6  and  S_1 
REMARK       I    between atoms: C_3  and  N_4 
REMARK    3  A    between atoms: C_5  and  C_3 
REMARK    4  A    between atoms: O_22  and  C_12 
REMARK    5  A    between atoms: O_26  and  C_16 
ROOT
ATOM      1  N   UNL d   1     -41.697-122.133 -50.942  0.00  0.00    -0.226 N 
ATOM      2  C   UNL d   1     -41.468-123.071 -53.226  0.00  0.00     0.265 C 
ATOM      3  N   UNL d   1     -41.544-122.760 -52.466  0.00  0.00    -0.269 N 
ATOM      4  C   UNL d   1     -41.376-122.875 -51.067  0.00  0.00     0.111 A 
ATOM      5  C   UNL d   1     -41.948-121.694 -51.601  0.00  0.00     0.111 A 
ATOM      6  C   UNL d   1     -41.865-122.020 -52.351  0.00  0.00     0.103 A 
ATOM      7  C   UNL d   1     -41.292-123.199 -51.807  0.00  0.00     0.103 A 
ATOM      8  O   UNL d   1     -41.143-123.817 -53.323  0.00  0.00    -0.267 OA
ENDROOT
BRANCH   2   9
ATOM      9  C   UNL d   1     -41.713-122.644 -53.867  0.00  0.00     0.059 A 
ATOM     10  C   UNL d   1     -42.420-122.830 -54.246  0.00  0.00     0.031 A 
ATOM     11  C   UNL d   1     -42.663-122.406 -54.882  0.00  0.00     0.116 A 
ATOM     12  C   UNL d   1     -42.207-121.780 -55.163  0.00  0.00     0.116 A 
ATOM     13  C   UNL d   1     -41.498-121.594 -54.784  0.00  0.00     0.026 A 
ATOM     14  C   UNL d   1     -41.256-122.017 -54.148  0.00  0.00     0.007 A 
BRANCH  11  15
ATOM     15  O   UNL d   1     -43.389-122.623 -55.243  0.00  0.00    -0.326 OA
ATOM     16  C   UNL d   1     -43.417-123.278 -55.769  0.00  0.00     0.181 C 
ENDBRANCH  11  15
BRANCH  12  17
ATOM     17  O   UNL d   1     -42.454-121.339 -55.821  0.00  0.00    -0.326 OA
ATOM     18  C   UNL d   1     -41.897-120.772 -56.019  0.00  0.00     0.181 C 
ENDBRANCH  12  17
ENDBRANCH   2   9
BRANCH   1  19
ATOM     19  S   UNL d   1     -41.772-121.823 -50.185  0.00  0.00     0.271 S 
ATOM     20  O   UNL d   1     -41.125-121.316 -50.315  0.00  0.00    -0.200 OA
ATOM     21  O   UNL d   1     -41.859-121.518 -49.416  0.00  0.00    -0.200 OA
BRANCH  19  22
ATOM     22  C   UNL d   1     -42.415-122.322 -50.045  0.00  0.00     0.104 A 
ATOM     23  C   UNL d   1     -43.171-122.134 -50.325  0.00  0.00     0.014 A 
ATOM     24  C   UNL d   1     -43.816-122.616 -50.195  0.00  0.00     0.012 A 
ATOM     25  C   UNL d   1     -43.714-123.318 -49.768  0.00  0.00     0.058 A 
ATOM     26  C   UNL d   1     -42.969-123.525 -49.479  0.00  0.00     0.012 A 
ATOM     27 CL   UNL d   1     -44.357-123.817 -49.627  0.00  0.00    -0.082 Cl
ATOM     28  C   UNL d   1     -42.313-123.024 -49.618  0.00  0.00     0.014 A 
ENDBRANCH  19  22
ENDBRANCH   1  19
TORSDOF 5
ENDMDL
MODEL 3
REMARK VINA RESULT:       1.1      2.139      5.061
REMARK  5 active torsions:
REMARK  status: ('A' for Active; 'I' for Inactive)
REMARK    1  A    between atoms: N_2  and  S_1 
REMARK    2  A    between atoms: C_6  and  S_1 
REMARK       I    between atoms: C_3  and  N_4 
REMARK    3  A    between atoms: C_5  and  C_3 
REMARK    4  A    between atoms: O_22  and  C_12 
REMARK    5  A    between atoms: O_26  and  C_16 
ROOT
ATOM      1  N   UNL d   1     -41.576-122.802 -53.516  0.00  0.00    -0.226 N 
ATOM      2  C   UNL d   1     -41.832-121.779 -51.272  0.00  0.00     0.265 C 
ATOM      3  N   UNL d   1     -41.746-122.118 -52.018  0.00  0.00    -0.269 N 
ATOM      4  C   UNL d   1     -41.338-122.034 -53.369  0.00  0.00     0.111 A 
ATOM      5  C   UNL d   1     -41.909-123.240 -52.892  0.00  0.00     0.111 A 
ATOM      6  C   UNL d   1     -41.987-122.885 -52.156  0.00  0.00     0.103 A 
ATOM      7  C   UNL d   1     -41.413-121.681 -52.642  0.00  0.00     0.103 A 
ATOM      8  O   UNL d   1     -41.584-121.006 -51.152  0.00  0.00    -0.267 OA
ENDROOT
BRANCH   2   9
ATOM      9  C   UNL d   1     -42.156-122.204 -50.666  0.00  0.00     0.059 A 
ATOM     10  C   UNL d   1     -41.675-122.652 -50.168  0.00  0.00     0.031 A 
ATOM     11  C   UNL d   1     -41.997-123.074 -49.566  0.00  0.00     0.116 A 
ATOM     12  C   UNL d   1     -42.811-123.064 -49.440  0.00  0.00     0.116 A 
ATOM     13  C   UNL d   1     -43.292-122.617 -49.938  0.00  0.00     0.026 A 
ATOM     14  C   UNL d   1     -42.971-122.195 -50.540  0.00  0.00     0.007 A 
BRANCH  11  15
ATOM     15  O   UNL d   1     -41.478-123.519 -49.078  0.00  0.00    -0.326 OA
ATOM     16  C   UNL d   1     -41.166-123.176 -48.377  0.00  0.00     0.181 C 
ENDBRANCH  11  15
BRANCH  12  17
ATOM     17  O   UNL d   1     -43.148-123.499 -48.819  0.00  0.00    -0.326 OA
ATOM     18  C   UNL d   1     -43.938-123.655 -48.966  0.00  0.00     0.181 C 
ENDBRANCH  12  17
ENDBRANCH   2   9
BRANCH   1  19
ATOM     19  S   UNL d   1     -41.491-123.140 -54.259  0.00  0.00     0.271 S 
ATOM     20  O   UNL d   1     -41.140-123.817 -53.926  0.00  0.00    -0.200 OA
ATOM     21  O   UNL d   1     -41.411-123.471 -55.019  0.00  0.00    -0.200 OA
BRANCH  19  22
ATOM     22  C   UNL d   1     -41.838-122.474 -54.602  0.00  0.00     0.104 A 
ATOM     23  C   UNL d   1     -41.380-121.822 -54.828  0.00  0.00     0.014 A 
ATOM     24  C   UNL d   1     -41.707-121.156 -55.168  0.00  0.00     0.012 A 
ATOM     25  C   UNL d   1     -42.525-121.128 -55.292  0.00  0.00     0.058 A 
ATOM     26  C   UNL d   1     -43.001-121.767 -55.074  0.00  0.00     0.012 A 
ATOM     27 CL   UNL d   1     -42.872-120.462 -55.634  0.00  0.00    -0.082 Cl
ATOM     28  C   UNL d   1     -42.656-122.446 -54.726  0.00  0.00     0.014 A 
ENDBRANCH  19  22
ENDBRANCH   1  19
TORSDOF 5
ENDMDL
MODEL 4
REMARK VINA RESULT:       2.3      2.036      4.959
REMARK  5 active torsions:
REMARK  status: ('A' for Active; 'I' for Inactive)
REMARK    1  A    between atoms: N_2  and  S_1 
REMARK    2  A    between atoms: C_6  and  S_1 
REMARK       I    between atoms: C_3  and  N_4 
REMARK    3  A    between atoms: C_5  and  C_3 
REMARK    4  A    between atoms: O_22  and  C_12 
REMARK    5  A    between atoms: O_26  and  C_16 
ROOT
ATOM      1  N   UNL d   1     -41.647-121.634 -52.732  0.00  0.00    -0.226 N 
ATOM      2  C   UNL d   1     -41.569-123.121 -50.750  0.00  0.00     0.265 C 
ATOM      3  N   UNL d   1     -41.594-122.627 -51.410  0.00  0.00    -0.269 N 
ATOM      4  C   UNL d   1     -41.211-122.326 -52.737  0.00  0.00     0.111 A 
ATOM      5  C   UNL d   1     -42.068-121.436 -52.044  0.00  0.00     0.111 A 
ATOM      6  C   UNL d   1     -42.031-121.940 -51.397  0.00  0.00     0.103 A 
ATOM      7  C   UNL d   1     -41.172-122.826 -52.098  0.00  0.00     0.103 A 
ATOM      8  O   UNL d   1     -41.124-123.809 -50.781  0.00  0.00    -0.267 OA
ENDROOT
BRANCH   2   9
ATOM      9  C   UNL d   1     -41.979-122.928 -50.081  0.00  0.00     0.059 A 
ATOM     10  C   UNL d   1     -42.795-123.038 -50.047  0.00  0.00     0.031 A 
ATOM     11  C   UNL d   1     -43.202-122.847 -49.383  0.00  0.00     0.116 A 
ATOM     12  C   UNL d   1     -42.808-122.539 -48.728  0.00  0.00     0.116 A 
ATOM     13  C   UNL d   1     -41.991-122.429 -48.762  0.00  0.00     0.026 A 
ATOM     14  C   UNL d   1     -41.585-122.620 -49.426  0.00  0.00     0.007 A 
BRANCH  11  15
ATOM     15  O   UNL d   1     -44.032-122.971 -49.382  0.00  0.00    -0.326 OA
ATOM     16  C   UNL d   1     -44.356-123.638 -49.779  0.00  0.00     0.181 C 
ENDBRANCH  11  15
BRANCH  12  17
ATOM     17  O   UNL d   1     -43.225-122.339 -48.038  0.00  0.00    -0.326 OA
ATOM     18  C   UNL d   1     -42.849-122.633 -47.374  0.00  0.00     0.181 C 
ENDBRANCH  12  17
ENDBRANCH   2   9
BRANCH   1  19
ATOM     19  S   UNL d   1     -41.672-121.142 -53.389  0.00  0.00     0.271 S 
ATOM     20  O   UNL d   1     -41.434-120.491 -52.928  0.00  0.00    -0.200 OA
ATOM     21  O   UNL d   1     -41.701-120.654 -54.063  0.00  0.00    -0.200 OA
BRANCH  19  22
ATOM     22  C   UNL d   1     -41.908-121.779 -53.858  0.00  0.00     0.104 A 
ATOM     23  C   UNL d   1     -41.365-122.182 -54.337  0.00  0.00     0.014 A 
ATOM     24  C   UNL d   1     -41.583-122.813 -54.806  0.00  0.00     0.012 A 
ATOM     25  C   UNL d   1     -42.372-123.063 -54.804  0.00  0.00     0.058 A 
ATOM     26  C   UNL d   1     -42.930-122.677 -54.333  0.00  0.00     0.012 A 
ATOM     27 CL   UNL d   1     -42.608-123.701 -55.272  0.00  0.00    -0.082 Cl
ATOM     28  C   UNL d   1     -42.697-122.029 -53.856  0.00  0.00     0.014 A 
ENDBRANCH  19  22
ENDBRANCH   1  19
TORSDOF 5
ENDMDL
