MODEL 1
REMARK VINA RESULT:      30.7      0.000      0.000
REMARK  2 active torsions:
REMARK  status: ('A' for Active; 'I' for Inactive)
REMARK    1  A    between atoms: C_9  and  C_1 
REMARK    2  A    between atoms: C_18  and  N_6 
ROOT
ATOM      1  C   UNL d   1     -52.606  24.617  33.502  0.00  0.00     0.121 A 
ATOM      2  C   UNL d   1     -51.371  25.343  33.445  0.00  0.00     0.057 A 
ATOM      3  C   UNL d   1     -51.772  24.616  33.492  0.00  0.00     0.204 A 
ATOM      4  C   UNL d   1     -51.785  26.062  33.407  0.00  0.00     0.069 A 
ATOM      5  C   UNL d   1     -53.028  25.332  33.464  0.00  0.00     0.089 A 
ATOM      6  N   UNL d   1     -52.614  26.052  33.417  0.00  0.00    -0.303 N 
ATOM      7  C   UNL d   1     -51.378  26.768  33.361  0.00  0.00     0.044 A 
ATOM      8  C   UNL d   1     -50.542  25.352  33.435  0.00  0.00     0.031 A 
ATOM      9  C   UNL d   1     -50.556  26.774  33.351  0.00  0.00     0.121 A 
ATOM     10  C   UNL d   1     -50.139  26.066  33.388  0.00  0.00     0.119 A 
ATOM     11  O   UNL d   1     -50.017  27.390  33.309  0.00  0.00    -0.299 OA
ATOM     12  O   UNL d   1     -49.342  26.245  33.369  0.00  0.00    -0.300 OA
ATOM     13  O   UNL d   1     -51.354  23.908  33.529  0.00  0.00    -0.286 OA
ATOM     14  C   UNL d   1     -49.262  27.057  33.320  0.00  0.00     0.304 A 
ENDROOT
BRANCH   1  15
ATOM     15  C   UNL d   1     -53.013  23.901  33.549  0.00  0.00     0.215 C 
ATOM     16  O   UNL d   1     -53.826  23.881  33.421  0.00  0.00    -0.644 OA
ATOM     17  O   UNL d   1     -52.607  23.208  33.723  0.00  0.00    -0.644 OA
ENDBRANCH   1  15
BRANCH   6  18
ATOM     18  C   UNL d   1     -53.032  26.761  33.380  0.00  0.00     0.080 C 
ATOM     19  C   UNL d   1     -53.861  26.750  33.398  0.00  0.00     0.021 C 
ENDBRANCH   6  18
TORSDOF 2
ENDMDL
MODEL 2
REMARK VINA RESULT:      31.4      1.342      2.269
REMARK  2 active torsions:
REMARK  status: ('A' for Active; 'I' for Inactive)
REMARK    1  A    between atoms: C_9  and  C_1 
REMARK    2  A    between atoms: C_18  and  N_6 
ROOT
ATOM      1  C   UNL d   1     -52.983  25.792  33.383  0.00  0.00     0.121 A 
ATOM      2  C   UNL d   1     -51.567  25.564  33.358  0.00  0.00     0.057 A 
ATOM      3  C   UNL d   1     -52.206  26.096  33.361  0.00  0.00     0.204 A 
ATOM      4  C   UNL d   1     -51.691  24.742  33.376  0.00  0.00     0.069 A 
ATOM      5  C   UNL d   1     -53.115  24.972  33.401  0.00  0.00     0.089 A 
ATOM      6  N   UNL d   1     -52.467  24.450  33.397  0.00  0.00    -0.303 N 
ATOM      7  C   UNL d   1     -51.054  24.231  33.372  0.00  0.00     0.044 A 
ATOM      8  C   UNL d   1     -50.792  25.856  33.337  0.00  0.00     0.031 A 
ATOM      9  C   UNL d   1     -50.287  24.523  33.351  0.00  0.00     0.121 A 
ATOM     10  C   UNL d   1     -50.156  25.336  33.333  0.00  0.00     0.119 A 
ATOM     11  O   UNL d   1     -49.560  24.145  33.343  0.00  0.00    -0.299 OA
ATOM     12  O   UNL d   1     -49.348  25.459  33.314  0.00  0.00    -0.300 OA
ATOM     13  O   UNL d   1     -52.075  26.908  33.344  0.00  0.00    -0.286 OA
ATOM     14  C   UNL d   1     -48.977  24.729  33.320  0.00  0.00     0.304 A 
ENDROOT
BRANCH   1  15
ATOM     15  C   UNL d   1     -53.623  26.313  33.387  0.00  0.00     0.215 C 
ATOM     16  O   UNL d   1     -53.492  27.125  33.380  0.00  0.00    -0.644 OA
ATOM     17  O   UNL d   1     -54.390  26.019  33.397  0.00  0.00    -0.644 OA
ENDBRANCH   1  15
BRANCH   6  18
ATOM     18  C   UNL d   1     -52.598  23.638  33.415  0.00  0.00     0.080 C 
ATOM     19  C   UNL d   1     -53.220  23.331  33.868  0.00  0.00     0.021 C 
ENDBRANCH   6  18
TORSDOF 2
ENDMDL
MODEL 3
REMARK VINA RESULT:      32.9      0.948      3.201
REMARK  2 active torsions:
REMARK  status: ('A' for Active; 'I' for Inactive)
REMARK    1  A    between atoms: C_9  and  C_1 
REMARK    2  A    between atoms: C_18  and  N_6 
ROOT
ATOM      1  C   UNL d   1     -50.473  27.345  33.402  0.00  0.00     0.121 A 
ATOM      2  C   UNL d   1     -50.576  25.915  33.382  0.00  0.00     0.057 A 
ATOM      3  C   UNL d   1     -50.102  26.597  33.407  0.00  0.00     0.204 A 
ATOM      4  C   UNL d   1     -51.405  25.966  33.353  0.00  0.00     0.069 A 
ATOM      5  C   UNL d   1     -51.301  27.405  33.374  0.00  0.00     0.089 A 
ATOM      6  N   UNL d   1     -51.764  26.713  33.349  0.00  0.00    -0.303 N 
ATOM      7  C   UNL d   1     -51.857  25.287  33.329  0.00  0.00     0.044 A 
ATOM      8  C   UNL d   1     -50.217  25.168  33.386  0.00  0.00     0.031 A 
ATOM      9  C   UNL d   1     -51.499  24.548  33.333  0.00  0.00     0.121 A 
ATOM     10  C   UNL d   1     -50.678  24.488  33.362  0.00  0.00     0.119 A 
ATOM     11  O   UNL d   1     -51.812  23.791  33.313  0.00  0.00    -0.299 OA
ATOM     12  O   UNL d   1     -50.485  23.694  33.359  0.00  0.00    -0.300 OA
ATOM     13  O   UNL d   1     -49.281  26.538  33.435  0.00  0.00    -0.286 OA
ATOM     14  C   UNL d   1     -51.178  23.261  33.329  0.00  0.00     0.304 A 
ENDROOT
BRANCH   1  15
ATOM     15  C   UNL d   1     -50.011  28.028  33.427  0.00  0.00     0.215 C 
ATOM     16  O   UNL d   1     -49.190  27.970  33.409  0.00  0.00    -0.644 OA
ATOM     17  O   UNL d   1     -50.371  28.766  33.469  0.00  0.00    -0.644 OA
ENDBRANCH   1  15
BRANCH   6  18
ATOM     18  C   UNL d   1     -52.584  26.773  33.321  0.00  0.00     0.080 C 
ATOM     19  C   UNL d   1     -52.942  27.521  33.307  0.00  0.00     0.021 C 
ENDBRANCH   6  18
TORSDOF 2
ENDMDL
