MODEL 1
REMARK VINA RESULT:     -10.2      0.000      0.000
REMARK  2 active torsions:
REMARK  status: ('A' for Active; 'I' for Inactive)
REMARK    1  A    between atoms: C_9  and  N_1 
REMARK    2  A    between atoms: C_8  and  N_2 
ROOT
ATOM      1  N   UNL d   1      52.892  32.504  53.281  0.00  0.00    -0.208 N 
ATOM      2  N   UNL d   1      53.548  32.212  53.693  0.00  0.00    -0.208 N 
ATOM      3  C   UNL d   1      53.619  31.405  53.543  0.00  0.00     0.284 A 
ATOM      4  C   UNL d   1      52.552  31.870  52.873  0.00  0.00     0.284 A 
ATOM      5  C   UNL d   1      53.001  31.192  53.034  0.00  0.00     0.125 A 
ATOM      6  O   UNL d   1      54.194  30.904  53.841  0.00  0.00    -0.265 OA
ATOM      7  O   UNL d   1      51.879  31.906  52.386  0.00  0.00    -0.265 OA
ENDROOT
BRANCH   1   8
ATOM      8  C   UNL d   1      52.624  33.280  53.279  0.00  0.00     0.085 A 
ATOM      9  C   UNL d   1      52.916  33.819  52.716  0.00  0.00     0.019 A 
ATOM     10  C   UNL d   1      52.650  34.599  52.710  0.00  0.00     0.002 A 
ATOM     11  C   UNL d   1      52.085  34.849  53.273  0.00  0.00     0.000 A 
ATOM     12  C   UNL d   1      51.795  34.308  53.833  0.00  0.00     0.002 A 
ATOM     13  C   UNL d   1      52.068  33.525  53.832  0.00  0.00     0.019 A 
ENDBRANCH   1   8
BRANCH   2  14
ATOM     14  C   UNL d   1      54.047  32.660  54.172  0.00  0.00     0.085 A 
ATOM     15  C   UNL d   1      54.706  33.039  53.850  0.00  0.00     0.019 A 
ATOM     16  C   UNL d   1      55.202  33.485  54.327  0.00  0.00     0.002 A 
ATOM     17  C   UNL d   1      55.040  33.556  55.142  0.00  0.00     0.000 A 
ATOM     18  C   UNL d   1      54.382  33.177  55.464  0.00  0.00     0.002 A 
ATOM     19  C   UNL d   1      53.889  32.732  54.978  0.00  0.00     0.019 A 
ENDBRANCH   2  14
TORSDOF 2
ENDMDL
MODEL 2
REMARK VINA RESULT:     -10.2      0.019      2.587
REMARK  2 active torsions:
REMARK  status: ('A' for Active; 'I' for Inactive)
REMARK    1  A    between atoms: C_9  and  N_1 
REMARK    2  A    between atoms: C_8  and  N_2 
ROOT
ATOM      1  N   UNL d   1      53.543  32.207  53.689  0.00  0.00    -0.208 N 
ATOM      2  N   UNL d   1      52.884  32.484  53.272  0.00  0.00    -0.208 N 
ATOM      3  C   UNL d   1      52.542  31.853  52.865  0.00  0.00     0.284 A 
ATOM      4  C   UNL d   1      53.611  31.397  53.539  0.00  0.00     0.284 A 
ATOM      5  C   UNL d   1      52.993  31.179  53.031  0.00  0.00     0.125 A 
ATOM      6  O   UNL d   1      51.879  31.887  52.386  0.00  0.00    -0.265 OA
ATOM      7  O   UNL d   1      54.195  30.890  53.844  0.00  0.00    -0.265 OA
ENDROOT
BRANCH   1   8
ATOM      8  C   UNL d   1      54.041  32.655  54.165  0.00  0.00     0.085 A 
ATOM      9  C   UNL d   1      53.882  32.731  54.978  0.00  0.00     0.019 A 
ATOM     10  C   UNL d   1      54.379  33.179  55.458  0.00  0.00     0.002 A 
ATOM     11  C   UNL d   1      55.046  33.557  55.127  0.00  0.00     0.000 A 
ATOM     12  C   UNL d   1      55.202  33.479  54.314  0.00  0.00     0.002 A 
ATOM     13  C   UNL d   1      54.697  33.027  53.838  0.00  0.00     0.019 A 
ENDBRANCH   1   8
BRANCH   2  14
ATOM     14  C   UNL d   1      52.617  33.264  53.267  0.00  0.00     0.085 A 
ATOM     15  C   UNL d   1      52.911  33.802  52.715  0.00  0.00     0.019 A 
ATOM     16  C   UNL d   1      52.644  34.578  52.711  0.00  0.00     0.002 A 
ATOM     17  C   UNL d   1      52.074  34.824  53.266  0.00  0.00     0.000 A 
ATOM     18  C   UNL d   1      51.780  34.286  53.818  0.00  0.00     0.002 A 
ATOM     19  C   UNL d   1      52.052  33.509  53.816  0.00  0.00     0.019 A 
ENDBRANCH   2  14
TORSDOF 2
ENDMDL
MODEL 3
REMARK VINA RESULT:      -9.6      1.577      2.286
REMARK  2 active torsions:
REMARK  status: ('A' for Active; 'I' for Inactive)
REMARK    1  A    between atoms: C_9  and  N_1 
REMARK    2  A    between atoms: C_8  and  N_2 
ROOT
ATOM      1  N   UNL d   1      53.203  34.113  54.281  0.00  0.00    -0.208 N 
ATOM      2  N   UNL d   1      53.748  33.515  54.455  0.00  0.00    -0.208 N 
ATOM      3  C   UNL d   1      54.242  33.774  55.063  0.00  0.00     0.284 A 
ATOM      4  C   UNL d   1      53.360  34.749  54.787  0.00  0.00     0.284 A 
ATOM      5  C   UNL d   1      54.001  34.539  55.269  0.00  0.00     0.125 A 
ATOM      6  O   UNL d   1      54.857  33.352  55.401  0.00  0.00    -0.265 OA
ATOM      7  O   UNL d   1      52.948  35.470  54.807  0.00  0.00    -0.265 OA
ENDROOT
BRANCH   1   8
ATOM      8  C   UNL d   1      52.612  34.083  53.711  0.00  0.00     0.085 A 
ATOM      9  C   UNL d   1      52.754  34.384  52.949  0.00  0.00     0.019 A 
ATOM     10  C   UNL d   1      52.163  34.355  52.375  0.00  0.00     0.002 A 
ATOM     11  C   UNL d   1      51.420  34.022  52.560  0.00  0.00     0.000 A 
ATOM     12  C   UNL d   1      51.282  33.722  53.323  0.00  0.00     0.002 A 
ATOM     13  C   UNL d   1      51.882  33.754  53.895  0.00  0.00     0.019 A 
ENDBRANCH   1   8
BRANCH   2  14
ATOM     14  C   UNL d   1      53.788  32.783  54.079  0.00  0.00     0.085 A 
ATOM     15  C   UNL d   1      54.254  32.684  53.406  0.00  0.00     0.019 A 
ATOM     16  C   UNL d   1      54.293  31.955  53.032  0.00  0.00     0.002 A 
ATOM     17  C   UNL d   1      53.859  31.310  53.334  0.00  0.00     0.000 A 
ATOM     18  C   UNL d   1      53.393  31.409  54.007  0.00  0.00     0.002 A 
ATOM     19  C   UNL d   1      53.359  32.143  54.376  0.00  0.00     0.019 A 
ENDBRANCH   2  14
TORSDOF 2
ENDMDL
MODEL 4
REMARK VINA RESULT:      -9.5      1.577      3.334
REMARK  2 active torsions:
REMARK  status: ('A' for Active; 'I' for Inactive)
REMARK    1  A    between atoms: C_9  and  N_1 
REMARK    2  A    between atoms: C_8  and  N_2 
ROOT
ATOM      1  N   UNL d   1      53.740  33.513  54.452  0.00  0.00    -0.208 N 
ATOM      2  N   UNL d   1      53.201  34.118  54.285  0.00  0.00    -0.208 N 
ATOM      3  C   UNL d   1      53.353  34.755  54.786  0.00  0.00     0.284 A 
ATOM      4  C   UNL d   1      54.231  33.777  55.062  0.00  0.00     0.284 A 
ATOM      5  C   UNL d   1      53.993  34.544  55.268  0.00  0.00     0.125 A 
ATOM      6  O   UNL d   1      52.948  35.467  54.804  0.00  0.00    -0.265 OA
ATOM      7  O   UNL d   1      54.855  33.350  55.408  0.00  0.00    -0.265 OA
ENDROOT
BRANCH   1   8
ATOM      8  C   UNL d   1      53.781  32.781  54.080  0.00  0.00     0.085 A 
ATOM      9  C   UNL d   1      54.260  32.683  53.407  0.00  0.00     0.019 A 
ATOM     10  C   UNL d   1      54.303  31.950  53.032  0.00  0.00     0.002 A 
ATOM     11  C   UNL d   1      53.864  31.305  53.329  0.00  0.00     0.000 A 
ATOM     12  C   UNL d   1      53.386  31.407  54.001  0.00  0.00     0.002 A 
ATOM     13  C   UNL d   1      53.348  32.147  54.373  0.00  0.00     0.019 A 
ENDBRANCH   1   8
BRANCH   2  14
ATOM     14  C   UNL d   1      52.610  34.085  53.711  0.00  0.00     0.085 A 
ATOM     15  C   UNL d   1      51.876  33.754  53.887  0.00  0.00     0.019 A 
ATOM     16  C   UNL d   1      51.288  33.721  53.317  0.00  0.00     0.002 A 
ATOM     17  C   UNL d   1      51.433  34.024  52.554  0.00  0.00     0.000 A 
ATOM     18  C   UNL d   1      52.167  34.356  52.377  0.00  0.00     0.002 A 
ATOM     19  C   UNL d   1      52.752  34.385  52.956  0.00  0.00     0.019 A 
ENDBRANCH   2  14
TORSDOF 2
ENDMDL
MODEL 5
REMARK VINA RESULT:      -8.7      1.105      2.478
REMARK  2 active torsions:
REMARK  status: ('A' for Active; 'I' for Inactive)
REMARK    1  A    between atoms: C_9  and  N_1 
REMARK    2  A    between atoms: C_8  and  N_2 
ROOT
ATOM      1  N   UNL d   1      52.797  32.963  53.247  0.00  0.00    -0.208 N 
ATOM      2  N   UNL d   1      53.134  33.600  53.655  0.00  0.00    -0.208 N 
ATOM      3  C   UNL d   1      52.755  34.295  53.423  0.00  0.00     0.284 A 
ATOM      4  C   UNL d   1      52.203  33.267  52.758  0.00  0.00     0.284 A 
ATOM      5  C   UNL d   1      52.178  34.089  52.867  0.00  0.00     0.125 A 
ATOM      6  O   UNL d   1      52.919  35.050  53.694  0.00  0.00    -0.265 OA
ATOM      7  O   UNL d   1      51.717  32.827  52.247  0.00  0.00    -0.265 OA
ENDROOT
BRANCH   1   8
ATOM      8  C   UNL d   1      53.011  32.173  53.314  0.00  0.00     0.085 A 
ATOM      9  C   UNL d   1      52.595  31.671  53.830  0.00  0.00     0.019 A 
ATOM     10  C   UNL d   1      52.807  30.878  53.899  0.00  0.00     0.002 A 
ATOM     11  C   UNL d   1      53.444  30.578  53.450  0.00  0.00     0.000 A 
ATOM     12  C   UNL d   1      53.858  31.083  52.935  0.00  0.00     0.002 A 
ATOM     13  C   UNL d   1      53.638  31.879  52.871  0.00  0.00     0.019 A 
ENDBRANCH   1   8
BRANCH   2  14
ATOM     14  C   UNL d   1      53.748  33.543  54.202  0.00  0.00     0.085 A 
ATOM     15  C   UNL d   1      53.584  33.432  55.003  0.00  0.00     0.019 A 
ATOM     16  C   UNL d   1      54.195  33.376  55.547  0.00  0.00     0.002 A 
ATOM     17  C   UNL d   1      54.986  33.430  55.290  0.00  0.00     0.000 A 
ATOM     18  C   UNL d   1      55.150  33.541  54.489  0.00  0.00     0.002 A 
ATOM     19  C   UNL d   1      54.531  33.597  53.949  0.00  0.00     0.019 A 
ENDBRANCH   2  14
TORSDOF 2
ENDMDL
MODEL 6
REMARK VINA RESULT:      -8.6      1.102      2.756
REMARK  2 active torsions:
REMARK  status: ('A' for Active; 'I' for Inactive)
REMARK    1  A    between atoms: C_9  and  N_1 
REMARK    2  A    between atoms: C_8  and  N_2 
ROOT
ATOM      1  N   UNL d   1      53.154  33.594  53.662  0.00  0.00    -0.208 N 
ATOM      2  N   UNL d   1      52.817  32.959  53.252  0.00  0.00    -0.208 N 
ATOM      3  C   UNL d   1      52.217  33.246  52.765  0.00  0.00     0.284 A 
ATOM      4  C   UNL d   1      52.758  34.281  53.427  0.00  0.00     0.284 A 
ATOM      5  C   UNL d   1      52.180  34.066  52.873  0.00  0.00     0.125 A 
ATOM      6  O   UNL d   1      51.744  32.802  52.265  0.00  0.00    -0.265 OA
ATOM      7  O   UNL d   1      52.912  35.052  53.698  0.00  0.00    -0.265 OA
ENDROOT
BRANCH   1   8
ATOM      8  C   UNL d   1      53.769  33.552  54.206  0.00  0.00     0.085 A 
ATOM      9  C   UNL d   1      53.604  33.444  55.014  0.00  0.00     0.019 A 
ATOM     10  C   UNL d   1      54.218  33.401  55.561  0.00  0.00     0.002 A 
ATOM     11  C   UNL d   1      55.010  33.467  55.302  0.00  0.00     0.000 A 
ATOM     12  C   UNL d   1      55.171  33.575  54.493  0.00  0.00     0.002 A 
ATOM     13  C   UNL d   1      54.547  33.617  53.949  0.00  0.00     0.019 A 
ENDBRANCH   1   8
BRANCH   2  14
ATOM     14  C   UNL d   1      53.048  32.171  53.322  0.00  0.00     0.085 A 
ATOM     15  C   UNL d   1      53.669  31.876  52.867  0.00  0.00     0.019 A 
ATOM     16  C   UNL d   1      53.898  31.092  52.937  0.00  0.00     0.002 A 
ATOM     17  C   UNL d   1      53.502  30.590  53.471  0.00  0.00     0.000 A 
ATOM     18  C   UNL d   1      52.880  30.885  53.927  0.00  0.00     0.002 A 
ATOM     19  C   UNL d   1      52.657  31.673  53.851  0.00  0.00     0.019 A 
ENDBRANCH   2  14
TORSDOF 2
ENDMDL
