MODEL 1
REMARK VINA RESULT:      10.1      0.000      0.000
REMARK  1 active torsions:
REMARK  status: ('A' for Active; 'I' for Inactive)
REMARK       I    between atoms: N_2  and  C_1 
REMARK       I    between atoms: N_4  and  C_1 
REMARK    1  A    between atoms: C_5  and  N_2 
ROOT
ATOM      1  N   UNL d   1      46.562 -18.551  42.832  0.00  0.00    -0.242 NA
ATOM      2  C   UNL d   1      46.586 -19.757  42.022  0.00  0.00     0.105 A 
ATOM      3  C   UNL d   1      46.464 -19.866  43.456  0.00  0.00     0.019 A 
ATOM      4  C   UNL d   1      46.486 -19.029  43.519  0.00  0.00     0.082 A 
ATOM      5  C   UNL d   1      46.513 -20.225  42.702  0.00  0.00     0.022 A 
ATOM      6  C   UNL d   1      46.614 -18.920  42.089  0.00  0.00     0.118 A 
ATOM      7  C   UNL d   1      46.382 -20.330  44.140  0.00  0.00     0.002 A 
ATOM      8  C   UNL d   1      46.435 -18.667  44.262  0.00  0.00     0.019 A 
ATOM      9  C   UNL d   1      46.332 -19.963  44.890  0.00  0.00     0.000 A 
ATOM     10  C   UNL d   1      46.359 -19.137  44.954  0.00  0.00     0.002 A 
ENDROOT
BRANCH   2  11
ATOM     11  N   UNL d   1      46.646 -20.115  41.277  0.00  0.00    -0.191 NA
ATOM     12  C   UNL d   1      46.546 -19.665  40.586  0.00  0.00     0.354 C 
ATOM     13  N   UNL d   1      46.391 -18.846  40.638  0.00  0.00    -0.253 N 
ATOM     14  O   UNL d   1      46.599 -20.029  39.829  0.00  0.00    -0.244 OA
ATOM     15  C   UNL d   1      46.327 -18.487  41.386  0.00  0.00     0.104 C 
ATOM     16  C   UNL d   1      46.284 -18.400  39.943  0.00  0.00     0.104 C 
ENDBRANCH   2  11
TORSDOF 1
ENDMDL
