MODEL 1
REMARK VINA RESULT:      50.5      0.000      0.000
REMARK  5 active torsions:
REMARK  status: ('A' for Active; 'I' for Inactive)
REMARK    1  A    between atoms: N_2  and  S_1 
REMARK    2  A    between atoms: C_4  and  S_1 
REMARK    3  A    between atoms: C_3  and  N_2 
REMARK       I    between atoms: C_6  and  N_2 
REMARK    4  A    between atoms: O_13  and  C_7 
REMARK    5  A    between atoms: C_14  and  O_13 
ROOT
ATOM      1  C   UNL d   1      14.140  13.508  -1.493  0.00  0.00     0.078 A 
ATOM      2  C   UNL d   1      14.807  13.431  -0.992  0.00  0.00     0.019 A 
ATOM      3  C   UNL d   1      15.090  14.809  -1.151  0.00  0.00     0.103 A 
ATOM      4  C   UNL d   1      15.265  14.095  -0.836  0.00  0.00     0.024 A 
ATOM      5  C   UNL d   1      13.987  14.247  -1.800  0.00  0.00     0.020 A 
ATOM      6  C   UNL d   1      14.441  14.920  -1.649  0.00  0.00     0.026 A 
ATOM      7  C   UNL d   1      15.004  12.710  -0.659  0.00  0.00     0.002 A 
ATOM      8  C   UNL d   1      15.920  14.041  -0.349  0.00  0.00     0.002 A 
ATOM      9  C   UNL d   1      15.657  12.648  -0.171  0.00  0.00     0.000 A 
ATOM     10  C   UNL d   1      16.118  13.319  -0.015  0.00  0.00     0.000 A 
ENDROOT
BRANCH   1  11
ATOM     11  N   UNL d   1      13.679  12.849  -1.652  0.00  0.00    -0.198 N 
ATOM     12  C   UNL d   1      13.294  12.447  -1.046  0.00  0.00     0.274 C 
ATOM     13  O   UNL d   1      13.371  12.706  -0.279  0.00  0.00    -0.266 OA
ATOM     14  C   UNL d   1      12.791  11.779  -0.966  0.00  0.00     0.067 C 
BRANCH  11  15
ATOM     15  S   UNL d   1      13.607  12.589  -2.458  0.00  0.00     0.279 S 
ATOM     16  O   UNL d   1      13.824  11.824  -2.191  0.00  0.00    -0.199 OA
ATOM     17  O   UNL d   1      13.399  13.359  -2.663  0.00  0.00    -0.199 OA
BRANCH  15  18
ATOM     18  C   UNL d   1      13.542  12.328  -3.225  0.00  0.00     0.133 A 
ATOM     19  S   UNL d   1      12.876  12.384  -3.717  0.00  0.00    -0.074 SA
ATOM     20  C   UNL d   1      13.010  12.061  -4.460  0.00  0.00     0.036 A 
ATOM     21  C   UNL d   1      13.799  11.780  -4.456  0.00  0.00     0.008 A 
ATOM     22  C   UNL d   1      14.142  11.930  -3.719  0.00  0.00     0.020 A 
ENDBRANCH  15  18
ENDBRANCH  11  15
ENDBRANCH   1  11
BRANCH   3  23
ATOM     23  O   UNL d   1      15.589  15.500  -0.974  0.00  0.00    -0.273 OA
BRANCH  23  24
ATOM     24  C   UNL d   1      15.444  16.258  -1.327  0.00  0.00     0.300 C 
ATOM     25  O   UNL d   1      15.296  16.332  -2.142  0.00  0.00    -0.259 OA
ATOM     26  C   UNL d   1      15.446  17.042  -0.795  0.00  0.00     0.074 C 
ENDBRANCH  23  24
ENDBRANCH   3  23
TORSDOF 5
ENDMDL
