MODEL 1
REMARK VINA RESULT:      95.0      0.000      0.000
REMARK  5 active torsions:
REMARK  status: ('A' for Active; 'I' for Inactive)
REMARK    1  A    between atoms: C_10  and  C_4 
REMARK    2  A    between atoms: N_12  and  C_5 
REMARK    3  A    between atoms: N_11  and  C_22 
REMARK    4  A    between atoms: C_21  and  N_12 
REMARK    5  A    between atoms: C_22  and  C_21 
ROOT
ATOM      1  N   UNL d   1      60.495  48.553  50.799  0.00  0.00    -0.195 N 
ATOM      2  C   UNL d   1      61.005  47.912  50.885  0.00  0.00     0.167 A 
ATOM      3  N   UNL d   1      60.227  48.558  50.026  0.00  0.00    -0.163 NA
ATOM      4  C   UNL d   1      61.048  47.526  50.165  0.00  0.00     0.055 A 
ATOM      5  C   UNL d   1      60.343  49.049  51.439  0.00  0.00     0.167 A 
ATOM      6  C   UNL d   1      60.574  47.919  49.640  0.00  0.00     0.104 A 
ATOM      7  N   UNL d   1      61.364  47.765  51.612  0.00  0.00    -0.227 NA
ATOM      8  C   UNL d   1      60.705  48.901  52.174  0.00  0.00     0.058 A 
ATOM      9  C   UNL d   1      61.210  48.266  52.260  0.00  0.00     0.086 A 
ATOM     10  C   UNL d   1      60.462  47.706  48.846  0.00  0.00     0.023 C 
ATOM     11  C   UNL d   1      61.569  48.127  53.004  0.00  0.00     0.021 C 
ENDROOT
BRANCH   5  12
ATOM     12  N   UNL d   1      59.833  49.690  51.353  0.00  0.00    -0.224 NA
BRANCH  12  13
ATOM     13  C   UNL d   1      59.188  49.639  50.844  0.00  0.00     0.120 C 
BRANCH  13  14
ATOM     14  C   UNL d   1      58.449  49.381  51.130  0.00  0.00     0.101 C 
BRANCH  14  15
ATOM     15  N   UNL d   1      57.779  49.461  50.661  0.00  0.00    -0.298 N 
ATOM     16  C   UNL d   1      57.027  49.379  50.999  0.00  0.00     0.107 A 
ATOM     17  C   UNL d   1      56.358  49.459  50.530  0.00  0.00     0.142 A 
ATOM     18  O   UNL d   1      56.423  49.622  49.717  0.00  0.00    -0.300 OA
ATOM     19  C   UNL d   1      57.179  49.705  49.377  0.00  0.00     0.142 A 
ATOM     20  C   UNL d   1      57.855  49.625  49.847  0.00  0.00     0.107 A 
ENDBRANCH  14  15
ENDBRANCH  13  14
ENDBRANCH  12  13
ENDBRANCH   5  12
BRANCH   4  21
ATOM     21  C   UNL d   1      61.468  46.854  49.921  0.00  0.00     0.004 A 
ATOM     22  C   UNL d   1      62.166  46.944  49.483  0.00  0.00     0.001 A 
ATOM     23  C   UNL d   1      62.583  46.275  49.241  0.00  0.00     0.011 A 
ATOM     24  C   UNL d   1      62.305  45.524  49.436  0.00  0.00     0.058 A 
ATOM     25  C   UNL d   1      61.614  45.429  49.871  0.00  0.00     0.011 A 
ATOM     26 CL   UNL d   1      62.731  44.854  49.189  0.00  0.00    -0.082 Cl
ATOM     27  C   UNL d   1      61.193  46.100  50.115  0.00  0.00     0.001 A 
ENDBRANCH   4  21
TORSDOF 5
ENDMDL
MODEL 2
REMARK VINA RESULT:      95.6      1.073      1.588
REMARK  5 active torsions:
REMARK  status: ('A' for Active; 'I' for Inactive)
REMARK    1  A    between atoms: C_10  and  C_4 
REMARK    2  A    between atoms: N_12  and  C_5 
REMARK    3  A    between atoms: N_11  and  C_22 
REMARK    4  A    between atoms: C_21  and  N_12 
REMARK    5  A    between atoms: C_22  and  C_21 
ROOT
ATOM      1  N   UNL d   1      59.833  48.360  51.044  0.00  0.00    -0.195 N 
ATOM      2  C   UNL d   1      60.440  47.953  50.663  0.00  0.00     0.167 A 
ATOM      3  N   UNL d   1      59.339  47.806  51.389  0.00  0.00    -0.163 NA
ATOM      4  C   UNL d   1      60.316  47.153  50.777  0.00  0.00     0.055 A 
ATOM      5  C   UNL d   1      59.811  49.183  51.024  0.00  0.00     0.167 A 
ATOM      6  C   UNL d   1      59.645  47.061  51.219  0.00  0.00     0.104 A 
ATOM      7  N   UNL d   1      61.027  48.370  50.262  0.00  0.00    -0.227 NA
ATOM      8  C   UNL d   1      60.404  49.604  50.618  0.00  0.00     0.058 A 
ATOM      9  C   UNL d   1      61.006  49.202  50.242  0.00  0.00     0.086 A 
ATOM     10  C   UNL d   1      59.326  46.334  51.458  0.00  0.00     0.023 C 
ATOM     11  C   UNL d   1      61.597  49.636  49.837  0.00  0.00     0.021 C 
ENDROOT
BRANCH   5  12
ATOM     12  N   UNL d   1      59.203  49.590  51.404  0.00  0.00    -0.224 NA
BRANCH  12  13
ATOM     13  C   UNL d   1      58.471  49.675  51.039  0.00  0.00     0.120 C 
BRANCH  13  14
ATOM     14  C   UNL d   1      57.951  49.026  50.988  0.00  0.00     0.101 C 
BRANCH  14  15
ATOM     15  N   UNL d   1      57.325  49.045  50.457  0.00  0.00    -0.298 N 
ATOM     16  C   UNL d   1      57.265  49.668  49.914  0.00  0.00     0.107 A 
ATOM     17  C   UNL d   1      56.638  49.688  49.383  0.00  0.00     0.142 A 
ATOM     18  O   UNL d   1      56.061  49.089  49.382  0.00  0.00    -0.300 OA
ATOM     19  C   UNL d   1      56.121  48.462  49.928  0.00  0.00     0.142 A 
ATOM     20  C   UNL d   1      56.751  48.441  50.464  0.00  0.00     0.107 A 
ENDBRANCH  14  15
ENDBRANCH  13  14
ENDBRANCH  12  13
ENDBRANCH   5  12
BRANCH   4  21
ATOM     21  C   UNL d   1      60.742  46.486  50.526  0.00  0.00     0.004 A 
ATOM     22  C   UNL d   1      60.748  45.803  50.998  0.00  0.00     0.001 A 
ATOM     23  C   UNL d   1      61.171  45.141  50.748  0.00  0.00     0.011 A 
ATOM     24  C   UNL d   1      61.583  45.161  50.034  0.00  0.00     0.058 A 
ATOM     25  C   UNL d   1      61.580  45.835  49.563  0.00  0.00     0.011 A 
ATOM     26 CL   UNL d   1      62.007  44.490  49.788  0.00  0.00    -0.082 Cl
ATOM     27  C   UNL d   1      61.155  46.502  49.813  0.00  0.00     0.001 A 
ENDBRANCH   4  21
TORSDOF 5
ENDMDL
