MODEL 1
REMARK VINA RESULT:      -8.1      0.000      0.000
REMARK  4 active torsions:
REMARK  status: ('A' for Active; 'I' for Inactive)
REMARK    1  A    between atoms: C_2  and  C_1 
REMARK       I    between atoms: N_7  and  C_2 
REMARK    2  A    between atoms: C_9  and  N_7 
REMARK    3  A    between atoms: O_16  and  C_10 
REMARK    4  A    between atoms: C_18  and  O_16 
ROOT
ATOM      1  C   UNL d   1     -48.214  14.535  22.409  0.00  0.00     0.280 C 
ATOM      2  N   UNL d   1     -47.503  14.585  22.822  0.00  0.00    -0.208 NA
ATOM      3  O   UNL d   1     -48.671  15.216  22.305  0.00  0.00    -0.265 OA
ENDROOT
BRANCH   1   4
ATOM      4  C   UNL d   1     -48.465  13.812  22.102  0.00  0.00     0.065 A 
ATOM      5  C   UNL d   1     -49.161  13.418  22.306  0.00  0.00     0.011 A 
ATOM      6  C   UNL d   1     -49.186  12.724  21.868  0.00  0.00     0.030 A 
ATOM      7  C   UNL d   1     -49.774  13.600  22.831  0.00  0.00     0.001 A 
ATOM      8  C   UNL d   1     -49.825  12.203  21.951  0.00  0.00     0.006 A 
ATOM      9  S   UNL d   1     -48.510  12.689  21.397  0.00  0.00    -0.086 SA
ATOM     10  C   UNL d   1     -50.422  12.381  22.463  0.00  0.00     0.001 A 
ATOM     11  C   UNL d   1     -50.403  13.080  22.908  0.00  0.00     0.000 A 
ATOM     12  C   UNL d   1     -48.066  13.370  21.549  0.00  0.00     0.040 A 
ENDBRANCH   1   4
BRANCH   2  13
ATOM     13  C   UNL d   1     -47.039  13.900  22.929  0.00  0.00     0.085 A 
ATOM     14  C   UNL d   1     -47.160  13.426  23.591  0.00  0.00     0.021 A 
ATOM     15  C   UNL d   1     -46.702  12.749  23.698  0.00  0.00     0.026 A 
ATOM     16  C   UNL d   1     -46.119  12.542  23.142  0.00  0.00     0.100 A 
ATOM     17  C   UNL d   1     -46.005  13.023  22.482  0.00  0.00     0.026 A 
ATOM     18  C   UNL d   1     -46.466  13.704  22.374  0.00  0.00     0.021 A 
BRANCH  16  19
ATOM     19  O   UNL d   1     -45.651  11.863  23.237  0.00  0.00    -0.305 OA
BRANCH  19  20
ATOM     20  C   UNL d   1     -45.923  11.231  23.691  0.00  0.00     0.123 C 
ATOM     21  C   UNL d   1     -45.533  10.502  23.664  0.00  0.00     0.029 C 
ENDBRANCH  19  20
ENDBRANCH  16  19
ENDBRANCH   2  13
TORSDOF 4
ENDMDL
MODEL 2
REMARK VINA RESULT:      -7.9      1.539      3.950
REMARK  4 active torsions:
REMARK  status: ('A' for Active; 'I' for Inactive)
REMARK    1  A    between atoms: C_2  and  C_1 
REMARK       I    between atoms: N_7  and  C_2 
REMARK    2  A    between atoms: C_9  and  N_7 
REMARK    3  A    between atoms: O_16  and  C_10 
REMARK    4  A    between atoms: C_18  and  O_16 
ROOT
ATOM      1  C   UNL d   1     -48.497  11.423  22.697  0.00  0.00     0.280 C 
ATOM      2  N   UNL d   1     -49.267  11.436  22.989  0.00  0.00    -0.208 NA
ATOM      3  O   UNL d   1     -48.074  10.713  22.698  0.00  0.00    -0.265 OA
ENDROOT
BRANCH   1   4
ATOM      4  C   UNL d   1     -48.152  12.114  22.407  0.00  0.00     0.065 A 
ATOM      5  C   UNL d   1     -47.478  12.481  22.710  0.00  0.00     0.011 A 
ATOM      6  C   UNL d   1     -47.336  13.148  22.252  0.00  0.00     0.030 A 
ATOM      7  C   UNL d   1     -46.976  12.295  23.340  0.00  0.00     0.001 A 
ATOM      8  C   UNL d   1     -46.689  13.637  22.421  0.00  0.00     0.006 A 
ATOM      9  S   UNL d   1     -47.919  13.194  21.670  0.00  0.00    -0.086 SA
ATOM     10  C   UNL d   1     -46.200  13.456  23.036  0.00  0.00     0.001 A 
ATOM     11  C   UNL d   1     -46.338  12.785  23.501  0.00  0.00     0.000 A 
ATOM     12  C   UNL d   1     -48.423  12.546  21.774  0.00  0.00     0.040 A 
ENDBRANCH   1   4
BRANCH   2  13
ATOM     13  C   UNL d   1     -49.696  12.150  22.990  0.00  0.00     0.085 A 
ATOM     14  C   UNL d   1     -49.802  12.562  23.696  0.00  0.00     0.021 A 
ATOM     15  C   UNL d   1     -50.226  13.268  23.698  0.00  0.00     0.026 A 
ATOM     16  C   UNL d   1     -50.549  13.568  22.992  0.00  0.00     0.100 A 
ATOM     17  C   UNL d   1     -50.438  13.150  22.290  0.00  0.00     0.026 A 
ATOM     18  C   UNL d   1     -50.011  12.439  22.288  0.00  0.00     0.021 A 
BRANCH  16  19
ATOM     19  O   UNL d   1     -50.978  14.278  22.980  0.00  0.00    -0.305 OA
BRANCH  19  20
ATOM     20  C   UNL d   1     -50.671  14.956  23.335  0.00  0.00     0.123 C 
ATOM     21  C   UNL d   1     -51.064  15.680  23.258  0.00  0.00     0.029 C 
ENDBRANCH  19  20
ENDBRANCH  16  19
ENDBRANCH   2  13
TORSDOF 4
ENDMDL
MODEL 3
REMARK VINA RESULT:      -7.3      1.717      2.418
REMARK  4 active torsions:
REMARK  status: ('A' for Active; 'I' for Inactive)
REMARK    1  A    between atoms: C_2  and  C_1 
REMARK       I    between atoms: N_7  and  C_2 
REMARK    2  A    between atoms: C_9  and  N_7 
REMARK    3  A    between atoms: O_16  and  C_10 
REMARK    4  A    between atoms: C_18  and  O_16 
ROOT
ATOM      1  C   UNL d   1     -49.818  11.842  23.099  0.00  0.00     0.280 C 
ATOM      2  N   UNL d   1     -49.104  11.437  23.032  0.00  0.00    -0.208 NA
ATOM      3  O   UNL d   1     -50.526  11.415  23.129  0.00  0.00    -0.265 OA
ENDROOT
BRANCH   1   4
ATOM      4  C   UNL d   1     -49.826  12.666  23.135  0.00  0.00     0.065 A 
ATOM      5  C   UNL d   1     -50.214  13.168  22.607  0.00  0.00     0.011 A 
ATOM      6  C   UNL d   1     -50.072  13.938  22.854  0.00  0.00     0.030 A 
ATOM      7  C   UNL d   1     -50.676  13.025  21.937  0.00  0.00     0.001 A 
ATOM      8  C   UNL d   1     -50.393  14.575  22.432  0.00  0.00     0.006 A 
ATOM      9  S   UNL d   1     -49.600  13.913  23.530  0.00  0.00    -0.086 SA
ATOM     10  C   UNL d   1     -50.843  14.435  21.778  0.00  0.00     0.001 A 
ATOM     11  C   UNL d   1     -50.990  13.661  21.524  0.00  0.00     0.000 A 
ATOM     12  C   UNL d   1     -49.451  13.116  23.698  0.00  0.00     0.040 A 
ENDBRANCH   1   4
BRANCH   2  13
ATOM     13  C   UNL d   1     -48.389  11.864  23.002  0.00  0.00     0.085 A 
ATOM     14  C   UNL d   1     -48.077  12.084  22.271  0.00  0.00     0.021 A 
ATOM     15  C   UNL d   1     -47.370  12.507  22.239  0.00  0.00     0.026 A 
ATOM     16  C   UNL d   1     -46.970  12.712  22.939  0.00  0.00     0.100 A 
ATOM     17  C   UNL d   1     -47.289  12.488  23.665  0.00  0.00     0.026 A 
ATOM     18  C   UNL d   1     -48.001  12.063  23.697  0.00  0.00     0.021 A 
BRANCH  16  19
ATOM     19  O   UNL d   1     -46.258  13.137  22.921  0.00  0.00    -0.305 OA
BRANCH  19  20
ATOM     20  C   UNL d   1     -45.873  13.275  22.205  0.00  0.00     0.123 C 
ATOM     21  C   UNL d   1     -45.055  13.400  22.190  0.00  0.00     0.029 C 
ENDBRANCH  19  20
ENDBRANCH  16  19
ENDBRANCH   2  13
TORSDOF 4
ENDMDL
MODEL 4
REMARK VINA RESULT:      -6.1      8.437      9.744
REMARK  4 active torsions:
REMARK  status: ('A' for Active; 'I' for Inactive)
REMARK    1  A    between atoms: C_2  and  C_1 
REMARK       I    between atoms: N_7  and  C_2 
REMARK    2  A    between atoms: C_9  and  N_7 
REMARK    3  A    between atoms: O_16  and  C_10 
REMARK    4  A    between atoms: C_18  and  O_16 
ROOT
ATOM      1  C   UNL d   1     -40.784  15.050  17.617  0.00  0.00     0.280 C 
ATOM      2  N   UNL d   1     -40.979  15.452  18.310  0.00  0.00    -0.208 NA
ATOM      3  O   UNL d   1     -41.253  15.151  16.944  0.00  0.00    -0.265 OA
ENDROOT
BRANCH   1   4
ATOM      4  C   UNL d   1     -40.128  14.552  17.598  0.00  0.00     0.065 A 
ATOM      5  C   UNL d   1     -39.477  14.632  17.096  0.00  0.00     0.011 A 
ATOM      6  C   UNL d   1     -38.959  14.018  17.268  0.00  0.00     0.030 A 
ATOM      7  C   UNL d   1     -39.288  15.182  16.508  0.00  0.00     0.001 A 
ATOM      8  C   UNL d   1     -38.246  13.947  16.851  0.00  0.00     0.006 A 
ATOM      9  S   UNL d   1     -39.287  13.561  17.871  0.00  0.00    -0.086 SA
ATOM     10  C   UNL d   1     -38.063  14.484  16.278  0.00  0.00     0.001 A 
ATOM     11  C   UNL d   1     -38.581  15.105  16.100  0.00  0.00     0.000 A 
ATOM     12  C   UNL d   1     -40.015  13.901  18.071  0.00  0.00     0.040 A 
ENDBRANCH   1   4
BRANCH   2  13
ATOM     13  C   UNL d   1     -40.508  15.352  18.991  0.00  0.00     0.085 A 
ATOM     14  C   UNL d   1     -39.910  15.894  19.155  0.00  0.00     0.021 A 
ATOM     15  C   UNL d   1     -39.444  15.797  19.827  0.00  0.00     0.026 A 
ATOM     16  C   UNL d   1     -39.574  15.156  20.341  0.00  0.00     0.100 A 
ATOM     17  C   UNL d   1     -40.175  14.618  20.170  0.00  0.00     0.026 A 
ATOM     18  C   UNL d   1     -40.644  14.716  19.492  0.00  0.00     0.021 A 
BRANCH  16  19
ATOM     19  O   UNL d   1     -39.112  15.046  21.022  0.00  0.00    -0.305 OA
BRANCH  19  20
ATOM     20  C   UNL d   1     -39.299  15.444  21.720  0.00  0.00     0.123 C 
ATOM     21  C   UNL d   1     -38.840  15.330  22.399  0.00  0.00     0.029 C 
ENDBRANCH  19  20
ENDBRANCH  16  19
ENDBRANCH   2  13
TORSDOF 4
ENDMDL
MODEL 5
REMARK VINA RESULT:      -5.8      8.622      9.850
REMARK  4 active torsions:
REMARK  status: ('A' for Active; 'I' for Inactive)
REMARK    1  A    between atoms: C_2  and  C_1 
REMARK       I    between atoms: N_7  and  C_2 
REMARK    2  A    between atoms: C_9  and  N_7 
REMARK    3  A    between atoms: O_16  and  C_10 
REMARK    4  A    between atoms: C_18  and  O_16 
ROOT
ATOM      1  C   UNL d   1     -38.514  13.816  19.417  0.00  0.00     0.280 C 
ATOM      2  N   UNL d   1     -38.735  13.524  18.680  0.00  0.00    -0.208 NA
ATOM      3  O   UNL d   1     -38.058  13.345  19.921  0.00  0.00    -0.265 OA
ENDROOT
BRANCH   1   4
ATOM      4  C   UNL d   1     -38.745  14.573  19.650  0.00  0.00     0.065 A 
ATOM      5  C   UNL d   1     -39.229  14.752  20.295  0.00  0.00     0.011 A 
ATOM      6  C   UNL d   1     -39.313  15.568  20.317  0.00  0.00     0.030 A 
ATOM      7  C   UNL d   1     -39.602  14.280  20.862  0.00  0.00     0.001 A 
ATOM      8  C   UNL d   1     -39.772  15.922  20.909  0.00  0.00     0.006 A 
ATOM      9  S   UNL d   1     -38.885  15.892  19.691  0.00  0.00    -0.086 SA
ATOM     10  C   UNL d   1     -40.136  15.461  21.462  0.00  0.00     0.001 A 
ATOM     11  C   UNL d   1     -40.055  14.638  21.445  0.00  0.00     0.000 A 
ATOM     12  C   UNL d   1     -38.534  15.265  19.281  0.00  0.00     0.040 A 
ENDBRANCH   1   4
BRANCH   2  13
ATOM     13  C   UNL d   1     -39.195  13.997  18.170  0.00  0.00     0.085 A 
ATOM     14  C   UNL d   1     -40.015  13.924  18.175  0.00  0.00     0.021 A 
ATOM     15  C   UNL d   1     -40.471  14.391  17.672  0.00  0.00     0.026 A 
ATOM     16  C   UNL d   1     -40.107  14.935  17.158  0.00  0.00     0.100 A 
ATOM     17  C   UNL d   1     -39.286  15.002  17.159  0.00  0.00     0.026 A 
ATOM     18  C   UNL d   1     -38.827  14.532  17.666  0.00  0.00     0.021 A 
BRANCH  16  19
ATOM     19  O   UNL d   1     -40.554  15.411  16.646  0.00  0.00    -0.305 OA
BRANCH  19  20
ATOM     20  C   UNL d   1     -41.326  15.624  16.842  0.00  0.00     0.123 C 
ATOM     21  C   UNL d   1     -41.836  15.922  16.263  0.00  0.00     0.029 C 
ENDBRANCH  19  20
ENDBRANCH  16  19
ENDBRANCH   2  13
TORSDOF 4
ENDMDL
MODEL 6
REMARK VINA RESULT:      -5.8      8.231      9.449
REMARK  4 active torsions:
REMARK  status: ('A' for Active; 'I' for Inactive)
REMARK    1  A    between atoms: C_2  and  C_1 
REMARK       I    between atoms: N_7  and  C_2 
REMARK    2  A    between atoms: C_9  and  N_7 
REMARK    3  A    between atoms: O_16  and  C_10 
REMARK    4  A    between atoms: C_18  and  O_16 
ROOT
ATOM      1  C   UNL d   1     -40.647  15.667  20.365  0.00  0.00     0.280 C 
ATOM      2  N   UNL d   1     -41.010  15.609  19.628  0.00  0.00    -0.208 NA
ATOM      3  O   UNL d   1     -41.088  15.922  21.016  0.00  0.00    -0.265 OA
ENDROOT
BRANCH   1   4
ATOM      4  C   UNL d   1     -39.850  15.473  20.451  0.00  0.00     0.065 A 
ATOM      5  C   UNL d   1     -39.550  14.868  20.926  0.00  0.00     0.011 A 
ATOM      6  C   UNL d   1     -38.733  14.875  20.842  0.00  0.00     0.030 A 
ATOM      7  C   UNL d   1     -39.912  14.313  21.420  0.00  0.00     0.001 A 
ATOM      8  C   UNL d   1     -38.269  14.326  21.255  0.00  0.00     0.006 A 
ATOM      9  S   UNL d   1     -38.529  15.480  20.320  0.00  0.00    -0.086 SA
ATOM     10  C   UNL d   1     -38.623  13.785  21.737  0.00  0.00     0.001 A 
ATOM     11  C   UNL d   1     -39.446  13.773  21.825  0.00  0.00     0.000 A 
ATOM     12  C   UNL d   1     -39.231  15.847  20.082  0.00  0.00     0.040 A 
ENDBRANCH   1   4
BRANCH   2  13
ATOM     13  C   UNL d   1     -40.568  15.353  18.970  0.00  0.00     0.085 A 
ATOM     14  C   UNL d   1     -40.590  14.559  18.748  0.00  0.00     0.021 A 
ATOM     15  C   UNL d   1     -40.154  14.304  18.098  0.00  0.00     0.026 A 
ATOM     16  C   UNL d   1     -39.691  14.842  17.663  0.00  0.00     0.100 A 
ATOM     17  C   UNL d   1     -39.675  15.634  17.891  0.00  0.00     0.026 A 
ATOM     18  C   UNL d   1     -40.114  15.891  18.547  0.00  0.00     0.021 A 
BRANCH  16  19
ATOM     19  O   UNL d   1     -39.247  14.599  17.006  0.00  0.00    -0.305 OA
BRANCH  19  20
ATOM     20  C   UNL d   1     -38.876  13.863  17.004  0.00  0.00     0.123 C 
ATOM     21  C   UNL d   1     -38.367  13.655  16.385  0.00  0.00     0.029 C 
ENDBRANCH  19  20
ENDBRANCH  16  19
ENDBRANCH   2  13
TORSDOF 4
ENDMDL
MODEL 7
REMARK VINA RESULT:      -5.1      8.633     10.350
REMARK  4 active torsions:
REMARK  status: ('A' for Active; 'I' for Inactive)
REMARK    1  A    between atoms: C_2  and  C_1 
REMARK       I    between atoms: N_7  and  C_2 
REMARK    2  A    between atoms: C_9  and  N_7 
REMARK    3  A    between atoms: O_16  and  C_10 
REMARK    4  A    between atoms: C_18  and  O_16 
ROOT
ATOM      1  C   UNL d   1     -38.511  15.075  17.042  0.00  0.00     0.280 C 
ATOM      2  N   UNL d   1     -39.171  15.559  17.135  0.00  0.00    -0.208 NA
ATOM      3  O   UNL d   1     -38.050  15.144  16.360  0.00  0.00    -0.265 OA
ENDROOT
BRANCH   1   4
ATOM      4  C   UNL d   1     -38.314  14.526  17.625  0.00  0.00     0.065 A 
ATOM      5  C   UNL d   1     -38.266  13.709  17.522  0.00  0.00     0.011 A 
ATOM      6  C   UNL d   1     -38.054  13.383  18.245  0.00  0.00     0.030 A 
ATOM      7  C   UNL d   1     -38.388  13.220  16.866  0.00  0.00     0.001 A 
ATOM      8  C   UNL d   1     -37.961  12.563  18.320  0.00  0.00     0.006 A 
ATOM      9  S   UNL d   1     -37.970  13.995  18.792  0.00  0.00    -0.086 SA
ATOM     10  C   UNL d   1     -38.079  12.087  17.680  0.00  0.00     0.001 A 
ATOM     11  C   UNL d   1     -38.294  12.409  16.948  0.00  0.00     0.000 A 
ATOM     12  C   UNL d   1     -38.134  14.704  18.398  0.00  0.00     0.040 A 
ENDBRANCH   1   4
BRANCH   2  13
ATOM     13  C   UNL d   1     -39.638  15.492  17.822  0.00  0.00     0.085 A 
ATOM     14  C   UNL d   1     -39.436  15.922  18.496  0.00  0.00     0.021 A 
ATOM     15  C   UNL d   1     -39.897  15.856  19.176  0.00  0.00     0.026 A 
ATOM     16  C   UNL d   1     -40.564  15.359  19.186  0.00  0.00     0.100 A 
ATOM     17  C   UNL d   1     -40.759  14.933  18.508  0.00  0.00     0.026 A 
ATOM     18  C   UNL d   1     -40.295  14.999  17.823  0.00  0.00     0.021 A 
BRANCH  16  19
ATOM     19  O   UNL d   1     -41.038  15.284  19.864  0.00  0.00    -0.305 OA
BRANCH  19  20
ATOM     20  C   UNL d   1     -40.906  15.768  20.519  0.00  0.00     0.123 C 
ATOM     21  C   UNL d   1     -41.506  15.885  21.076  0.00  0.00     0.029 C 
ENDBRANCH  19  20
ENDBRANCH  16  19
ENDBRANCH   2  13
TORSDOF 4
ENDMDL
