MODEL 1
REMARK VINA RESULT:       3.2      0.000      0.000
REMARK  6 active torsions:
REMARK  status: ('A' for Active; 'I' for Inactive)
REMARK    1  A    between atoms: C_6  and  C_1 
REMARK    2  A    between atoms: N_4  and  C_2 
REMARK       I    between atoms: C_8  and  N_4 
REMARK    3  A    between atoms: C_11  and  C_8 
REMARK    4  A    between atoms: O_22  and  C_10 
REMARK    5  A    between atoms: O_24  and  C_12 
REMARK    6  A    between atoms: O_23  and  C_13 
ROOT
ATOM      1  C   UNL d   1      57.770  -0.464  31.211  0.00  0.00     0.080 A 
ATOM      2  C   UNL d   1      57.378  -1.153  30.981  0.00  0.00     0.188 A 
ATOM      3  C   UNL d   1      57.529  -0.061  31.890  0.00  0.00     0.201 A 
ATOM      4  O   UNL d   1      56.747  -1.439  31.431  0.00  0.00    -0.289 OA
ATOM      5  C   UNL d   1      56.900  -0.347  32.338  0.00  0.00     0.062 A 
ATOM      6  C   UNL d   1      56.509  -1.036  32.108  0.00  0.00     0.105 A 
ATOM      7  O   UNL d   1      57.920   0.628  32.120  0.00  0.00    -0.286 OA
ATOM      8  C   UNL d   1      56.661   0.056  33.016  0.00  0.00     0.005 A 
ATOM      9  C   UNL d   1      55.879  -1.322  32.556  0.00  0.00     0.025 A 
ATOM     10  C   UNL d   1      56.028  -0.228  33.469  0.00  0.00     0.000 A 
ATOM     11  C   UNL d   1      55.636  -0.917  33.239  0.00  0.00     0.002 A 
ENDROOT
BRANCH   1  12
ATOM     12  C   UNL d   1      58.399  -0.179  30.763  0.00  0.00     0.011 A 
ATOM     13  C   UNL d   1      58.270   0.079  29.992  0.00  0.00     0.027 A 
ATOM     14  C   UNL d   1      58.903   0.368  29.537  0.00  0.00     0.118 A 
ATOM     15  C   UNL d   1      59.666   0.395  29.863  0.00  0.00     0.138 A 
ATOM     16  C   UNL d   1      59.791   0.133  30.641  0.00  0.00     0.118 A 
ATOM     17  C   UNL d   1      59.162  -0.152  31.088  0.00  0.00     0.027 A 
BRANCH  14  18
ATOM     18  O   UNL d   1      58.768   0.628  28.760  0.00  0.00    -0.326 OA
ATOM     19  C   UNL d   1      57.996   0.673  28.460  0.00  0.00     0.181 C 
ENDBRANCH  14  18
BRANCH  15  20
ATOM     20  O   UNL d   1      60.304   0.682  29.415  0.00  0.00    -0.324 OA
ATOM     21  C   UNL d   1      60.533   0.296  28.717  0.00  0.00     0.182 C 
ENDBRANCH  15  20
BRANCH  16  22
ATOM     22  O   UNL d   1      60.549   0.160  30.965  0.00  0.00    -0.326 OA
ATOM     23  C   UNL d   1      60.686   0.574  31.664  0.00  0.00     0.181 C 
ENDBRANCH  16  22
ENDBRANCH   1  12
BRANCH   2  24
ATOM     24  N   UNL d   1      57.618  -1.564  30.295  0.00  0.00    -0.182 NA
ATOM     25  C   UNL d   1      57.821  -2.366  30.346  0.00  0.00     0.304 C 
ATOM     26  O   UNL d   1      57.790  -2.762  31.068  0.00  0.00    -0.263 OA
BRANCH  25  27
ATOM     27  C   UNL d   1      58.058  -2.770  29.660  0.00  0.00     0.158 A 
ATOM     28  O   UNL d   1      57.690  -2.889  28.937  0.00  0.00    -0.300 OA
ATOM     29  C   UNL d   1      58.195  -3.337  28.462  0.00  0.00     0.123 A 
ATOM     30  C   UNL d   1      58.881  -3.495  28.900  0.00  0.00     0.029 A 
ATOM     31  C   UNL d   1      58.793  -3.144  29.637  0.00  0.00     0.032 A 
ENDBRANCH  25  27
ENDBRANCH   2  24
TORSDOF 6
ENDMDL
MODEL 2
REMARK VINA RESULT:       4.6      1.306      3.151
REMARK  6 active torsions:
REMARK  status: ('A' for Active; 'I' for Inactive)
REMARK    1  A    between atoms: C_6  and  C_1 
REMARK    2  A    between atoms: N_4  and  C_2 
REMARK       I    between atoms: C_8  and  N_4 
REMARK    3  A    between atoms: C_11  and  C_8 
REMARK    4  A    between atoms: O_22  and  C_10 
REMARK    5  A    between atoms: O_24  and  C_12 
REMARK    6  A    between atoms: O_23  and  C_13 
ROOT
ATOM      1  C   UNL d   1      57.163  -0.201  31.782  0.00  0.00     0.080 A 
ATOM      2  C   UNL d   1      57.675   0.130  32.337  0.00  0.00     0.188 A 
ATOM      3  C   UNL d   1      56.373  -0.339  31.982  0.00  0.00     0.201 A 
ATOM      4  O   UNL d   1      57.399   0.324  33.091  0.00  0.00    -0.289 OA
ATOM      5  C   UNL d   1      56.097  -0.145  32.733  0.00  0.00     0.062 A 
ATOM      6  C   UNL d   1      56.610   0.187  33.288  0.00  0.00     0.105 A 
ATOM      7  O   UNL d   1      55.860  -0.670  31.427  0.00  0.00    -0.286 OA
ATOM      8  C   UNL d   1      55.310  -0.282  32.931  0.00  0.00     0.005 A 
ATOM      9  C   UNL d   1      56.336   0.381  34.040  0.00  0.00     0.025 A 
ATOM     10  C   UNL d   1      55.029  -0.088  33.687  0.00  0.00     0.000 A 
ATOM     11  C   UNL d   1      55.542   0.244  34.242  0.00  0.00     0.002 A 
ENDROOT
BRANCH   1  12
ATOM     12  C   UNL d   1      57.438  -0.395  31.031  0.00  0.00     0.011 A 
ATOM     13  C   UNL d   1      57.666  -1.168  30.864  0.00  0.00     0.027 A 
ATOM     14  C   UNL d   1      57.944  -1.367  30.107  0.00  0.00     0.118 A 
ATOM     15  C   UNL d   1      57.991  -0.783  29.519  0.00  0.00     0.138 A 
ATOM     16  C   UNL d   1      57.760  -0.005  29.691  0.00  0.00     0.118 A 
ATOM     17  C   UNL d   1      57.485   0.188  30.442  0.00  0.00     0.027 A 
BRANCH  14  18
ATOM     18  O   UNL d   1      58.173  -2.149  29.942  0.00  0.00    -0.326 OA
ATOM     19  C   UNL d   1      58.903  -2.438  30.212  0.00  0.00     0.181 C 
ENDBRANCH  14  18
BRANCH  15  20
ATOM     20  O   UNL d   1      58.268  -0.974  28.759  0.00  0.00    -0.324 OA
ATOM     21  C   UNL d   1      59.051  -0.803  28.543  0.00  0.00     0.182 C 
ENDBRANCH  15  20
BRANCH  16  22
ATOM     22  O   UNL d   1      57.807   0.575  29.107  0.00  0.00    -0.326 OA
ATOM     23  C   UNL d   1      57.241   0.606  28.509  0.00  0.00     0.181 C 
ENDBRANCH  16  22
ENDBRANCH   1  12
BRANCH   2  24
ATOM     24  N   UNL d   1      58.475   0.270  32.140  0.00  0.00    -0.182 NA
ATOM     25  C   UNL d   1      59.047   0.300  32.739  0.00  0.00     0.304 C 
ATOM     26  O   UNL d   1      58.834   0.193  33.528  0.00  0.00    -0.263 OA
BRANCH  25  27
ATOM     27  C   UNL d   1      59.839   0.440  32.538  0.00  0.00     0.158 A 
ATOM     28  O   UNL d   1      60.218   0.514  31.814  0.00  0.00    -0.300 OA
ATOM     29  C   UNL d   1      61.019   0.652  31.956  0.00  0.00     0.123 A 
ATOM     30  C   UNL d   1      61.133   0.663  32.777  0.00  0.00     0.029 A 
ATOM     31  C   UNL d   1      60.404   0.532  33.132  0.00  0.00     0.032 A 
ENDBRANCH  25  27
ENDBRANCH   2  24
TORSDOF 6
ENDMDL
