MODEL 1
REMARK VINA RESULT:      49.3      0.000      0.000
REMARK  2 active torsions:
REMARK  status: ('A' for Active; 'I' for Inactive)
REMARK    1  A    between atoms: N_7  and  C_3 
REMARK       I    between atoms: C_8  and  N_7 
REMARK    2  A    between atoms: C_9  and  C_8 
ROOT
ATOM      1  N   UNL d   1     -51.668  26.051  33.467  0.00  0.00    -0.190 NA
ATOM      2  C   UNL d   1     -50.862  26.051  33.639  0.00  0.00     0.281 C 
ATOM      3  O   UNL d   1     -50.469  25.338  33.772  0.00  0.00    -0.265 OA
ENDROOT
BRANCH   1   4
ATOM      4  C   UNL d   1     -52.083  25.337  33.428  0.00  0.00     0.159 A 
ATOM      5  N   UNL d   1     -52.904  25.337  33.387  0.00  0.00    -0.241 N 
ATOM      6  C   UNL d   1     -53.314  24.630  33.348  0.00  0.00     0.343 A 
ATOM      7  C   UNL d   1     -53.316  26.053  33.385  0.00  0.00     0.105 C 
ATOM      8  N   UNL d   1     -52.904  23.914  33.350  0.00  0.00    -0.224 N 
ATOM      9  O   UNL d   1     -54.141  24.631  33.307  0.00  0.00    -0.245 OA
ATOM     10  C   UNL d   1     -52.078  23.897  33.390  0.00  0.00     0.271 A 
ATOM     11  C   UNL d   1     -53.319  23.200  33.311  0.00  0.00     0.107 C 
ATOM     12  C   UNL d   1     -51.673  24.621  33.429  0.00  0.00     0.099 A 
ATOM     13  O   UNL d   1     -51.671  23.189  33.392  0.00  0.00    -0.266 OA
ENDBRANCH   1   4
BRANCH   2  14
ATOM     14  C   UNL d   1     -50.450  26.764  33.677  0.00  0.00     0.069 A 
ATOM     15  C   UNL d   1     -50.835  27.446  33.513  0.00  0.00     0.062 A 
ATOM     16  C   UNL d   1     -50.439  28.163  33.547  0.00  0.00     0.012 A 
ATOM     17 CL   UNL d   1     -51.642  27.434  33.306  0.00  0.00    -0.082 Cl
ATOM     18  C   UNL d   1     -49.641  28.181  33.752  0.00  0.00     0.008 A 
ATOM     19  C   UNL d   1     -49.257  27.483  33.917  0.00  0.00     0.035 A 
ATOM     20  C   UNL d   1     -49.651  26.762  33.884  0.00  0.00     0.012 A 
ATOM     21 BR   UNL d   1     -48.444  27.508  34.125  0.00  0.00    -0.049 Br
ENDBRANCH   2  14
TORSDOF 2
ENDMDL
