MODEL 1
REMARK VINA RESULT:      53.9      0.000      0.000
REMARK  3 active torsions:
REMARK  status: ('A' for Active; 'I' for Inactive)
REMARK    1  A    between atoms: C_7  and  C_1 
REMARK    2  A    between atoms: O_20  and  C_12 
REMARK    3  A    between atoms: O_22  and  C_16 
ROOT
ATOM      1  C   UNL d   1     -54.777-101.295 -42.929  0.00  0.00     0.062 A 
ATOM      2  C   UNL d   1     -54.758-100.467 -43.028  0.00  0.00     0.202 A 
ATOM      3  C   UNL d   1     -54.761-100.136 -43.787  0.00  0.00     0.101 A 
ATOM      4  C   UNL d   1     -54.798-101.793 -43.602  0.00  0.00     0.103 A 
ATOM      5  C   UNL d   1     -54.783-100.637 -44.457  0.00  0.00     0.109 A 
ATOM      6  O   UNL d   1     -54.801-101.458 -44.368  0.00  0.00    -0.307 OA
ATOM      7  C   UNL d   1     -54.743 -99.320 -43.882  0.00  0.00     0.204 A 
ATOM      8  C   UNL d   1     -54.785-100.306 -45.215  0.00  0.00     0.067 A 
ATOM      9  C   UNL d   1     -54.746 -98.993 -44.637  0.00  0.00     0.084 A 
ATOM     10  O   UNL d   1     -54.737 -99.977 -42.365  0.00  0.00    -0.286 OA
ATOM     11  C   UNL d   1     -54.767 -99.483 -45.300  0.00  0.00     0.201 A 
ATOM     12  O   UNL d   1     -54.722 -98.830 -43.219  0.00  0.00    -0.286 OA
ATOM     13  C   UNL d   1     -54.816-102.606 -43.504  0.00  0.00     0.027 C 
ATOM     14  O   UNL d   1     -54.770 -99.156 -46.056  0.00  0.00    -0.286 OA
ENDROOT
BRANCH   1  15
ATOM     15  C   UNL d   1     -54.774-101.619 -42.176  0.00  0.00     0.007 A 
ATOM     16  C   UNL d   1     -54.744-101.123 -41.520  0.00  0.00     0.026 A 
ATOM     17  C   UNL d   1     -54.741-101.446 -40.762  0.00  0.00     0.116 A 
ATOM     18  C   UNL d   1     -54.768-102.272 -40.660  0.00  0.00     0.116 A 
ATOM     19  C   UNL d   1     -54.797-102.761 -41.326  0.00  0.00     0.026 A 
ATOM     20  C   UNL d   1     -54.800-102.438 -42.083  0.00  0.00     0.002 A 
BRANCH  17  21
ATOM     21  O   UNL d   1     -54.711-100.949 -40.101  0.00  0.00    -0.326 OA
ATOM     22  C   UNL d   1     -55.044-101.197 -39.388  0.00  0.00     0.181 C 
ENDBRANCH  17  21
BRANCH  18  23
ATOM     23  O   UNL d   1     -54.765-102.594 -39.902  0.00  0.00    -0.326 OA
ATOM     24  C   UNL d   1     -55.466-102.877 -39.570  0.00  0.00     0.181 C 
ENDBRANCH  18  23
ENDBRANCH   1  15
TORSDOF 3
ENDMDL
