MODEL 1
REMARK VINA RESULT:       6.7      0.000      0.000
REMARK  4 active torsions:
REMARK  status: ('A' for Active; 'I' for Inactive)
REMARK    1  A    between atoms: C_9  and  C_3 
REMARK    2  A    between atoms: C_11  and  C_7 
REMARK    3  A    between atoms: O_22  and  C_16 
REMARK    4  A    between atoms: O_23  and  C_17 
ROOT
ATOM      1  N   UNL d   1     -41.520-121.191 -51.629  0.00  0.00    -0.186 N 
ATOM      2  N   UNL d   1     -41.684-121.757 -52.219  0.00  0.00    -0.162 NA
ATOM      3  C   UNL d   1     -41.582-121.211 -50.820  0.00  0.00     0.187 A 
ATOM      4  C   UNL d   1     -41.238-120.449 -51.844  0.00  0.00     0.217 A 
ATOM      5  N   UNL d   1     -41.343-120.493 -50.520  0.00  0.00    -0.127 NA
ATOM      6  N   UNL d   1     -41.131-120.022 -51.144  0.00  0.00    -0.120 NA
ATOM      7  C   UNL d   1     -41.564-121.570 -53.011  0.00  0.00     0.108 A 
ATOM      8  S   UNL d   1     -41.123-120.277 -52.639  0.00  0.00    -0.045 SA
ATOM      9  C   UNL d   1     -41.281-120.826 -53.232  0.00  0.00     0.059 A 
ENDROOT
BRANCH   3  10
ATOM     10  C   UNL d   1     -41.848-121.870 -50.394  0.00  0.00     0.038 A 
ATOM     11  C   UNL d   1     -41.376-122.530 -50.339  0.00  0.00     0.005 A 
ATOM     12  C   UNL d   1     -41.643-123.189 -49.913  0.00  0.00     0.024 A 
ATOM     13  C   UNL d   1     -42.384-123.164 -49.552  0.00  0.00     0.094 A 
ATOM     14  C   UNL d   1     -42.858-122.499 -49.609  0.00  0.00     0.024 A 
ATOM     15  C   UNL d   1     -42.588-121.848 -50.033  0.00  0.00     0.005 A 
BRANCH  13  16
ATOM     16  O   UNL d   1     -42.672-123.816 -49.119  0.00  0.00    -0.328 OA
ATOM     17  C   UNL d   1     -42.935-123.715 -48.328  0.00  0.00     0.181 C 
ENDBRANCH  13  16
ENDBRANCH   3  10
BRANCH   7  18
ATOM     18  C   UNL d   1     -41.727-122.130 -53.590  0.00  0.00     0.020 A 
ATOM     19  C   UNL d   1     -42.295-121.977 -54.170  0.00  0.00     0.004 A 
ATOM     20  C   UNL d   1     -42.467-122.531 -54.757  0.00  0.00     0.024 A 
ATOM     21  C   UNL d   1     -42.059-123.260 -54.763  0.00  0.00     0.094 A 
ATOM     22  C   UNL d   1     -41.500-123.418 -54.198  0.00  0.00     0.024 A 
ATOM     23  C   UNL d   1     -41.328-122.853 -53.603  0.00  0.00     0.004 A 
BRANCH  21  24
ATOM     24  O   UNL d   1     -42.231-123.817 -55.351  0.00  0.00    -0.328 OA
ATOM     25  C   UNL d   1     -42.971-123.806 -55.728  0.00  0.00     0.181 C 
ENDBRANCH  21  24
ENDBRANCH   7  18
TORSDOF 4
ENDMDL
MODEL 2
REMARK VINA RESULT:       7.6      0.794      4.271
REMARK  4 active torsions:
REMARK  status: ('A' for Active; 'I' for Inactive)
REMARK    1  A    between atoms: C_9  and  C_3 
REMARK    2  A    between atoms: C_11  and  C_7 
REMARK    3  A    between atoms: O_22  and  C_16 
REMARK    4  A    between atoms: O_23  and  C_17 
ROOT
ATOM      1  N   UNL d   1     -41.500-121.129 -51.872  0.00  0.00    -0.186 N 
ATOM      2  N   UNL d   1     -41.711-121.706 -51.309  0.00  0.00    -0.162 NA
ATOM      3  C   UNL d   1     -41.438-121.151 -52.681  0.00  0.00     0.187 A 
ATOM      4  C   UNL d   1     -41.305-120.369 -51.624  0.00  0.00     0.217 A 
ATOM      5  N   UNL d   1     -41.208-120.417 -52.948  0.00  0.00    -0.127 NA
ATOM      6  N   UNL d   1     -41.125-119.934 -52.303  0.00  0.00    -0.120 NA
ATOM      7  C   UNL d   1     -41.723-121.514 -50.510  0.00  0.00     0.108 A 
ATOM      8  S   UNL d   1     -41.322-120.192 -50.821  0.00  0.00    -0.045 SA
ATOM      9  C   UNL d   1     -41.529-120.752 -50.255  0.00  0.00     0.059 A 
ENDROOT
BRANCH   3  10
ATOM     10  C   UNL d   1     -41.592-121.826 -53.137  0.00  0.00     0.038 A 
ATOM     11  C   UNL d   1     -41.283-122.544 -52.909  0.00  0.00     0.005 A 
ATOM     12  C   UNL d   1     -41.436-123.218 -53.364  0.00  0.00     0.024 A 
ATOM     13  C   UNL d   1     -41.900-123.151 -54.042  0.00  0.00     0.094 A 
ATOM     14  C   UNL d   1     -42.210-122.428 -54.271  0.00  0.00     0.024 A 
ATOM     15  C   UNL d   1     -42.055-121.762 -53.815  0.00  0.00     0.005 A 
BRANCH  13  16
ATOM     16  O   UNL d   1     -42.067-123.817 -54.515  0.00  0.00    -0.328 OA
ATOM     17  C   UNL d   1     -42.624-123.763 -55.141  0.00  0.00     0.181 C 
ENDBRANCH  13  16
ENDBRANCH   3  10
BRANCH   7  18
ATOM     18  C   UNL d   1     -41.931-122.085 -49.957  0.00  0.00     0.020 A 
ATOM     19  C   UNL d   1     -41.355-122.428 -49.474  0.00  0.00     0.004 A 
ATOM     20  C   UNL d   1     -41.551-123.002 -48.915  0.00  0.00     0.024 A 
ATOM     21  C   UNL d   1     -42.349-123.241 -48.838  0.00  0.00     0.094 A 
ATOM     22  C   UNL d   1     -42.920-122.910 -49.307  0.00  0.00     0.024 A 
ATOM     23  C   UNL d   1     -42.717-122.327 -49.874  0.00  0.00     0.004 A 
BRANCH  21  24
ATOM     24  O   UNL d   1     -42.548-123.817 -48.277  0.00  0.00    -0.328 OA
ATOM     25  C   UNL d   1     -42.836-123.588 -47.532  0.00  0.00     0.181 C 
ENDBRANCH  21  24
ENDBRANCH   7  18
TORSDOF 4
ENDMDL
