MODEL 1
REMARK VINA RESULT:      87.8      0.000      0.000
REMARK  5 active torsions:
REMARK  status: ('A' for Active; 'I' for Inactive)
REMARK    1  A    between atoms: N_2  and  C_3 
REMARK       I    between atoms: C_4  and  N_5 
REMARK    2  A    between atoms: C_8  and  C_4 
REMARK    3  A    between atoms: N_5  and  C_9 
REMARK    4  A    between atoms: C_14  and  N_5 
REMARK    5  A    between atoms: C_20  and  C_14 
ROOT
ATOM      1  C   UNL d   1     -48.661  30.140  34.480  0.00  0.00     0.265 C 
ATOM      2  N   UNL d   1     -48.488  29.605  35.084  0.00  0.00    -0.273 N 
ATOM      3  O   UNL d   1     -49.347  30.039  34.027  0.00  0.00    -0.267 OA
ENDROOT
BRANCH   2   4
ATOM      4  C   UNL d   1     -47.808  29.693  35.543  0.00  0.00     0.079 A 
ATOM      5  C   UNL d   1     -47.790  29.946  36.327  0.00  0.00     0.116 A 
ATOM      6  S   UNL d   1     -46.999  29.956  36.572  0.00  0.00     0.213 S 
ATOM      7  O   UNL d   1     -46.293  30.028  36.989  0.00  0.00    -0.217 OA
ATOM      8  O   UNL d   1     -47.411  30.208  37.238  0.00  0.00    -0.217 OA
ATOM      9  C   UNL d   1     -46.533  29.707  35.933  0.00  0.00     0.100 A 
ATOM     10  C   UNL d   1     -47.031  29.545  35.296  0.00  0.00     0.030 A 
ENDBRANCH   2   4
BRANCH   2  11
ATOM     11  C   UNL d   1     -49.005  28.966  35.235  0.00  0.00     0.083 C 
BRANCH  11  12
ATOM     12  C   UNL d   1     -49.039  28.335  34.707  0.00  0.00     0.018 A 
ATOM     13  C   UNL d   1     -49.733  28.204  34.269  0.00  0.00     0.013 A 
ATOM     14  C   UNL d   1     -49.770  27.570  33.739  0.00  0.00     0.058 A 
ATOM     15 CL   UNL d   1     -50.451  27.438  33.306  0.00  0.00    -0.082 Cl
ATOM     16  C   UNL d   1     -49.117  27.072  33.647  0.00  0.00     0.011 A 
ATOM     17  C   UNL d   1     -48.429  27.206  34.086  0.00  0.00     0.001 A 
ATOM     18  C   UNL d   1     -48.390  27.834  34.613  0.00  0.00     0.002 A 
ENDBRANCH  11  12
ENDBRANCH   2  11
BRANCH   1  19
ATOM     19  C   UNL d   1     -48.154  30.765  34.334  0.00  0.00     0.058 A 
ATOM     20  C   UNL d   1     -48.439  31.539  34.365  0.00  0.00     0.029 A 
ATOM     21  C   UNL d   1     -47.933  32.164  34.220  0.00  0.00     0.137 A 
ATOM     22  C   UNL d   1     -47.143  32.019  34.044  0.00  0.00     0.080 A 
ATOM     23  C   UNL d   1     -46.858  31.245  34.013  0.00  0.00     0.013 A 
ATOM     24 CL   UNL d   1     -46.635  32.655  33.897  0.00  0.00    -0.081 Cl
ATOM     25  C   UNL d   1     -47.365  30.620  34.158  0.00  0.00     0.006 A 
BRANCH  21  26
ATOM     26  N   UNL d   1     -48.218  32.939  34.251  0.00  0.00    -0.113 N 
ATOM     27  O   UNL d   1     -48.315  33.306  34.973  0.00  0.00    -0.532 OA
ATOM     28  O   UNL d   1     -48.402  33.331  33.552  0.00  0.00    -0.532 OA
ENDBRANCH  21  26
ENDBRANCH   1  19
TORSDOF 5
ENDMDL
MODEL 2
REMARK VINA RESULT:      89.3      1.435      3.807
REMARK  5 active torsions:
REMARK  status: ('A' for Active; 'I' for Inactive)
REMARK    1  A    between atoms: N_2  and  C_3 
REMARK       I    between atoms: C_4  and  N_5 
REMARK    2  A    between atoms: C_8  and  C_4 
REMARK    3  A    between atoms: N_5  and  C_9 
REMARK    4  A    between atoms: C_14  and  N_5 
REMARK    5  A    between atoms: C_20  and  C_14 
ROOT
ATOM      1  C   UNL d   1     -48.266  30.468  34.847  0.00  0.00     0.265 C 
ATOM      2  N   UNL d   1     -47.834  30.948  35.362  0.00  0.00    -0.273 N 
ATOM      3  O   UNL d   1     -48.811  30.812  34.326  0.00  0.00    -0.267 OA
ENDROOT
BRANCH   2   4
ATOM      4  C   UNL d   1     -47.288  30.619  35.886  0.00  0.00     0.079 A 
ATOM      5  C   UNL d   1     -47.381  30.567  36.703  0.00  0.00     0.116 A 
ATOM      6  S   UNL d   1     -46.707  30.200  37.012  0.00  0.00     0.213 S 
ATOM      7  O   UNL d   1     -46.131  29.862  37.494  0.00  0.00    -0.217 OA
ATOM      8  O   UNL d   1     -47.168  30.347  37.676  0.00  0.00    -0.217 OA
ATOM      9  C   UNL d   1     -46.199  30.027  36.379  0.00  0.00     0.100 A 
ATOM     10  C   UNL d   1     -46.558  30.285  35.682  0.00  0.00     0.030 A 
ENDBRANCH   2   4
BRANCH   2  11
ATOM     11  C   UNL d   1     -47.949  31.776  35.354  0.00  0.00     0.083 C 
BRANCH  11  12
ATOM     12  C   UNL d   1     -47.744  32.211  34.687  0.00  0.00     0.018 A 
ATOM     13  C   UNL d   1     -48.307  32.710  34.334  0.00  0.00     0.013 A 
ATOM     14  C   UNL d   1     -48.103  33.149  33.663  0.00  0.00     0.058 A 
ATOM     15 CL   UNL d   1     -48.654  33.642  33.313  0.00  0.00    -0.082 Cl
ATOM     16  C   UNL d   1     -47.342  33.088  33.347  0.00  0.00     0.011 A 
ATOM     17  C   UNL d   1     -46.785  32.589  33.702  0.00  0.00     0.001 A 
ATOM     18  C   UNL d   1     -46.985  32.153  34.367  0.00  0.00     0.002 A 
ENDBRANCH  11  12
ENDBRANCH   2  11
BRANCH   1  19
ATOM     19  C   UNL d   1     -48.152  29.659  34.856  0.00  0.00     0.058 A 
ATOM     20  C   UNL d   1     -48.739  29.166  35.165  0.00  0.00     0.029 A 
ATOM     21  C   UNL d   1     -48.626  28.357  35.175  0.00  0.00     0.137 A 
ATOM     22  C   UNL d   1     -47.929  28.037  34.876  0.00  0.00     0.080 A 
ATOM     23  C   UNL d   1     -47.343  28.529  34.567  0.00  0.00     0.013 A 
ATOM     24 CL   UNL d   1     -47.820  27.217  34.888  0.00  0.00    -0.081 Cl
ATOM     25  C   UNL d   1     -47.457  29.339  34.558  0.00  0.00     0.006 A 
BRANCH  21  26
ATOM     26  N   UNL d   1     -49.213  27.865  35.484  0.00  0.00    -0.113 N 
ATOM     27  O   UNL d   1     -49.305  27.803  36.293  0.00  0.00    -0.532 OA
ATOM     28  O   UNL d   1     -49.697  27.441  34.973  0.00  0.00    -0.532 OA
ENDBRANCH  21  26
ENDBRANCH   1  19
TORSDOF 5
ENDMDL
MODEL 3
REMARK VINA RESULT:      90.6      5.040      7.003
REMARK  5 active torsions:
REMARK  status: ('A' for Active; 'I' for Inactive)
REMARK    1  A    between atoms: N_2  and  C_3 
REMARK       I    between atoms: C_4  and  N_5 
REMARK    2  A    between atoms: C_8  and  C_4 
REMARK    3  A    between atoms: N_5  and  C_9 
REMARK    4  A    between atoms: C_14  and  N_5 
REMARK    5  A    between atoms: C_20  and  C_14 
ROOT
ATOM      1  C   UNL d   1     -52.335  25.521  35.660  0.00  0.00     0.265 C 
ATOM      2  N   UNL d   1     -51.881  26.210  35.638  0.00  0.00    -0.273 N 
ATOM      3  O   UNL d   1     -52.877  25.406  36.276  0.00  0.00    -0.267 OA
ENDROOT
BRANCH   2   4
ATOM      4  C   UNL d   1     -51.337  26.337  35.030  0.00  0.00     0.079 A 
ATOM      5  C   UNL d   1     -51.484  26.758  34.338  0.00  0.00     0.116 A 
ATOM      6  S   UNL d   1     -50.792  26.750  33.884  0.00  0.00     0.213 S 
ATOM      7  O   UNL d   1     -50.214  26.849  33.306  0.00  0.00    -0.217 OA
ATOM      8  O   UNL d   1     -51.318  27.184  33.425  0.00  0.00    -0.217 OA
ATOM      9  C   UNL d   1     -50.219  26.320  34.303  0.00  0.00     0.100 A 
ATOM     10  C   UNL d   1     -50.555  26.064  35.012  0.00  0.00     0.030 A 
ENDBRANCH   2   4
BRANCH   2  11
ATOM     11  C   UNL d   1     -51.971  26.787  36.236  0.00  0.00     0.083 C 
BRANCH  11  12
ATOM     12  C   UNL d   1     -51.705  26.630  36.999  0.00  0.00     0.018 A 
ATOM     13  C   UNL d   1     -51.101  27.096  37.327  0.00  0.00     0.013 A 
ATOM     14  C   UNL d   1     -50.832  26.940  38.093  0.00  0.00     0.058 A 
ATOM     15 CL   UNL d   1     -50.236  27.397  38.419  0.00  0.00    -0.082 Cl
ATOM     16  C   UNL d   1     -51.166  26.323  38.528  0.00  0.00     0.011 A 
ATOM     17  C   UNL d   1     -51.769  25.862  38.198  0.00  0.00     0.001 A 
ATOM     18  C   UNL d   1     -52.037  26.014  37.438  0.00  0.00     0.002 A 
ENDBRANCH  11  12
ENDBRANCH   2  11
BRANCH   1  19
ATOM     19  C   UNL d   1     -52.245  24.958  35.075  0.00  0.00     0.058 A 
ATOM     20  C   UNL d   1     -52.891  24.749  34.604  0.00  0.00     0.029 A 
ATOM     21  C   UNL d   1     -52.803  24.187  34.019  0.00  0.00     0.137 A 
ATOM     22  C   UNL d   1     -52.070  23.831  33.900  0.00  0.00     0.080 A 
ATOM     23  C   UNL d   1     -51.424  24.039  34.370  0.00  0.00     0.013 A 
ATOM     24 CL   UNL d   1     -51.986  23.262  33.306  0.00  0.00    -0.081 Cl
ATOM     25  C   UNL d   1     -51.514  24.602  34.956  0.00  0.00     0.006 A 
BRANCH  21  26
ATOM     26  N   UNL d   1     -53.449  23.978  33.548  0.00  0.00    -0.113 N 
ATOM     27  O   UNL d   1     -53.991  24.548  33.330  0.00  0.00    -0.532 OA
ATOM     28  O   UNL d   1     -53.539  23.198  33.306  0.00  0.00    -0.532 OA
ENDBRANCH  21  26
ENDBRANCH   1  19
TORSDOF 5
ENDMDL
