MODEL 1
REMARK VINA RESULT:      34.1      0.000      0.000
REMARK  1 active torsions:
REMARK  status: ('A' for Active; 'I' for Inactive)
REMARK    1  A    between atoms: C_7  and  C_4 
ROOT
ATOM      1  N   UNL d   1      14.743  13.315  -0.927  0.00  0.00    -0.211 NA
ATOM      2  C   UNL d   1      14.477  12.582  -1.223  0.00  0.00     0.140 A 
ATOM      3  C   UNL d   1      14.134  12.546  -1.972  0.00  0.00     0.051 A 
ATOM      4  C   UNL d   1      14.658  14.001  -1.393  0.00  0.00     0.183 A 
ATOM      5  C   UNL d   1      14.051  13.231  -2.432  0.00  0.00     0.104 A 
ATOM      6  O   UNL d   1      14.314  13.955  -2.139  0.00  0.00    -0.289 OA
ATOM      7  S   UNL d   1      14.557  11.898  -0.770  0.00  0.00    -0.057 SA
ATOM      8  C   UNL d   1      13.866  11.815  -2.274  0.00  0.00     0.004 A 
ATOM      9  C   UNL d   1      13.711  13.191  -3.173  0.00  0.00     0.025 A 
ATOM     10  C   UNL d   1      13.522  11.781  -3.025  0.00  0.00     0.000 A 
ATOM     11  C   UNL d   1      13.446  12.467  -3.471  0.00  0.00     0.002 A 
ENDROOT
BRANCH   4  12
ATOM     12  C   UNL d   1      14.922  14.721  -1.097  0.00  0.00     0.041 A 
ATOM     13  C   UNL d   1      14.915  15.391  -1.569  0.00  0.00     0.004 A 
ATOM     14  C   UNL d   1      15.181  16.107  -1.264  0.00  0.00     0.000 A 
ATOM     15  C   UNL d   1      15.174  16.782  -1.741  0.00  0.00     0.000 C 
ATOM     16  C   UNL d   1      15.454  16.157  -0.487  0.00  0.00     0.000 A 
ATOM     17  C   UNL d   1      15.459  15.479  -0.014  0.00  0.00     0.000 A 
ATOM     18  C   UNL d   1      15.192  14.759  -0.319  0.00  0.00     0.004 A 
ENDBRANCH   4  12
TORSDOF 1
ENDMDL
