MODEL 1
REMARK VINA RESULT:      -3.0      0.000      0.000
REMARK  5 active torsions:
REMARK  status: ('A' for Active; 'I' for Inactive)
REMARK    1  A    between atoms: C_12  and  S_1 
REMARK    2  A    between atoms: N_13  and  S_1 
REMARK    3  A    between atoms: C_2  and  N_6 
REMARK    4  A    between atoms: C_5  and  C_3 
REMARK       I    between atoms: N_6  and  C_8 
REMARK    5  A    between atoms: C_8  and  C_18 
ROOT
ATOM      1  N   UNL d   1      32.585  20.789 -22.117  0.00  0.00    -0.183 NA
ATOM      2  C   UNL d   1      32.878  20.066 -21.865  0.00  0.00     0.281 C 
ATOM      3  O   UNL d   1      33.241  20.010 -21.121  0.00  0.00    -0.265 OA
ENDROOT
BRANCH   1   4
ATOM      4  C   UNL d   1      32.649  21.454 -21.642  0.00  0.00     0.197 A 
ATOM      5  N   UNL d   1      32.596  21.470 -20.819  0.00  0.00    -0.218 NA
ATOM      6  C   UNL d   1      32.692  22.252 -20.574  0.00  0.00     0.113 A 
ATOM      7  C   UNL d   1      32.805  22.722 -21.243  0.00  0.00     0.059 A 
ATOM      8  S   UNL d   1      32.778  22.227 -21.899  0.00  0.00    -0.046 SA
BRANCH   6   9
ATOM      9  C   UNL d   1      32.677  22.519 -19.796  0.00  0.00     0.118 A 
ATOM     10  O   UNL d   1      33.105  22.293 -19.177  0.00  0.00    -0.306 OA
ATOM     11  C   UNL d   1      32.955  22.663 -18.497  0.00  0.00     0.100 A 
ATOM     12  C   UNL d   1      33.239  22.632 -17.719  0.00  0.00     0.025 A 
ATOM     13  C   UNL d   1      32.348  23.204 -18.693  0.00  0.00     0.025 A 
ATOM     14  C   UNL d   1      32.927  23.130 -17.143  0.00  0.00     0.002 A 
ATOM     15  C   UNL d   1      32.320  23.674 -17.330  0.00  0.00     0.000 A 
ATOM     16  C   UNL d   1      32.038  23.702 -18.109  0.00  0.00     0.002 A 
ATOM     17  C   UNL d   1      32.183  23.109 -19.495  0.00  0.00     0.028 A 
ENDBRANCH   6   9
ENDBRANCH   1   4
BRANCH   2  18
ATOM     18  C   UNL d   1      32.814  19.397 -22.343  0.00  0.00     0.058 A 
ATOM     19  C   UNL d   1      32.375  19.428 -23.040  0.00  0.00     0.005 A 
ATOM     20  C   UNL d   1      32.315  18.763 -23.510  0.00  0.00     0.013 A 
ATOM     21  C   UNL d   1      32.695  18.055 -23.288  0.00  0.00     0.104 A 
ATOM     22  C   UNL d   1      33.133  18.037 -22.586  0.00  0.00     0.013 A 
ATOM     23  C   UNL d   1      33.191  18.702 -22.120  0.00  0.00     0.005 A 
BRANCH  21  24
ATOM     24  S   UNL d   1      32.632  17.382 -23.767  0.00  0.00     0.271 S 
ATOM     25  O   UNL d   1      33.179  17.705 -24.286  0.00  0.00    -0.200 OA
ATOM     26  O   UNL d   1      32.082  17.057 -23.244  0.00  0.00    -0.200 OA
BRANCH  24  27
ATOM     27  N   UNL d   1      32.571  16.714 -24.243  0.00  0.00    -0.226 N 
ATOM     28  C   UNL d   1      33.018  16.659 -24.928  0.00  0.00     0.111 C 
ATOM     29  C   UNL d   1      32.064  16.105 -24.032  0.00  0.00     0.111 C 
ENDBRANCH  24  27
ENDBRANCH  21  24
ENDBRANCH   2  18
TORSDOF 5
ENDMDL
MODEL 2
REMARK VINA RESULT:      -2.8      1.324      6.657
REMARK  5 active torsions:
REMARK  status: ('A' for Active; 'I' for Inactive)
REMARK    1  A    between atoms: C_12  and  S_1 
REMARK    2  A    between atoms: N_13  and  S_1 
REMARK    3  A    between atoms: C_2  and  N_6 
REMARK    4  A    between atoms: C_5  and  C_3 
REMARK       I    between atoms: N_6  and  C_8 
REMARK    5  A    between atoms: C_8  and  C_18 
ROOT
ATOM      1  N   UNL d   1      32.734  20.153 -21.774  0.00  0.00    -0.183 NA
ATOM      2  C   UNL d   1      32.664  20.964 -21.865  0.00  0.00     0.281 C 
ATOM      3  O   UNL d   1      32.615  21.287 -22.628  0.00  0.00    -0.265 OA
ENDROOT
BRANCH   1   4
ATOM      4  C   UNL d   1      32.755  19.660 -22.429  0.00  0.00     0.197 A 
ATOM      5  N   UNL d   1      32.298  18.984 -22.543  0.00  0.00    -0.218 NA
ATOM      6  C   UNL d   1      32.501  18.661 -23.276  0.00  0.00     0.113 A 
ATOM      7  C   UNL d   1      33.083  19.137 -23.616  0.00  0.00     0.059 A 
ATOM      8  S   UNL d   1      33.238  19.751 -23.092  0.00  0.00    -0.046 SA
BRANCH   6   9
ATOM      9  C   UNL d   1      32.178  17.983 -23.610  0.00  0.00     0.118 A 
ATOM     10  O   UNL d   1      31.537  17.895 -24.055  0.00  0.00    -0.306 OA
ATOM     11  C   UNL d   1      31.375  17.160 -24.291  0.00  0.00     0.100 A 
ATOM     12  C   UNL d   1      30.791  16.789 -24.747  0.00  0.00     0.025 A 
ATOM     13  C   UNL d   1      31.991  16.703 -23.958  0.00  0.00     0.025 A 
ATOM     14  C   UNL d   1      30.816  15.976 -24.871  0.00  0.00     0.002 A 
ATOM     15  C   UNL d   1      31.428  15.511 -24.542  0.00  0.00     0.000 A 
ATOM     16  C   UNL d   1      32.010  15.885 -24.087  0.00  0.00     0.002 A 
ATOM     17  C   UNL d   1      32.481  17.217 -23.540  0.00  0.00     0.028 A 
ENDBRANCH   6   9
ENDBRANCH   1   4
BRANCH   2  18
ATOM     18  C   UNL d   1      32.643  21.461 -21.207  0.00  0.00     0.058 A 
ATOM     19  C   UNL d   1      33.217  21.393 -20.619  0.00  0.00     0.005 A 
ATOM     20  C   UNL d   1      33.192  21.886 -19.969  0.00  0.00     0.013 A 
ATOM     21  C   UNL d   1      32.589  22.457 -19.898  0.00  0.00     0.104 A 
ATOM     22  C   UNL d   1      32.018  22.516 -20.494  0.00  0.00     0.013 A 
ATOM     23  C   UNL d   1      32.046  22.022 -21.141  0.00  0.00     0.005 A 
BRANCH  21  24
ATOM     24  S   UNL d   1      32.565  22.957 -19.238  0.00  0.00     0.271 S 
ATOM     25  O   UNL d   1      32.529  23.607 -19.736  0.00  0.00    -0.200 OA
ATOM     26  O   UNL d   1      32.601  22.301 -18.736  0.00  0.00    -0.200 OA
BRANCH  24  27
ATOM     27  N   UNL d   1      32.542  23.454 -18.582  0.00  0.00    -0.226 N 
ATOM     28  C   UNL d   1      31.818  23.700 -18.283  0.00  0.00     0.111 C 
ATOM     29  C   UNL d   1      33.239  23.702 -18.230  0.00  0.00     0.111 C 
ENDBRANCH  24  27
ENDBRANCH  21  24
ENDBRANCH   2  18
TORSDOF 5
ENDMDL
MODEL 3
REMARK VINA RESULT:      -1.3      0.877      1.277
REMARK  5 active torsions:
REMARK  status: ('A' for Active; 'I' for Inactive)
REMARK    1  A    between atoms: C_12  and  S_1 
REMARK    2  A    between atoms: N_13  and  S_1 
REMARK    3  A    between atoms: C_2  and  N_6 
REMARK    4  A    between atoms: C_5  and  C_3 
REMARK       I    between atoms: N_6  and  C_8 
REMARK    5  A    between atoms: C_8  and  C_18 
ROOT
ATOM      1  N   UNL d   1      32.484  21.623 -21.542  0.00  0.00    -0.183 NA
ATOM      2  C   UNL d   1      32.697  20.850 -21.368  0.00  0.00     0.281 C 
ATOM      3  O   UNL d   1      32.904  20.649 -20.591  0.00  0.00    -0.265 OA
ENDROOT
BRANCH   1   4
ATOM      4  C   UNL d   1      32.474  22.195 -20.955  0.00  0.00     0.197 A 
ATOM      5  N   UNL d   1      32.516  22.058 -20.143  0.00  0.00    -0.218 NA
ATOM      6  C   UNL d   1      32.488  22.790 -19.761  0.00  0.00     0.113 A 
ATOM      7  C   UNL d   1      32.428  23.380 -20.335  0.00  0.00     0.059 A 
ATOM      8  S   UNL d   1      32.420  23.010 -21.069  0.00  0.00    -0.046 SA
BRANCH   6   9
ATOM      9  C   UNL d   1      32.515  22.911 -18.948  0.00  0.00     0.118 A 
ATOM     10  O   UNL d   1      32.054  23.348 -18.487  0.00  0.00    -0.306 OA
ATOM     11  C   UNL d   1      32.229  23.347 -17.718  0.00  0.00     0.100 A 
ATOM     12  C   UNL d   1      31.928  23.700 -17.031  0.00  0.00     0.025 A 
ATOM     13  C   UNL d   1      32.892  22.841 -17.665  0.00  0.00     0.025 A 
ATOM     14  C   UNL d   1      32.278  23.555 -16.302  0.00  0.00     0.002 A 
ATOM     15  C   UNL d   1      32.943  23.050 -16.239  0.00  0.00     0.000 A 
ATOM     16  C   UNL d   1      33.241  22.699 -16.927  0.00  0.00     0.002 A 
ATOM     17  C   UNL d   1      33.062  22.576 -18.426  0.00  0.00     0.028 A 
ENDBRANCH   6   9
ENDBRANCH   1   4
BRANCH   2  18
ATOM     18  C   UNL d   1      32.707  20.274 -21.958  0.00  0.00     0.058 A 
ATOM     19  C   UNL d   1      32.488  20.469 -22.729  0.00  0.00     0.005 A 
ATOM     20  C   UNL d   1      32.500  19.895 -23.310  0.00  0.00     0.013 A 
ATOM     21  C   UNL d   1      32.732  19.116 -23.128  0.00  0.00     0.104 A 
ATOM     22  C   UNL d   1      32.949  18.934 -22.350  0.00  0.00     0.013 A 
ATOM     23  C   UNL d   1      32.937  19.508 -21.773  0.00  0.00     0.005 A 
BRANCH  21  24
ATOM     24  S   UNL d   1      32.743  18.536 -23.719  0.00  0.00     0.271 S 
ATOM     25  O   UNL d   1      33.199  19.030 -24.189  0.00  0.00    -0.200 OA
ATOM     26  O   UNL d   1      32.283  18.040 -23.245  0.00  0.00    -0.200 OA
BRANCH  24  27
ATOM     27  N   UNL d   1      32.754  17.960 -24.306  0.00  0.00    -0.226 N 
ATOM     28  C   UNL d   1      32.357  17.251 -24.191  0.00  0.00     0.111 C 
ATOM     29  C   UNL d   1      33.161  18.095 -25.005  0.00  0.00     0.111 C 
ENDBRANCH  24  27
ENDBRANCH  21  24
ENDBRANCH   2  18
TORSDOF 5
ENDMDL
