MODEL 1
REMARK VINA RESULT:      45.5      0.000      0.000
REMARK  8 active torsions:
REMARK  status: ('A' for Active; 'I' for Inactive)
REMARK    1  A    between atoms: C_6  and  N_1 
REMARK    2  A    between atoms: C_15  and  N_2 
REMARK    3  A    between atoms: C_8  and  C_3 
REMARK    4  A    between atoms: O_23  and  C_5 
REMARK    5  A    between atoms: C_7  and  O_9 
REMARK    6  A    between atoms: O_9  and  C_21 
REMARK    7  A    between atoms: C_20  and  C_15 
REMARK    8  A    between atoms: C_21  and  C_20 
ROOT
ATOM      1  C   UNL d   1      45.853 -19.389  44.109  0.00  0.00     0.238 C 
ATOM      2  O   UNL d   1      45.413 -20.087  44.127  0.00  0.00    -0.283 OA
ENDROOT
BRANCH   1   3
ATOM      3  C   UNL d   1      45.933 -18.930  44.790  0.00  0.00     0.125 C 
BRANCH   3   4
ATOM      4  N   UNL d   1      45.892 -18.100  44.745  0.00  0.00    -0.297 N 
ATOM      5  C   UNL d   1      45.183 -17.725  44.955  0.00  0.00     0.100 A 
ATOM      6  C   UNL d   1      45.129 -16.901  44.914  0.00  0.00     0.100 A 
ATOM      7  N   UNL d   1      45.782 -16.460  44.664  0.00  0.00    -0.301 N 
ATOM      8  C   UNL d   1      46.490 -16.838  44.455  0.00  0.00     0.100 A 
ATOM      9  C   UNL d   1      46.543 -17.671  44.496  0.00  0.00     0.100 A 
BRANCH   7  10
ATOM     10  C   UNL d   1      45.728 -15.638  44.624  0.00  0.00     0.064 A 
ATOM     11  C   UNL d   1      46.405 -15.184  44.498  0.00  0.00     0.020 A 
ATOM     12  C   UNL d   1      46.355 -14.359  44.457  0.00  0.00     0.031 A 
ATOM     13  C   UNL d   1      45.621 -13.995  44.542  0.00  0.00     0.140 A 
ATOM     14  C   UNL d   1      44.940 -14.451  44.668  0.00  0.00     0.031 A 
ATOM     15  F   UNL d   1      45.568 -13.172  44.502  0.00  0.00    -0.204 F 
ATOM     16  C   UNL d   1      45.002 -15.269  44.708  0.00  0.00     0.020 A 
ENDBRANCH   7  10
ENDBRANCH   3   4
ENDBRANCH   1   3
BRANCH   1  17
ATOM     17  C   UNL d   1      46.223 -19.142  43.398  0.00  0.00     0.166 C 
BRANCH  17  18
ATOM     18  O   UNL d   1      46.056 -19.538  42.678  0.00  0.00    -0.300 OA
BRANCH  18  19
ATOM     19  C   UNL d   1      45.987 -19.124  41.953  0.00  0.00     0.122 A 
ATOM     20  C   UNL d   1      45.274 -19.111  41.554  0.00  0.00     0.117 A 
ATOM     21  C   UNL d   1      45.206 -18.707  40.845  0.00  0.00     0.029 A 
ATOM     22  C   UNL d   1      45.860 -18.311  40.532  0.00  0.00     0.041 A 
ATOM     23  C   UNL d   1      46.573 -18.323  40.931  0.00  0.00     0.005 A 
ATOM     24  C   UNL d   1      46.645 -18.732  41.650  0.00  0.00     0.027 A 
BRANCH  20  25
ATOM     25  O   UNL d   1      44.625 -19.506  41.867  0.00  0.00    -0.326 OA
ATOM     26  C   UNL d   1      43.866 -19.200  41.762  0.00  0.00     0.181 C 
ENDBRANCH  20  25
BRANCH  22  27
ATOM     27  C   UNL d   1      45.793 -17.904  39.820  0.00  0.00     0.196 C 
ATOM     28  O   UNL d   1      45.084 -17.920  39.399  0.00  0.00    -0.287 OA
ATOM     29  C   UNL d   1      46.436 -17.481  39.527  0.00  0.00     0.045 C 
ENDBRANCH  22  27
ENDBRANCH  18  19
ENDBRANCH  17  18
ENDBRANCH   1  17
TORSDOF 8
ENDMDL
