MODEL 1
REMARK VINA RESULT:      -7.1      0.000      0.000
REMARK  3 active torsions:
REMARK  status: ('A' for Active; 'I' for Inactive)
REMARK    1  A    between atoms: C_13  and  C_4 
REMARK    2  A    between atoms: O_15  and  C_13 
REMARK    3  A    between atoms: C_16  and  O_15 
ROOT
ATOM      1  C   UNL d   1     -46.859  12.667  23.238  0.00  0.00     0.144 C 
ENDROOT
BRANCH   1   2
ATOM      2  C   UNL d   1     -46.254  12.124  23.281  0.00  0.00     0.142 A 
ATOM      3  N   UNL d   1     -45.467  12.236  23.067  0.00  0.00    -0.057 NA
ATOM      4  C   UNL d   1     -45.043  11.542  23.200  0.00  0.00     0.735 A 
ATOM      5  N   UNL d   1     -45.568  10.969  23.508  0.00  0.00    -0.136 N 
ATOM      6  N   UNL d   1     -44.255  11.346  23.087  0.00  0.00    -0.059 NA
ATOM      7  C   UNL d   1     -46.308  11.346  23.550  0.00  0.00     0.120 A 
ATOM      8  C   UNL d   1     -45.302  10.214  23.698  0.00  0.00     0.100 A 
ATOM      9  C   UNL d   1     -44.533  10.005  23.593  0.00  0.00     0.041 A 
ATOM     10  C   UNL d   1     -43.978  10.574  23.280  0.00  0.00     0.119 A 
ENDBRANCH   1   2
BRANCH   1  11
ATOM     11  O   UNL d   1     -47.157  12.897  22.512  0.00  0.00    -0.303 OA
BRANCH  11  12
ATOM     12  C   UNL d   1     -47.777  13.439  22.463  0.00  0.00     0.100 A 
ATOM     13  C   UNL d   1     -48.447  13.240  22.041  0.00  0.00     0.025 A 
ATOM     14  C   UNL d   1     -49.068  13.779  21.989  0.00  0.00     0.013 A 
ATOM     15  C   UNL d   1     -49.762  13.572  21.551  0.00  0.00     0.001 C 
ATOM     16  C   UNL d   1     -49.020  14.518  22.362  0.00  0.00     0.058 A 
ATOM     17  C   UNL d   1     -48.350  14.716  22.783  0.00  0.00     0.013 A 
ATOM     18 CL   UNL d   1     -49.639  15.075  22.320  0.00  0.00    -0.082 Cl
ATOM     19  C   UNL d   1     -47.729  14.174  22.833  0.00  0.00     0.026 A 
ENDBRANCH  11  12
ENDBRANCH   1  11
TORSDOF 3
ENDMDL
MODEL 2
REMARK VINA RESULT:      -6.3      1.432      2.087
REMARK  3 active torsions:
REMARK  status: ('A' for Active; 'I' for Inactive)
REMARK    1  A    between atoms: C_13  and  C_4 
REMARK    2  A    between atoms: O_15  and  C_13 
REMARK    3  A    between atoms: C_16  and  O_15 
ROOT
ATOM      1  C   UNL d   1     -47.583  14.100  23.142  0.00  0.00     0.144 C 
ENDROOT
BRANCH   1   2
ATOM      2  C   UNL d   1     -46.901  13.698  22.951  0.00  0.00     0.142 A 
ATOM      3  N   UNL d   1     -46.607  13.017  23.307  0.00  0.00    -0.057 NA
ATOM      4  C   UNL d   1     -45.902  12.795  22.941  0.00  0.00     0.735 A 
ATOM      5  N   UNL d   1     -45.738  13.346  22.335  0.00  0.00    -0.136 N 
ATOM      6  N   UNL d   1     -45.385  12.173  23.070  0.00  0.00    -0.059 NA
ATOM      7  C   UNL d   1     -46.363  13.894  22.356  0.00  0.00     0.120 A 
ATOM      8  C   UNL d   1     -45.064  13.270  21.868  0.00  0.00     0.100 A 
ATOM      9  C   UNL d   1     -44.547  12.666  21.981  0.00  0.00     0.041 A 
ATOM     10  C   UNL d   1     -44.694  12.090  22.595  0.00  0.00     0.119 A 
ENDBRANCH   1   2
BRANCH   1  11
ATOM     11  O   UNL d   1     -48.287  13.922  22.766  0.00  0.00    -0.303 OA
BRANCH  11  12
ATOM     12  C   UNL d   1     -48.980  14.326  22.956  0.00  0.00     0.100 A 
ATOM     13  C   UNL d   1     -49.631  13.903  23.209  0.00  0.00     0.025 A 
ATOM     14  C   UNL d   1     -50.325  14.303  23.400  0.00  0.00     0.013 A 
ATOM     15  C   UNL d   1     -50.999  13.863  23.663  0.00  0.00     0.001 C 
ATOM     16  C   UNL d   1     -50.369  15.128  23.338  0.00  0.00     0.058 A 
ATOM     17  C   UNL d   1     -49.719  15.550  23.085  0.00  0.00     0.013 A 
ATOM     18 CL   UNL d   1     -51.064  15.549  23.527  0.00  0.00    -0.082 Cl
ATOM     19  C   UNL d   1     -49.025  15.147  22.895  0.00  0.00     0.026 A 
ENDBRANCH  11  12
ENDBRANCH   1  11
TORSDOF 3
ENDMDL
MODEL 3
REMARK VINA RESULT:      -5.3      8.151      9.112
REMARK  3 active torsions:
REMARK  status: ('A' for Active; 'I' for Inactive)
REMARK    1  A    between atoms: C_13  and  C_4 
REMARK    2  A    between atoms: O_15  and  C_13 
REMARK    3  A    between atoms: C_16  and  O_15 
ROOT
ATOM      1  C   UNL d   1     -39.599  14.602  19.793  0.00  0.00     0.144 C 
ENDROOT
BRANCH   1   2
ATOM      2  C   UNL d   1     -39.853  14.846  19.059  0.00  0.00     0.142 A 
ATOM      3  N   UNL d   1     -40.546  14.629  18.672  0.00  0.00    -0.057 NA
ATOM      4  C   UNL d   1     -40.585  15.005  17.940  0.00  0.00     0.735 A 
ATOM      5  N   UNL d   1     -39.900  15.476  17.852  0.00  0.00    -0.136 N 
ATOM      6  N   UNL d   1     -41.142  14.989  17.339  0.00  0.00    -0.059 NA
ATOM      7  C   UNL d   1     -39.462  15.365  18.549  0.00  0.00     0.120 A 
ATOM      8  C   UNL d   1     -39.781  15.922  17.170  0.00  0.00     0.100 A 
ATOM      9  C   UNL d   1     -40.318  15.918  16.572  0.00  0.00     0.041 A 
ATOM     10  C   UNL d   1     -41.025  15.443  16.640  0.00  0.00     0.119 A 
ENDBRANCH   1   2
BRANCH   1  11
ATOM     11  O   UNL d   1     -39.935  14.913  20.471  0.00  0.00    -0.303 OA
BRANCH  11  12
ATOM     12  C   UNL d   1     -39.612  14.752  21.213  0.00  0.00     0.100 A 
ATOM     13  C   UNL d   1     -39.454  15.371  21.720  0.00  0.00     0.025 A 
ATOM     14  C   UNL d   1     -39.132  15.215  22.462  0.00  0.00     0.013 A 
ATOM     15  C   UNL d   1     -38.968  15.858  22.988  0.00  0.00     0.001 C 
ATOM     16  C   UNL d   1     -38.968  14.437  22.697  0.00  0.00     0.058 A 
ATOM     17  C   UNL d   1     -39.127  13.819  22.190  0.00  0.00     0.013 A 
ATOM     18 CL   UNL d   1     -38.642  14.261  23.445  0.00  0.00    -0.082 Cl
ATOM     19  C   UNL d   1     -39.449  13.979  21.447  0.00  0.00     0.026 A 
ENDBRANCH  11  12
ENDBRANCH   1  11
TORSDOF 3
ENDMDL
MODEL 4
REMARK VINA RESULT:      -5.0      7.934      8.354
REMARK  3 active torsions:
REMARK  status: ('A' for Active; 'I' for Inactive)
REMARK    1  A    between atoms: C_13  and  C_4 
REMARK    2  A    between atoms: O_15  and  C_13 
REMARK    3  A    between atoms: C_16  and  O_15 
ROOT
ATOM      1  C   UNL d   1     -40.060  14.943  20.367  0.00  0.00     0.144 C 
ENDROOT
BRANCH   1   2
ATOM      2  C   UNL d   1     -39.705  14.782  21.082  0.00  0.00     0.142 A 
ATOM      3  N   UNL d   1     -39.435  15.323  21.640  0.00  0.00    -0.057 NA
ATOM      4  C   UNL d   1     -39.113  14.922  22.283  0.00  0.00     0.735 A 
ATOM      5  N   UNL d   1     -39.177  14.101  22.138  0.00  0.00    -0.136 N 
ATOM      6  N   UNL d   1     -38.771  15.181  22.981  0.00  0.00    -0.059 NA
ATOM      7  C   UNL d   1     -39.544  14.034  21.395  0.00  0.00     0.120 A 
ATOM      8  C   UNL d   1     -38.901  13.554  22.687  0.00  0.00     0.100 A 
ATOM      9  C   UNL d   1     -38.563  13.791  23.376  0.00  0.00     0.041 A 
ATOM     10  C   UNL d   1     -38.486  14.625  23.546  0.00  0.00     0.119 A 
ENDBRANCH   1   2
BRANCH   1  11
ATOM     11  O   UNL d   1     -39.607  15.156  19.720  0.00  0.00    -0.303 OA
BRANCH  11  12
ATOM     12  C   UNL d   1     -39.953  15.256  18.978  0.00  0.00     0.100 A 
ATOM     13  C   UNL d   1     -39.707  14.787  18.357  0.00  0.00     0.025 A 
ATOM     14  C   UNL d   1     -40.050  14.885  17.615  0.00  0.00     0.013 A 
ATOM     15  C   UNL d   1     -39.794  14.398  16.971  0.00  0.00     0.001 C 
ATOM     16  C   UNL d   1     -40.641  15.453  17.493  0.00  0.00     0.058 A 
ATOM     17  C   UNL d   1     -40.887  15.921  18.114  0.00  0.00     0.013 A 
ATOM     18 CL   UNL d   1     -41.000  15.565  16.748  0.00  0.00    -0.082 Cl
ATOM     19  C   UNL d   1     -40.541  15.821  18.857  0.00  0.00     0.026 A 
ENDBRANCH  11  12
ENDBRANCH   1  11
TORSDOF 3
ENDMDL
MODEL 5
REMARK VINA RESULT:      -4.6      2.408      4.779
REMARK  3 active torsions:
REMARK  status: ('A' for Active; 'I' for Inactive)
REMARK    1  A    between atoms: C_13  and  C_4 
REMARK    2  A    between atoms: O_15  and  C_13 
REMARK    3  A    between atoms: C_16  and  O_15 
ROOT
ATOM      1  C   UNL d   1     -46.598  13.424  22.797  0.00  0.00     0.144 C 
ENDROOT
BRANCH   1   2
ATOM      2  C   UNL d   1     -47.308  13.822  22.817  0.00  0.00     0.142 A 
ATOM      3  N   UNL d   1     -47.428  14.633  22.746  0.00  0.00    -0.057 NA
ATOM      4  C   UNL d   1     -48.233  14.799  22.797  0.00  0.00     0.735 A 
ATOM      5  N   UNL d   1     -48.643  14.079  22.904  0.00  0.00    -0.136 N 
ATOM      6  N   UNL d   1     -48.656  15.501  22.763  0.00  0.00    -0.059 NA
ATOM      7  C   UNL d   1     -48.057  13.489  22.914  0.00  0.00     0.120 A 
ATOM      8  C   UNL d   1     -49.463  14.068  22.974  0.00  0.00     0.100 A 
ATOM      9  C   UNL d   1     -49.892  14.746  22.942  0.00  0.00     0.041 A 
ATOM     10  C   UNL d   1     -49.495  15.495  22.834  0.00  0.00     0.119 A 
ENDBRANCH   1   2
BRANCH   1  11
ATOM     11  O   UNL d   1     -46.566  12.627  22.978  0.00  0.00    -0.303 OA
BRANCH  11  12
ATOM     12  C   UNL d   1     -45.850  12.218  22.957  0.00  0.00     0.100 A 
ATOM     13  C   UNL d   1     -45.794  11.495  23.330  0.00  0.00     0.025 A 
ATOM     14  C   UNL d   1     -45.080  11.083  23.310  0.00  0.00     0.013 A 
ATOM     15  C   UNL d   1     -45.023  10.332  23.698  0.00  0.00     0.001 C 
ATOM     16  C   UNL d   1     -44.421  11.396  22.916  0.00  0.00     0.058 A 
ATOM     17  C   UNL d   1     -44.479  12.119  22.543  0.00  0.00     0.013 A 
ATOM     18 CL   UNL d   1     -43.692  10.993  22.886  0.00  0.00    -0.082 Cl
ATOM     19  C   UNL d   1     -45.195  12.529  22.565  0.00  0.00     0.026 A 
ENDBRANCH  11  12
ENDBRANCH   1  11
TORSDOF 3
ENDMDL
