MODEL 1
REMARK VINA RESULT:      28.7      0.000      0.000
REMARK  5 active torsions:
REMARK  status: ('A' for Active; 'I' for Inactive)
REMARK    1  A    between atoms: N_10  and  C_2 
REMARK    2  A    between atoms: C_14  and  C_3 
REMARK    3  A    between atoms: C_5  and  S_13 
REMARK       I    between atoms: C_12  and  N_10 
REMARK    4  A    between atoms: C_16  and  C_12 
REMARK    5  A    between atoms: S_13  and  C_16 
ROOT
ATOM      1  N   UNL d   1      14.373  12.995  -1.698  0.00  0.00    -0.051 NA
ATOM      2  C   UNL d   1      14.303  12.181  -1.790  0.00  0.00     0.760 A 
ATOM      3  C   UNL d   1      14.852  13.132  -1.049  0.00  0.00     0.147 A 
ATOM      4  N   UNL d   1      14.734  11.820  -1.203  0.00  0.00    -0.019 NA
ATOM      5  S   UNL d   1      15.076  12.409  -0.743  0.00  0.00     0.052 SA
ENDROOT
BRANCH   2   6
ATOM      6  N   UNL d   1      13.863  11.788  -2.385  0.00  0.00    -0.018 NA
ATOM      7  C   UNL d   1      13.485  12.216  -2.971  0.00  0.00     0.302 C 
ATOM      8  O   UNL d   1      13.539  13.035  -2.974  0.00  0.00    -0.264 OA
BRANCH   7   9
ATOM      9  C   UNL d   1      13.052  11.829  -3.557  0.00  0.00     0.100 C 
BRANCH   9  10
ATOM     10  S   UNL d   1      12.771  12.256  -4.208  0.00  0.00    -0.054 SA
BRANCH  10  11
ATOM     11  C   UNL d   1      13.263  12.395  -4.856  0.00  0.00     0.164 A 
ATOM     12  S   UNL d   1      13.670  13.089  -5.008  0.00  0.00    -0.039 SA
ATOM     13  C   UNL d   1      14.093  12.985  -5.715  0.00  0.00     0.134 A 
ATOM     14  C   UNL d   1      14.582  13.548  -6.078  0.00  0.00     0.030 C 
ATOM     15  N   UNL d   1      13.941  12.223  -5.994  0.00  0.00    -0.140 NA
ATOM     16  N   UNL d   1      13.427  11.855  -5.463  0.00  0.00    -0.134 NA
ENDBRANCH  10  11
ENDBRANCH   9  10
ENDBRANCH   7   9
ENDBRANCH   2   6
BRANCH   3  17
ATOM     17  C   UNL d   1      15.091  13.855  -0.729  0.00  0.00     0.026 A 
ATOM     18  C   UNL d   1      15.814  13.913  -0.338  0.00  0.00     0.002 A 
ATOM     19  C   UNL d   1      16.052  14.639  -0.017  0.00  0.00     0.000 A 
ATOM     20  C   UNL d   1      15.576  15.301  -0.085  0.00  0.00     0.000 A 
ATOM     21  C   UNL d   1      14.853  15.244  -0.475  0.00  0.00     0.000 A 
ATOM     22  C   UNL d   1      14.607  14.516  -0.800  0.00  0.00     0.002 A 
ENDBRANCH   3  17
TORSDOF 5
ENDMDL
MODEL 2
REMARK VINA RESULT:      30.4      1.453      4.318
REMARK  5 active torsions:
REMARK  status: ('A' for Active; 'I' for Inactive)
REMARK    1  A    between atoms: N_10  and  C_2 
REMARK    2  A    between atoms: C_14  and  C_3 
REMARK    3  A    between atoms: C_5  and  S_13 
REMARK       I    between atoms: C_12  and  N_10 
REMARK    4  A    between atoms: C_16  and  C_12 
REMARK    5  A    between atoms: S_13  and  C_16 
ROOT
ATOM      1  N   UNL d   1      13.563  13.010  -3.296  0.00  0.00    -0.051 NA
ATOM      2  C   UNL d   1      13.623  12.200  -3.172  0.00  0.00     0.760 A 
ATOM      3  C   UNL d   1      13.301  13.127  -4.062  0.00  0.00     0.147 A 
ATOM      4  N   UNL d   1      13.399  11.820  -3.855  0.00  0.00    -0.019 NA
ATOM      5  S   UNL d   1      13.199  12.394  -4.408  0.00  0.00     0.052 SA
ENDROOT
BRANCH   2   6
ATOM      6  N   UNL d   1      13.871  11.825  -2.465  0.00  0.00    -0.018 NA
ATOM      7  C   UNL d   1      13.683  12.149  -1.737  0.00  0.00     0.302 C 
ATOM      8  O   UNL d   1      13.249  12.845  -1.703  0.00  0.00    -0.264 OA
BRANCH   7   9
ATOM      9  C   UNL d   1      13.927  11.781  -1.040  0.00  0.00     0.100 C 
BRANCH   9  10
ATOM     10  S   UNL d   1      14.080  12.238  -0.367  0.00  0.00    -0.054 SA
BRANCH  10  11
ATOM     11  C   UNL d   1      14.723  12.756  -0.355  0.00  0.00     0.164 A 
ATOM     12  S   UNL d   1      14.702  13.540  -0.121  0.00  0.00    -0.039 SA
ATOM     13  C   UNL d   1      15.469  13.848  -0.197  0.00  0.00     0.134 A 
ATOM     14  C   UNL d   1      15.704  14.623  -0.020  0.00  0.00     0.030 C 
ATOM     15  N   UNL d   1      15.959  13.245  -0.478  0.00  0.00    -0.140 NA
ATOM     16  N   UNL d   1      15.499  12.567  -0.577  0.00  0.00    -0.134 NA
ENDBRANCH  10  11
ENDBRANCH   9  10
ENDBRANCH   7   9
ENDBRANCH   2   6
BRANCH   3  17
ATOM     17  C   UNL d   1      13.153  13.839  -4.453  0.00  0.00     0.026 A 
ATOM     18  C   UNL d   1      13.239  13.885  -5.271  0.00  0.00     0.002 A 
ATOM     19  C   UNL d   1      13.091  14.600  -5.662  0.00  0.00     0.000 A 
ATOM     20  C   UNL d   1      12.858  15.264  -5.243  0.00  0.00     0.000 A 
ATOM     21  C   UNL d   1      12.771  15.218  -4.426  0.00  0.00     0.000 A 
ATOM     22  C   UNL d   1      12.919  14.501  -4.026  0.00  0.00     0.002 A 
ENDBRANCH   3  17
TORSDOF 5
ENDMDL
