MODEL 1
REMARK VINA RESULT:      13.4      0.000      0.000
REMARK  10 active torsions:
REMARK  status: ('A' for Active; 'I' for Inactive)
REMARK    1  A    between atoms: C_9  and  C_1 
REMARK    2  A    between atoms: C_11  and  C_2 
REMARK    3  A    between atoms: S_12  and  C_3 
REMARK    4  A    between atoms: C_16  and  C_4 
REMARK    5  A    between atoms: C_7  and  N_8 
REMARK       I    between atoms: N_8  and  C_15 
REMARK    6  A    between atoms: O_26  and  C_9 
REMARK    7  A    between atoms: C_21  and  S_12 
REMARK    8  A    between atoms: C_15  and  C_21 
REMARK    9  A    between atoms: C_24  and  C_32 
REMARK   10  A    between atoms: C_32  and  O_26 
ROOT
ATOM      1  C   UNL d   1     -43.259-122.418 -50.499  0.00  0.00     0.081 A 
ATOM      2  C   UNL d   1     -41.856-122.724 -50.535  0.00  0.00     0.045 A 
ATOM      3  C   UNL d   1     -41.845-122.508 -51.379  0.00  0.00     0.112 A 
ATOM      4  C   UNL d   1     -42.558-122.672 -50.126  0.00  0.00     0.010 A 
ATOM      5  C   UNL d   1     -43.249-122.214 -51.297  0.00  0.00     0.087 A 
ATOM      6  N   UNL d   1     -42.538-122.264 -51.721  0.00  0.00    -0.239 NA
ATOM      7  C   UNL d   1     -43.956-121.955 -51.685  0.00  0.00     0.021 C 
ENDROOT
BRANCH   3   8
ATOM      8  S   UNL d   1     -41.135-122.540 -51.871  0.00  0.00    -0.062 SA
BRANCH   8   9
ATOM      9  C   UNL d   1     -41.124-123.032 -52.528  0.00  0.00     0.099 C 
BRANCH   9  10
ATOM     10  C   UNL d   1     -41.254-122.722 -53.252  0.00  0.00     0.288 C 
ATOM     11  N   UNL d   1     -41.461-123.220 -53.871  0.00  0.00    -0.182 NA
ATOM     12  O   UNL d   1     -41.186-121.929 -53.393  0.00  0.00    -0.265 OA
BRANCH  11  13
ATOM     13  C   UNL d   1     -41.593-122.918 -54.601  0.00  0.00     0.197 A 
ATOM     14  N   UNL d   1     -42.292-123.069 -54.975  0.00  0.00    -0.219 NA
ATOM     15  C   UNL d   1     -42.265-122.686 -55.712  0.00  0.00     0.108 A 
ATOM     16  C   UNL d   1     -41.550-122.305 -55.782  0.00  0.00     0.059 A 
ATOM     17  S   UNL d   1     -41.124-122.445 -55.090  0.00  0.00    -0.046 SA
ENDBRANCH  11  13
ENDBRANCH   9  10
ENDBRANCH   8   9
ENDBRANCH   3   8
BRANCH   2  18
ATOM     18  C   UNL d   1     -41.157-122.985 -50.131  0.00  0.00     0.124 C 
ATOM     19  N   UNL d   1     -41.125-123.726 -49.778  0.00  0.00    -0.146 N 
ENDBRANCH   2  18
BRANCH   4  20
ATOM     20  C   UNL d   1     -42.568-122.872 -49.343  0.00  0.00     0.000 A 
ATOM     21  C   UNL d   1     -42.846-123.613 -49.107  0.00  0.00     0.001 A 
ATOM     22  C   UNL d   1     -42.856-123.814 -48.325  0.00  0.00     0.011 A 
ATOM     23  C   UNL d   1     -42.588-123.278 -47.755  0.00  0.00     0.058 A 
ATOM     24  C   UNL d   1     -42.307-122.530 -47.990  0.00  0.00     0.011 A 
ATOM     25 CL   UNL d   1     -42.598-123.485 -46.949  0.00  0.00    -0.082 Cl
ATOM     26  C   UNL d   1     -42.297-122.326 -48.787  0.00  0.00     0.001 A 
ENDBRANCH   4  20
BRANCH   1  27
ATOM     27  C   UNL d   1     -43.976-122.375 -50.043  0.00  0.00     0.302 C 
ATOM     28  O   UNL d   1     -44.377-123.057 -49.815  0.00  0.00    -0.259 OA
BRANCH  27  29
ATOM     29  O   UNL d   1     -44.267-121.631 -49.831  0.00  0.00    -0.271 OA
BRANCH  29  30
ATOM     30  C   UNL d   1     -45.062-121.516 -49.743  0.00  0.00     0.126 C 
BRANCH  30  31
ATOM     31  C   UNL d   1     -45.389-120.759 -49.868  0.00  0.00     0.027 C 
ATOM     32  C   UNL d   1     -45.569-120.289 -49.236  0.00  0.00     0.002 C 
ENDBRANCH  30  31
ENDBRANCH  29  30
ENDBRANCH  27  29
ENDBRANCH   1  27
TORSDOF 10
ENDMDL
MODEL 2
REMARK VINA RESULT:      13.6      2.556      5.233
REMARK  10 active torsions:
REMARK  status: ('A' for Active; 'I' for Inactive)
REMARK    1  A    between atoms: C_9  and  C_1 
REMARK    2  A    between atoms: C_11  and  C_2 
REMARK    3  A    between atoms: S_12  and  C_3 
REMARK    4  A    between atoms: C_16  and  C_4 
REMARK    5  A    between atoms: C_7  and  N_8 
REMARK       I    between atoms: N_8  and  C_15 
REMARK    6  A    between atoms: O_26  and  C_9 
REMARK    7  A    between atoms: C_21  and  S_12 
REMARK    8  A    between atoms: C_15  and  C_21 
REMARK    9  A    between atoms: C_24  and  C_32 
REMARK   10  A    between atoms: C_32  and  O_26 
ROOT
ATOM      1  C   UNL d   1     -42.537-121.669 -53.279  0.00  0.00     0.081 A 
ATOM      2  C   UNL d   1     -41.686-122.579 -52.566  0.00  0.00     0.045 A 
ATOM      3  C   UNL d   1     -41.918-122.191 -51.822  0.00  0.00     0.112 A 
ATOM      4  C   UNL d   1     -42.001-122.307 -53.265  0.00  0.00     0.010 A 
ATOM      5  C   UNL d   1     -42.757-121.302 -52.576  0.00  0.00     0.087 A 
ATOM      6  N   UNL d   1     -42.441-121.572 -51.858  0.00  0.00    -0.239 NA
ATOM      7  C   UNL d   1     -43.301-120.653 -52.579  0.00  0.00     0.021 C 
ENDROOT
BRANCH   3   8
ATOM      8  S   UNL d   1     -41.621-122.429 -51.045  0.00  0.00    -0.062 SA
BRANCH   8   9
ATOM      9  C   UNL d   1     -41.873-122.023 -50.378  0.00  0.00     0.099 C 
BRANCH   9  10
ATOM     10  C   UNL d   1     -41.818-122.372 -49.663  0.00  0.00     0.288 C 
ATOM     11  N   UNL d   1     -42.319-122.132 -49.058  0.00  0.00    -0.182 NA
ATOM     12  O   UNL d   1     -41.281-122.959 -49.516  0.00  0.00    -0.265 OA
BRANCH  11  13
ATOM     13  C   UNL d   1     -42.272-122.477 -48.337  0.00  0.00     0.197 A 
ATOM     14  N   UNL d   1     -42.944-122.740 -47.976  0.00  0.00    -0.219 NA
ATOM     15  C   UNL d   1     -42.719-123.067 -47.245  0.00  0.00     0.108 A 
ATOM     16  C   UNL d   1     -41.912-122.999 -47.167  0.00  0.00     0.059 A 
ATOM     17  S   UNL d   1     -41.626-122.631 -47.847  0.00  0.00    -0.046 SA
ENDBRANCH  11  13
ENDBRANCH   9  10
ENDBRANCH   8   9
ENDBRANCH   3   8
BRANCH   2  18
ATOM     18  C   UNL d   1     -41.142-123.231 -52.579  0.00  0.00     0.124 C 
ATOM     19  N   UNL d   1     -41.150-123.799 -51.986  0.00  0.00    -0.146 N 
ENDBRANCH   2  18
BRANCH   4  20
ATOM     20  C   UNL d   1     -41.786-122.667 -53.956  0.00  0.00     0.000 A 
ATOM     21  C   UNL d   1     -41.985-123.457 -54.093  0.00  0.00     0.001 A 
ATOM     22  C   UNL d   1     -41.770-123.817 -54.782  0.00  0.00     0.011 A 
ATOM     23  C   UNL d   1     -41.348-123.398 -55.356  0.00  0.00     0.058 A 
ATOM     24  C   UNL d   1     -41.145-122.602 -55.222  0.00  0.00     0.011 A 
ATOM     25 CL   UNL d   1     -41.126-123.770 -56.067  0.00  0.00    -0.082 Cl
ATOM     26  C   UNL d   1     -41.365-122.234 -54.519  0.00  0.00     0.001 A 
ENDBRANCH   4  20
BRANCH   1  27
ATOM     27  C   UNL d   1     -42.849-121.409 -54.027  0.00  0.00     0.302 C 
ATOM     28  O   UNL d   1     -42.478-120.813 -54.458  0.00  0.00    -0.259 OA
BRANCH  27  29
ATOM     29  O   UNL d   1     -43.536-121.766 -54.317  0.00  0.00    -0.271 OA
BRANCH  29  30
ATOM     30  C   UNL d   1     -44.025-121.361 -54.816  0.00  0.00     0.126 C 
BRANCH  30  31
ATOM     31  C   UNL d   1     -44.824-121.586 -54.888  0.00  0.00     0.027 C 
ATOM     32  C   UNL d   1     -45.016-122.282 -55.252  0.00  0.00     0.002 C 
ENDBRANCH  30  31
ENDBRANCH  29  30
ENDBRANCH  27  29
ENDBRANCH   1  27
TORSDOF 10
ENDMDL
