MODEL 1
REMARK VINA RESULT:      -4.0      0.000      0.000
REMARK  4 active torsions:
REMARK  status: ('A' for Active; 'I' for Inactive)
REMARK    1  A    between atoms: C_5  and  N_1 
REMARK       I    between atoms: C_2  and  N_3 
REMARK    2  A    between atoms: C_6  and  C_2 
REMARK    3  A    between atoms: N_3  and  C_4 
REMARK    4  A    between atoms: O_18  and  C_11 
ROOT
ATOM      1  C   UNL d   1      57.961   0.423  31.192  0.00  0.00     0.108 A 
ATOM      2  C   UNL d   1      58.320   0.331  29.870  0.00  0.00     0.128 A 
ATOM      3  C   UNL d   1      57.741   0.304  30.417  0.00  0.00     0.045 A 
ATOM      4  C   UNL d   1      58.716   0.559  31.403  0.00  0.00     0.112 A 
ATOM      5  C   UNL d   1      59.069   0.460  30.021  0.00  0.00     0.026 A 
ATOM      6  C   UNL d   1      59.304   0.582  30.806  0.00  0.00     0.027 A 
ENDROOT
BRANCH   1   7
ATOM      7  N   UNL d   1      57.339   0.399  31.824  0.00  0.00    -0.204 NA
ATOM      8  C   UNL d   1      56.899  -0.306  31.911  0.00  0.00     0.302 C 
ATOM      9  O   UNL d   1      57.071  -0.932  31.404  0.00  0.00    -0.263 OA
BRANCH   8  10
ATOM     10  C   UNL d   1      56.306  -0.387  32.482  0.00  0.00     0.158 A 
ATOM     11  O   UNL d   1      55.893   0.201  32.890  0.00  0.00    -0.300 OA
ATOM     12  C   UNL d   1      55.358  -0.185  33.402  0.00  0.00     0.123 A 
ATOM     13  C   UNL d   1      55.465  -1.011  33.288  0.00  0.00     0.029 A 
ATOM     14  C   UNL d   1      56.038  -1.098  32.733  0.00  0.00     0.032 A 
ENDBRANCH   8  10
ENDBRANCH   1   7
BRANCH   4  15
ATOM     15  O   UNL d   1      58.951   0.681  32.188  0.00  0.00    -0.327 OA
ATOM     16  C   UNL d   1      59.806   0.665  32.379  0.00  0.00     0.181 C 
ENDBRANCH   4  15
BRANCH   2  17
ATOM     17  N   UNL d   1      58.070   0.200  29.021  0.00  0.00    -0.114 N 
ATOM     18  O   UNL d   1      57.439   0.673  28.667  0.00  0.00    -0.532 OA
ATOM     19  O   UNL d   1      58.469  -0.395  28.582  0.00  0.00    -0.532 OA
ENDBRANCH   2  17
TORSDOF 4
ENDMDL
MODEL 2
REMARK VINA RESULT:      -3.7      1.935      2.561
REMARK  4 active torsions:
REMARK  status: ('A' for Active; 'I' for Inactive)
REMARK    1  A    between atoms: C_5  and  N_1 
REMARK       I    between atoms: C_2  and  N_3 
REMARK    2  A    between atoms: C_6  and  C_2 
REMARK    3  A    between atoms: N_3  and  C_4 
REMARK    4  A    between atoms: O_18  and  C_11 
ROOT
ATOM      1  C   UNL d   1      58.485  -1.005  29.803  0.00  0.00     0.108 A 
ATOM      2  C   UNL d   1      58.963  -2.151  29.218  0.00  0.00     0.128 A 
ATOM      3  C   UNL d   1      58.674  -1.794  29.869  0.00  0.00     0.045 A 
ATOM      4  C   UNL d   1      58.581  -0.601  29.124  0.00  0.00     0.112 A 
ATOM      5  C   UNL d   1      59.077  -1.805  28.534  0.00  0.00     0.026 A 
ATOM      6  C   UNL d   1      58.888  -1.002  28.455  0.00  0.00     0.027 A 
ENDROOT
BRANCH   1   7
ATOM      7  N   UNL d   1      58.160  -0.580  30.510  0.00  0.00    -0.204 NA
ATOM      8  C   UNL d   1      57.488  -0.904  30.886  0.00  0.00     0.302 C 
ATOM      9  O   UNL d   1      57.171  -1.598  30.574  0.00  0.00    -0.263 OA
BRANCH   8  10
ATOM     10  C   UNL d   1      57.141  -0.552  31.548  0.00  0.00     0.158 A 
ATOM     11  O   UNL d   1      57.234   0.216  31.837  0.00  0.00    -0.300 OA
ATOM     12  C   UNL d   1      56.758   0.281  32.521  0.00  0.00     0.123 A 
ATOM     13  C   UNL d   1      56.384  -0.465  32.628  0.00  0.00     0.029 A 
ATOM     14  C   UNL d   1      56.634  -0.940  32.031  0.00  0.00     0.032 A 
ENDBRANCH   8  10
ENDBRANCH   1   7
BRANCH   4  15
ATOM     15  O   UNL d   1      58.393   0.202  29.045  0.00  0.00    -0.327 OA
ATOM     16  C   UNL d   1      58.829   0.682  28.456  0.00  0.00     0.181 C 
ENDBRANCH   4  15
BRANCH   2  17
ATOM     17  N   UNL d   1      59.169  -3.019  29.299  0.00  0.00    -0.114 N 
ATOM     18  O   UNL d   1      58.584  -3.631  29.124  0.00  0.00    -0.532 OA
ATOM     19  O   UNL d   1      59.947  -3.216  29.548  0.00  0.00    -0.532 OA
ENDBRANCH   2  17
TORSDOF 4
ENDMDL
MODEL 3
REMARK VINA RESULT:      -2.0      1.530      3.810
REMARK  4 active torsions:
REMARK  status: ('A' for Active; 'I' for Inactive)
REMARK    1  A    between atoms: C_5  and  N_1 
REMARK       I    between atoms: C_2  and  N_3 
REMARK    2  A    between atoms: C_6  and  C_2 
REMARK    3  A    between atoms: N_3  and  C_4 
REMARK    4  A    between atoms: O_18  and  C_11 
ROOT
ATOM      1  C   UNL d   1      56.861   0.449  32.997  0.00  0.00     0.108 A 
ATOM      2  C   UNL d   1      55.684   0.251  33.674  0.00  0.00     0.128 A 
ATOM      3  C   UNL d   1      56.060   0.305  32.974  0.00  0.00     0.045 A 
ATOM      4  C   UNL d   1      57.258   0.533  33.681  0.00  0.00     0.112 A 
ATOM      5  C   UNL d   1      56.021   0.324  34.367  0.00  0.00     0.026 A 
ATOM      6  C   UNL d   1      56.836   0.471  34.403  0.00  0.00     0.027 A 
ENDROOT
BRANCH   1   7
ATOM      7  N   UNL d   1      57.309   0.515  32.234  0.00  0.00    -0.204 NA
ATOM      8  C   UNL d   1      57.295  -0.140  31.716  0.00  0.00     0.302 C 
ATOM      9  O   UNL d   1      56.866  -0.805  31.948  0.00  0.00    -0.263 OA
BRANCH   8  10
ATOM     10  C   UNL d   1      57.693  -0.137  30.991  0.00  0.00     0.158 A 
ATOM     11  O   UNL d   1      58.062  -0.763  30.598  0.00  0.00    -0.300 OA
ATOM     12  C   UNL d   1      58.377  -0.456  29.889  0.00  0.00     0.123 A 
ATOM     13  C   UNL d   1      58.186   0.363  29.872  0.00  0.00     0.029 A 
ATOM     14  C   UNL d   1      57.777   0.521  30.544  0.00  0.00     0.032 A 
ENDBRANCH   8  10
ENDBRANCH   1   7
BRANCH   4  15
ATOM     15  O   UNL d   1      58.073   0.679  33.717  0.00  0.00    -0.327 OA
ATOM     16  C   UNL d   1      58.469   0.673  34.499  0.00  0.00     0.181 C 
ENDBRANCH   4  15
BRANCH   2  17
ATOM     17  N   UNL d   1      54.803   0.093  33.640  0.00  0.00    -0.114 N 
ATOM     18  O   UNL d   1      54.236   0.682  33.920  0.00  0.00    -0.532 OA
ATOM     19  O   UNL d   1      54.549  -0.645  33.329  0.00  0.00    -0.532 OA
ENDBRANCH   2  17
TORSDOF 4
ENDMDL
MODEL 4
REMARK VINA RESULT:      -1.3      1.326      2.210
REMARK  4 active torsions:
REMARK  status: ('A' for Active; 'I' for Inactive)
REMARK    1  A    between atoms: C_5  and  N_1 
REMARK       I    between atoms: C_2  and  N_3 
REMARK    2  A    between atoms: C_6  and  C_2 
REMARK    3  A    between atoms: N_3  and  C_4 
REMARK    4  A    between atoms: O_18  and  C_11 
ROOT
ATOM      1  C   UNL d   1      58.410   0.426  30.320  0.00  0.00     0.108 A 
ATOM      2  C   UNL d   1      59.719   0.214  29.965  0.00  0.00     0.128 A 
ATOM      3  C   UNL d   1      59.181   0.291  30.547  0.00  0.00     0.045 A 
ATOM      4  C   UNL d   1      58.196   0.479  29.556  0.00  0.00     0.112 A 
ATOM      5  C   UNL d   1      59.565   0.257  29.207  0.00  0.00     0.026 A 
ATOM      6  C   UNL d   1      58.784   0.394  28.964  0.00  0.00     0.027 A 
ENDROOT
BRANCH   1   7
ATOM      7  N   UNL d   1      57.787   0.517  30.945  0.00  0.00    -0.204 NA
ATOM      8  C   UNL d   1      57.569  -0.163  31.379  0.00  0.00     0.302 C 
ATOM      9  O   UNL d   1      57.947  -0.873  31.198  0.00  0.00    -0.263 OA
BRANCH   8  10
ATOM     10  C   UNL d   1      56.994  -0.141  31.973  0.00  0.00     0.158 A 
ATOM     11  O   UNL d   1      56.836  -0.695  32.564  0.00  0.00    -0.300 OA
ATOM     12  C   UNL d   1      56.199  -0.398  33.016  0.00  0.00     0.123 A 
ATOM     13  C   UNL d   1      55.986   0.342  32.678  0.00  0.00     0.029 A 
ATOM     14  C   UNL d   1      56.480   0.467  32.058  0.00  0.00     0.032 A 
ENDBRANCH   8  10
ENDBRANCH   1   7
BRANCH   4  15
ATOM     15  O   UNL d   1      57.416   0.616  29.313  0.00  0.00    -0.327 OA
ATOM     16  C   UNL d   1      57.246   0.681  28.456  0.00  0.00     0.181 C 
ENDBRANCH   4  15
BRANCH   2  17
ATOM     17  N   UNL d   1      60.564   0.066  30.222  0.00  0.00    -0.114 N 
ATOM     18  O   UNL d   1      61.079  -0.461  29.771  0.00  0.00    -0.532 OA
ATOM     19  O   UNL d   1      60.836   0.456  30.915  0.00  0.00    -0.532 OA
ENDBRANCH   2  17
TORSDOF 4
ENDMDL
