MODEL 1
REMARK VINA RESULT:      65.1      0.000      0.000
REMARK  3 active torsions:
REMARK  status: ('A' for Active; 'I' for Inactive)
REMARK    1  A    between atoms: C_5  and  C_1 
REMARK    2  A    between atoms: N_6  and  C_5 
REMARK    3  A    between atoms: C_8  and  C_5 
ROOT
ATOM      1  C   UNL d   1     -52.105  24.655  34.012  0.00  0.00     0.083 C 
ENDROOT
BRANCH   1   2
ATOM      2  C   UNL d   1     -52.306  25.451  33.777  0.00  0.00     0.037 A 
ATOM      3  C   UNL d   1     -53.044  25.686  33.475  0.00  0.00     0.083 A 
ATOM      4  N   UNL d   1     -53.002  26.486  33.322  0.00  0.00    -0.245 NA
ATOM      5  C   UNL d   1     -53.709  25.186  33.353  0.00  0.00     0.021 C 
ATOM      6  C   UNL d   1     -52.252  26.763  33.520  0.00  0.00     0.081 A 
ATOM      7  C   UNL d   1     -51.811  26.107  33.808  0.00  0.00     0.021 A 
ATOM      8  C   UNL d   1     -51.908  27.506  33.482  0.00  0.00     0.019 A 
ATOM      9  C   UNL d   1     -51.037  26.210  34.051  0.00  0.00     0.002 A 
ATOM     10  C   UNL d   1     -50.683  26.974  34.012  0.00  0.00     0.000 A 
ATOM     11  C   UNL d   1     -51.106  27.602  33.735  0.00  0.00     0.002 A 
ENDBRANCH   1   2
BRANCH   1  12
ATOM     12  N   UNL d   1     -51.357  24.333  33.836  0.00  0.00    -0.302 N 
ATOM     13  C   UNL d   1     -50.693  24.824  33.814  0.00  0.00     0.080 A 
ATOM     14  C   UNL d   1     -49.957  24.501  33.639  0.00  0.00     0.019 A 
ATOM     15  C   UNL d   1     -49.880  23.694  33.486  0.00  0.00     0.003 A 
ATOM     16  C   UNL d   1     -50.539  23.202  33.507  0.00  0.00     0.019 A 
ATOM     17  C   UNL d   1     -49.131  23.371  33.309  0.00  0.00     0.000 C 
ATOM     18  C   UNL d   1     -51.276  23.525  33.682  0.00  0.00     0.080 A 
ENDBRANCH   1  12
BRANCH   1  19
ATOM     19  C   UNL d   1     -52.677  24.190  34.430  0.00  0.00     0.098 A 
ATOM     20  N   UNL d   1     -52.571  24.018  35.228  0.00  0.00    -0.243 NA
ATOM     21  C   UNL d   1     -53.119  23.569  35.639  0.00  0.00     0.099 A 
ATOM     22  C   UNL d   1     -53.784  23.287  35.244  0.00  0.00     0.021 A 
ATOM     23  C   UNL d   1     -53.894  23.457  34.444  0.00  0.00     0.003 A 
ATOM     24  C   UNL d   1     -53.339  23.915  34.017  0.00  0.00     0.021 A 
ENDBRANCH   1  19
TORSDOF 3
ENDMDL
