MODEL 1
REMARK VINA RESULT:      39.9      0.000      0.000
REMARK  4 active torsions:
REMARK  status: ('A' for Active; 'I' for Inactive)
REMARK    1  A    between atoms: C_6  and  C_1 
REMARK    2  A    between atoms: C_7  and  C_4 
REMARK       I    between atoms: N_9  and  C_6 
REMARK    3  A    between atoms: C_23  and  N_9 
REMARK    4  A    between atoms: C_11  and  C_23 
ROOT
ATOM      1  C   UNL d   1     -54.757-102.150 -40.232  0.00  0.00     0.168 A 
ATOM      2  N   UNL d   1     -54.711-102.877 -40.597  0.00  0.00    -0.121 NA
ATOM      3  C   UNL d   1     -54.823-101.572 -40.826  0.00  0.00     0.053 A 
ATOM      4  C   UNL d   1     -54.816-101.957 -41.547  0.00  0.00     0.127 A 
ATOM      5  O   UNL d   1     -54.747-102.764 -41.401  0.00  0.00    -0.211 OA
ENDROOT
BRANCH   1   6
ATOM      6  C   UNL d   1     -54.732-101.813 -38.650  0.00  0.00     0.299 C 
ATOM      7  N   UNL d   1     -54.729-102.464 -38.091  0.00  0.00    -0.203 NA
ATOM      8  O   UNL d   1     -54.722-101.047 -38.357  0.00  0.00    -0.263 OA
BRANCH   7   9
ATOM      9  C   UNL d   1     -54.716-102.304 -37.244  0.00  0.00     0.127 C 
BRANCH   9  10
ATOM     10  C   UNL d   1     -55.396-102.500 -36.753  0.00  0.00     0.119 A 
ATOM     11  O   UNL d   1     -56.214-102.521 -37.002  0.00  0.00    -0.304 OA
ATOM     12  C   UNL d   1     -56.688-102.741 -36.331  0.00  0.00     0.123 A 
ATOM     13  C   UNL d   1     -56.157-102.861 -35.649  0.00  0.00     0.029 A 
ATOM     14  C   UNL d   1     -55.350-102.708 -35.920  0.00  0.00     0.028 A 
ENDBRANCH   9  10
ENDBRANCH   7   9
ENDBRANCH   1   6
BRANCH   4  15
ATOM     15  C   UNL d   1     -54.866-101.638 -42.285  0.00  0.00     0.027 A 
ATOM     16  C   UNL d   1     -54.770-102.112 -42.947  0.00  0.00     0.028 A 
ATOM     17  C   UNL d   1     -54.821-101.784 -43.684  0.00  0.00     0.119 A 
ATOM     18  O   UNL d   1     -54.750-102.113 -44.427  0.00  0.00    -0.300 OA
ATOM     19  C   UNL d   1     -54.967-100.991 -43.788  0.00  0.00     0.119 A 
ATOM     20  C   UNL d   1     -54.852-101.527 -44.979  0.00  0.00     0.304 A 
ATOM     21  O   UNL d   1     -54.987-100.830 -44.585  0.00  0.00    -0.300 OA
ATOM     22  C   UNL d   1     -55.065-100.508 -43.127  0.00  0.00     0.026 A 
ATOM     23  C   UNL d   1     -55.015-100.829 -42.393  0.00  0.00     0.004 A 
ENDBRANCH   4  15
TORSDOF 4
ENDMDL
