MODEL 1
REMARK VINA RESULT:      -2.8      0.000      0.000
REMARK  2 active torsions:
REMARK  status: ('A' for Active; 'I' for Inactive)
REMARK    1  A    between atoms: C_6  and  N_2 
REMARK    2  A    between atoms: C_8  and  C_6 
ROOT
ATOM      1  C   UNL d   1      29.858  15.934 -23.657  0.00  0.00     0.151 A 
ATOM      2  N   UNL d   1      29.870  16.570 -24.178  0.00  0.00    -0.286 N 
ATOM      3  S   UNL d   1      30.611  15.857 -23.351  0.00  0.00    -0.057 SA
ATOM      4  C   UNL d   1      30.619  16.875 -24.189  0.00  0.00     0.071 A 
ATOM      5  C   UNL d   1      31.078  16.434 -23.677  0.00  0.00     0.048 A 
ATOM      6  S   UNL d   1      29.222  15.455 -23.467  0.00  0.00    -0.052 SA
ATOM      7  C   UNL d   1      30.955  17.505 -24.601  0.00  0.00     0.018 A 
ATOM      8  C   UNL d   1      31.877  16.617 -23.571  0.00  0.00     0.008 A 
ATOM      9  C   UNL d   1      31.755  17.695 -24.500  0.00  0.00     0.002 A 
ATOM     10  C   UNL d   1      32.214  17.253 -23.988  0.00  0.00     0.001 A 
ENDROOT
BRANCH   2  11
ATOM     11  C   UNL d   1      29.207  16.841 -24.615  0.00  0.00     0.152 C 
BRANCH  11  12
ATOM     12  C   UNL d   1      28.697  17.409 -24.302  0.00  0.00     0.230 C 
ATOM     13  O   UNL d   1      28.684  18.177 -24.616  0.00  0.00    -0.643 OA
ATOM     14  O   UNL d   1      28.202  17.215 -23.680  0.00  0.00    -0.643 OA
ENDBRANCH  11  12
ENDBRANCH   2  11
TORSDOF 2
ENDMDL
MODEL 2
REMARK VINA RESULT:      -2.7      1.201      1.707
REMARK  2 active torsions:
REMARK  status: ('A' for Active; 'I' for Inactive)
REMARK    1  A    between atoms: C_6  and  N_2 
REMARK    2  A    between atoms: C_8  and  C_6 
ROOT
ATOM      1  C   UNL d   1      29.865  17.052 -24.600  0.00  0.00     0.151 A 
ATOM      2  N   UNL d   1      30.144  16.437 -24.130  0.00  0.00    -0.286 N 
ATOM      3  S   UNL d   1      30.480  17.578 -24.704  0.00  0.00    -0.057 SA
ATOM      4  C   UNL d   1      30.919  16.588 -23.951  0.00  0.00     0.071 A 
ATOM      5  C   UNL d   1      31.127  17.294 -24.306  0.00  0.00     0.048 A 
ATOM      6  S   UNL d   1      29.114  17.139 -24.914  0.00  0.00    -0.052 SA
ATOM      7  C   UNL d   1      31.476  16.174 -23.506  0.00  0.00     0.018 A 
ATOM      8  C   UNL d   1      31.893  17.593 -24.221  0.00  0.00     0.008 A 
ATOM      9  C   UNL d   1      32.245  16.468 -23.416  0.00  0.00     0.002 A 
ATOM     10  C   UNL d   1      32.453  17.173 -23.771  0.00  0.00     0.001 A 
ENDROOT
BRANCH   2  11
ATOM     11  C   UNL d   1      29.689  15.776 -23.888  0.00  0.00     0.152 C 
BRANCH  11  12
ATOM     12  C   UNL d   1      29.224  15.808 -23.207  0.00  0.00     0.230 C 
ATOM     13  O   UNL d   1      29.489  15.453 -22.505  0.00  0.00    -0.643 OA
ATOM     14  O   UNL d   1      28.502  16.191 -23.222  0.00  0.00    -0.643 OA
ENDBRANCH  11  12
ENDBRANCH   2  11
TORSDOF 2
ENDMDL
MODEL 3
REMARK VINA RESULT:      -2.7      1.413      2.477
REMARK  2 active torsions:
REMARK  status: ('A' for Active; 'I' for Inactive)
REMARK    1  A    between atoms: C_6  and  N_2 
REMARK    2  A    between atoms: C_8  and  C_6 
ROOT
ATOM      1  C   UNL d   1      31.018  15.737 -23.607  0.00  0.00     0.151 A 
ATOM      2  N   UNL d   1      30.766  16.347 -24.097  0.00  0.00    -0.286 N 
ATOM      3  S   UNL d   1      30.361  15.453 -23.215  0.00  0.00    -0.057 SA
ATOM      4  C   UNL d   1      29.967  16.432 -24.005  0.00  0.00     0.071 A 
ATOM      5  C   UNL d   1      29.716  15.879 -23.459  0.00  0.00     0.048 A 
ATOM      6  S   UNL d   1      31.780  15.453 -23.514  0.00  0.00    -0.052 SA
ATOM      7  C   UNL d   1      29.421  16.946 -24.348  0.00  0.00     0.018 A 
ATOM      8  C   UNL d   1      28.917  15.833 -23.249  0.00  0.00     0.008 A 
ATOM      9  C   UNL d   1      28.619  16.906 -24.143  0.00  0.00     0.002 A 
ATOM     10  C   UNL d   1      28.368  16.352 -23.597  0.00  0.00     0.001 A 
ENDROOT
BRANCH   2  11
ATOM     11  C   UNL d   1      31.267  16.792 -24.600  0.00  0.00     0.152 C 
BRANCH  11  12
ATOM     12  C   UNL d   1      31.599  17.504 -24.346  0.00  0.00     0.230 C 
ATOM     13  O   UNL d   1      31.454  18.205 -24.765  0.00  0.00    -0.643 OA
ATOM     14  O   UNL d   1      32.072  17.518 -23.678  0.00  0.00    -0.643 OA
ENDBRANCH  11  12
ENDBRANCH   2  11
TORSDOF 2
ENDMDL
MODEL 4
REMARK VINA RESULT:      -2.6      1.878      2.945
REMARK  2 active torsions:
REMARK  status: ('A' for Active; 'I' for Inactive)
REMARK    1  A    between atoms: C_6  and  N_2 
REMARK    2  A    between atoms: C_8  and  C_6 
ROOT
ATOM      1  C   UNL d   1      30.411  17.219 -24.680  0.00  0.00     0.151 A 
ATOM      2  N   UNL d   1      30.533  16.517 -24.270  0.00  0.00    -0.286 N 
ATOM      3  S   UNL d   1      29.622  17.413 -24.602  0.00  0.00    -0.057 SA
ATOM      4  C   UNL d   1      29.828  16.288 -23.945  0.00  0.00     0.071 A 
ATOM      5  C   UNL d   1      29.264  16.842 -24.151  0.00  0.00     0.048 A 
ATOM      6  S   UNL d   1      30.963  17.658 -25.097  0.00  0.00    -0.052 SA
ATOM      7  C   UNL d   1      29.616  15.639 -23.483  0.00  0.00     0.018 A 
ATOM      8  C   UNL d   1      28.482  16.754 -23.896  0.00  0.00     0.008 A 
ATOM      9  C   UNL d   1      28.835  15.544 -23.225  0.00  0.00     0.002 A 
ATOM     10  C   UNL d   1      28.271  16.099 -23.430  0.00  0.00     0.001 A 
ENDROOT
BRANCH   2  11
ATOM     11  C   UNL d   1      31.270  16.122 -24.209  0.00  0.00     0.152 C 
BRANCH  11  12
ATOM     12  C   UNL d   1      31.763  16.243 -23.558  0.00  0.00     0.230 C 
ATOM     13  O   UNL d   1      32.026  17.007 -23.370  0.00  0.00    -0.643 OA
ATOM     14  O   UNL d   1      31.992  15.607 -23.096  0.00  0.00    -0.643 OA
ENDBRANCH  11  12
ENDBRANCH   2  11
TORSDOF 2
ENDMDL
MODEL 5
REMARK VINA RESULT:      -1.9      7.025      7.604
REMARK  2 active torsions:
REMARK  status: ('A' for Active; 'I' for Inactive)
REMARK    1  A    between atoms: C_6  and  N_2 
REMARK    2  A    between atoms: C_8  and  C_6 
ROOT
ATOM      1  C   UNL d   1      33.002  22.011 -21.063  0.00  0.00     0.151 A 
ATOM      2  N   UNL d   1      33.023  22.828 -20.971  0.00  0.00    -0.286 N 
ATOM      3  S   UNL d   1      33.062  21.681 -20.319  0.00  0.00    -0.057 SA
ATOM      4  C   UNL d   1      33.095  22.992 -20.182  0.00  0.00     0.071 A 
ATOM      5  C   UNL d   1      33.119  22.283 -19.779  0.00  0.00     0.048 A 
ATOM      6  S   UNL d   1      32.934  21.587 -21.761  0.00  0.00    -0.052 SA
ATOM      7  C   UNL d   1      33.143  23.702 -19.767  0.00  0.00     0.018 A 
ATOM      8  C   UNL d   1      33.191  22.275 -18.955  0.00  0.00     0.008 A 
ATOM      9  C   UNL d   1      33.215  23.702 -18.941  0.00  0.00     0.002 A 
ATOM     10  C   UNL d   1      33.239  22.993 -18.537  0.00  0.00     0.001 A 
ENDROOT
BRANCH   2  11
ATOM     11  C   UNL d   1      32.977  23.380 -21.601  0.00  0.00     0.152 C 
BRANCH  11  12
ATOM     12  C   UNL d   1      32.266  23.509 -21.999  0.00  0.00     0.230 C 
ATOM     13  O   UNL d   1      31.556  23.576 -21.574  0.00  0.00    -0.643 OA
ATOM     14  O   UNL d   1      32.260  23.572 -22.815  0.00  0.00    -0.643 OA
ENDBRANCH  11  12
ENDBRANCH   2  11
TORSDOF 2
ENDMDL
MODEL 6
REMARK VINA RESULT:      -1.7      5.679      6.299
REMARK  2 active torsions:
REMARK  status: ('A' for Active; 'I' for Inactive)
REMARK    1  A    between atoms: C_6  and  N_2 
REMARK    2  A    between atoms: C_8  and  C_6 
ROOT
ATOM      1  C   UNL d   1      33.233  20.867 -21.956  0.00  0.00     0.151 A 
ATOM      2  N   UNL d   1      33.227  21.677 -21.814  0.00  0.00    -0.286 N 
ATOM      3  S   UNL d   1      33.239  20.762 -22.765  0.00  0.00    -0.057 SA
ATOM      4  C   UNL d   1      33.229  22.059 -22.527  0.00  0.00     0.071 A 
ATOM      5  C   UNL d   1      33.237  21.493 -23.116  0.00  0.00     0.048 A 
ATOM      6  S   UNL d   1      33.233  20.263 -21.403  0.00  0.00    -0.052 SA
ATOM      7  C   UNL d   1      33.226  22.859 -22.728  0.00  0.00     0.018 A 
ATOM      8  C   UNL d   1      33.241  21.719 -23.912  0.00  0.00     0.008 A 
ATOM      9  C   UNL d   1      33.230  23.093 -23.523  0.00  0.00     0.002 A 
ATOM     10  C   UNL d   1      33.237  22.527 -24.111  0.00  0.00     0.001 A 
ENDROOT
BRANCH   2  11
ATOM     11  C   UNL d   1      33.220  22.028 -21.053  0.00  0.00     0.152 C 
BRANCH  11  12
ATOM     12  C   UNL d   1      32.508  22.183 -20.664  0.00  0.00     0.230 C 
ATOM     13  O   UNL d   1      31.942  21.582 -20.577  0.00  0.00    -0.643 OA
ATOM     14  O   UNL d   1      32.360  22.929 -20.363  0.00  0.00    -0.643 OA
ENDBRANCH  11  12
ENDBRANCH   2  11
TORSDOF 2
ENDMDL
