MODEL 1
REMARK VINA RESULT:      31.2      0.000      0.000
REMARK  2 active torsions:
REMARK  status: ('A' for Active; 'I' for Inactive)
REMARK    1  A    between atoms: C_18  and  N_5 
REMARK    2  A    between atoms: C_21  and  C_18 
ROOT
ATOM      1  C   UNL d   1     -51.452  25.650  33.309  0.00  0.00     0.155 A 
ATOM      2  C   UNL d   1     -52.163  26.069  33.308  0.00  0.00     0.092 A 
ATOM      3  N   UNL d   1     -51.467  24.822  33.309  0.00  0.00    -0.210 NA
ATOM      4  N   UNL d   1     -52.888  24.847  33.307  0.00  0.00    -0.258 N 
ATOM      5  N   UNL d   1     -50.735  26.054  33.310  0.00  0.00    -0.275 N 
ATOM      6  C   UNL d   1     -52.179  24.424  33.308  0.00  0.00     0.152 A 
ATOM      7  C   UNL d   1     -52.884  25.667  33.307  0.00  0.00     0.269 A 
ATOM      8  C   UNL d   1     -51.437  27.300  33.309  0.00  0.00     0.105 A 
ATOM      9  C   UNL d   1     -50.715  26.874  33.310  0.00  0.00     0.180 A 
ATOM     10  C   UNL d   1     -52.154  26.896  33.308  0.00  0.00     0.021 A 
ATOM     11  C   UNL d   1     -52.191  23.609  33.309  0.00  0.00     0.035 A 
ATOM     12  C   UNL d   1     -51.423  28.119  33.309  0.00  0.00     0.104 C 
ATOM     13  N   UNL d   1     -51.413  28.940  33.308  0.00  0.00    -0.191 NA
ATOM     14  C   UNL d   1     -53.612  24.447  33.306  0.00  0.00     0.084 A 
ATOM     15  N   UNL d   1     -50.100  27.426  33.311  0.00  0.00    -0.128 N 
ATOM     16  O   UNL d   1     -53.592  26.089  33.306  0.00  0.00    -0.266 OA
ATOM     17  C   UNL d   1     -53.611  23.619  33.306  0.00  0.00     0.019 A 
ATOM     18  C   UNL d   1     -52.901  23.200  33.308  0.00  0.00     0.005 A 
ATOM     19  C   UNL d   1     -51.480  23.190  33.310  0.00  0.00     0.003 C 
ENDROOT
BRANCH   5  20
ATOM     20  C   UNL d   1     -50.028  25.628  33.311  0.00  0.00     0.067 C 
ATOM     21  C   UNL d   1     -49.322  26.059  33.314  0.00  0.00     0.019 C 
BRANCH  20  22
ATOM     22  C   UNL d   1     -49.959  24.797  33.310  0.00  0.00     0.018 C 
ATOM     23  C   UNL d   1     -49.249  24.366  33.328  0.00  0.00     0.002 C 
ENDBRANCH  20  22
ENDBRANCH   5  20
TORSDOF 2
ENDMDL
