MODEL 1
REMARK VINA RESULT:      -9.2      0.000      0.000
REMARK  3 active torsions:
REMARK  status: ('A' for Active; 'I' for Inactive)
REMARK    1  A    between atoms: C_21  and  N_1 
REMARK       I    between atoms: N_6  and  C_8 
REMARK    2  A    between atoms: C_8  and  C_9 
REMARK    3  A    between atoms: C_24  and  C_21 
ROOT
ATOM      1  N   UNL d   1      48.362  35.252  52.382  0.00  0.00    -0.249 N 
ATOM      2  C   UNL d   1      48.619  35.470  53.126  0.00  0.00     0.208 A 
ATOM      3  C   UNL d   1      48.873  34.859  51.866  0.00  0.00     0.268 A 
ATOM      4  C   UNL d   1      49.642  34.690  52.112  0.00  0.00     0.074 A 
ATOM      5  N   UNL d   1      49.394  35.299  53.371  0.00  0.00    -0.218 NA
ATOM      6  C   UNL d   1      49.892  34.910  52.854  0.00  0.00     0.088 A 
ATOM      7  C   UNL d   1      51.181  34.345  52.585  0.00  0.00     0.058 A 
ATOM      8  C   UNL d   1      50.662  34.740  53.097  0.00  0.00     0.024 A 
ATOM      9  C   UNL d   1      50.149  34.299  51.598  0.00  0.00     0.006 A 
ATOM     10  S   UNL d   1      48.099  35.869  53.648  0.00  0.00    -0.038 SA
ATOM     11  O   UNL d   1      48.618  34.637  51.115  0.00  0.00    -0.267 OA
ATOM     12  C   UNL d   1      50.923  34.126  51.838  0.00  0.00     0.005 A 
ENDROOT
BRANCH   7  13
ATOM     13  C   UNL d   1      51.954  34.175  52.830  0.00  0.00     0.265 C 
ATOM     14  N   UNL d   1      52.179  33.392  52.951  0.00  0.00    -0.272 N 
ATOM     15  C   UNL d   1      52.944  33.223  53.192  0.00  0.00     0.083 A 
ATOM     16  C   UNL d   1      51.645  32.776  52.833  0.00  0.00     0.083 A 
ATOM     17  C   UNL d   1      53.168  32.453  53.313  0.00  0.00     0.018 A 
ATOM     18  C   UNL d   1      53.945  32.294  53.557  0.00  0.00     0.002 A 
ATOM     19  C   UNL d   1      52.637  31.837  53.195  0.00  0.00     0.003 A 
ATOM     20  C   UNL d   1      54.188  31.507  53.684  0.00  0.00     0.000 A 
ATOM     21  C   UNL d   1      53.657  30.887  53.567  0.00  0.00     0.000 A 
ATOM     22  C   UNL d   1      52.884  31.058  53.323  0.00  0.00     0.000 A 
ATOM     23  C   UNL d   1      51.875  32.000  52.955  0.00  0.00     0.019 A 
ATOM     24  O   UNL d   1      52.489  34.791  52.948  0.00  0.00    -0.267 OA
ENDBRANCH   7  13
BRANCH   1  25
ATOM     25  C   UNL d   1      47.580  35.425  52.135  0.00  0.00     0.085 C 
BRANCH  25  26
ATOM     26  C   UNL d   1      47.401  36.176  51.852  0.00  0.00     0.019 C 
ATOM     27  C   UNL d   1      46.623  36.343  51.619  0.00  0.00     0.002 C 
ENDBRANCH  25  26
ENDBRANCH   1  25
TORSDOF 3
ENDMDL
MODEL 2
REMARK VINA RESULT:      -8.9      1.826      5.382
REMARK  3 active torsions:
REMARK  status: ('A' for Active; 'I' for Inactive)
REMARK    1  A    between atoms: C_21  and  N_1 
REMARK       I    between atoms: N_6  and  C_8 
REMARK    2  A    between atoms: C_8  and  C_9 
REMARK    3  A    between atoms: C_24  and  C_21 
ROOT
ATOM      1  N   UNL d   1      53.588  33.366  54.461  0.00  0.00    -0.249 N 
ATOM      2  C   UNL d   1      53.335  32.686  54.085  0.00  0.00     0.208 A 
ATOM      3  C   UNL d   1      53.255  34.097  54.266  0.00  0.00     0.268 A 
ATOM      4  C   UNL d   1      52.666  34.128  53.689  0.00  0.00     0.074 A 
ATOM      5  N   UNL d   1      52.743  32.722  53.505  0.00  0.00    -0.218 NA
ATOM      6  C   UNL d   1      52.418  33.448  53.319  0.00  0.00     0.088 A 
ATOM      7  C   UNL d   1      51.489  34.212  52.541  0.00  0.00     0.058 A 
ATOM      8  C   UNL d   1      51.829  33.484  52.743  0.00  0.00     0.024 A 
ATOM      9  C   UNL d   1      52.335  34.855  53.497  0.00  0.00     0.006 A 
ATOM     10  S   UNL d   1      53.675  31.947  54.284  0.00  0.00    -0.038 SA
ATOM     11  O   UNL d   1      53.507  34.784  54.643  0.00  0.00    -0.267 OA
ATOM     12  C   UNL d   1      51.743  34.895  52.918  0.00  0.00     0.005 A 
ENDROOT
BRANCH   7  13
ATOM     13  C   UNL d   1      50.897  34.248  51.962  0.00  0.00     0.265 C 
ATOM     14  N   UNL d   1      50.160  34.563  52.152  0.00  0.00    -0.272 N 
ATOM     15  C   UNL d   1      49.574  34.598  51.580  0.00  0.00     0.083 A 
ATOM     16  C   UNL d   1      50.005  34.843  52.911  0.00  0.00     0.083 A 
ATOM     17  C   UNL d   1      48.849  34.908  51.764  0.00  0.00     0.018 A 
ATOM     18  C   UNL d   1      48.264  34.939  51.177  0.00  0.00     0.002 A 
ATOM     19  C   UNL d   1      48.690  35.188  52.520  0.00  0.00     0.003 A 
ATOM     20  C   UNL d   1      47.513  35.254  51.353  0.00  0.00     0.000 A 
ATOM     21  C   UNL d   1      47.351  35.536  52.111  0.00  0.00     0.000 A 
ATOM     22  C   UNL d   1      47.944  35.500  52.690  0.00  0.00     0.000 A 
ATOM     23  C   UNL d   1      49.270  35.155  53.093  0.00  0.00     0.019 A 
ATOM     24  O   UNL d   1      51.053  33.968  51.202  0.00  0.00    -0.267 OA
ENDBRANCH   7  13
BRANCH   1  25
ATOM     25  C   UNL d   1      54.187  33.330  55.046  0.00  0.00     0.085 C 
BRANCH  25  26
ATOM     26  C   UNL d   1      54.954  33.562  54.858  0.00  0.00     0.019 C 
ATOM     27  C   UNL d   1      55.489  33.718  55.471  0.00  0.00     0.002 C 
ENDBRANCH  25  26
ENDBRANCH   1  25
TORSDOF 3
ENDMDL
MODEL 3
REMARK VINA RESULT:      -7.4      1.010      1.284
REMARK  3 active torsions:
REMARK  status: ('A' for Active; 'I' for Inactive)
REMARK    1  A    between atoms: C_21  and  N_1 
REMARK       I    between atoms: N_6  and  C_8 
REMARK    2  A    between atoms: C_8  and  C_9 
REMARK    3  A    between atoms: C_24  and  C_21 
ROOT
ATOM      1  N   UNL d   1      48.692  35.162  52.121  0.00  0.00    -0.249 N 
ATOM      2  C   UNL d   1      48.985  34.782  51.460  0.00  0.00     0.208 A 
ATOM      3  C   UNL d   1      49.141  35.193  52.815  0.00  0.00     0.268 A 
ATOM      4  C   UNL d   1      49.884  34.835  52.829  0.00  0.00     0.074 A 
ATOM      5  N   UNL d   1      49.733  34.424  51.478  0.00  0.00    -0.218 NA
ATOM      6  C   UNL d   1      50.169  34.459  52.168  0.00  0.00     0.088 A 
ATOM      7  C   UNL d   1      51.370  34.128  52.876  0.00  0.00     0.058 A 
ATOM      8  C   UNL d   1      50.913  34.103  52.185  0.00  0.00     0.024 A 
ATOM      9  C   UNL d   1      50.328  34.867  53.519  0.00  0.00     0.006 A 
ATOM     10  S   UNL d   1      48.528  34.753  50.759  0.00  0.00    -0.038 SA
ATOM     11  O   UNL d   1      48.849  35.575  53.484  0.00  0.00    -0.267 OA
ATOM     12  C   UNL d   1      51.076  34.510  53.540  0.00  0.00     0.005 A 
ENDROOT
BRANCH   7  13
ATOM     13  C   UNL d   1      52.117  33.770  52.894  0.00  0.00     0.265 C 
ATOM     14  N   UNL d   1      52.175  32.953  52.977  0.00  0.00    -0.272 N 
ATOM     15  C   UNL d   1      52.915  32.599  52.995  0.00  0.00     0.083 A 
ATOM     16  C   UNL d   1      51.499  32.487  53.042  0.00  0.00     0.083 A 
ATOM     17  C   UNL d   1      52.975  31.795  53.076  0.00  0.00     0.018 A 
ATOM     18  C   UNL d   1      53.727  31.448  53.092  0.00  0.00     0.002 A 
ATOM     19  C   UNL d   1      52.302  31.327  53.142  0.00  0.00     0.003 A 
ATOM     20  C   UNL d   1      53.803  30.622  53.176  0.00  0.00     0.000 A 
ATOM     21  C   UNL d   1      53.130  30.150  53.242  0.00  0.00     0.000 A 
ATOM     22  C   UNL d   1      52.382  30.508  53.224  0.00  0.00     0.000 A 
ATOM     23  C   UNL d   1      51.564  31.675  53.125  0.00  0.00     0.019 A 
ATOM     24  O   UNL d   1      52.794  34.237  52.829  0.00  0.00    -0.267 OA
ENDBRANCH   7  13
BRANCH   1  25
ATOM     25  C   UNL d   1      47.936  35.524  52.103  0.00  0.00     0.085 C 
BRANCH  25  26
ATOM     26  C   UNL d   1      47.292  35.135  52.436  0.00  0.00     0.019 C 
ATOM     27  C   UNL d   1      46.561  35.525  52.471  0.00  0.00     0.002 C 
ENDBRANCH  25  26
ENDBRANCH   1  25
TORSDOF 3
ENDMDL
