MODEL 1
REMARK VINA RESULT:      43.0      0.000      0.000
REMARK  5 active torsions:
REMARK  status: ('A' for Active; 'I' for Inactive)
REMARK    1  A    between atoms: C_2  and  S_1 
REMARK    2  A    between atoms: N_11  and  S_1 
REMARK    3  A    between atoms: N_3  and  C_17 
REMARK    4  A    between atoms: C_16  and  N_11 
REMARK    5  A    between atoms: C_17  and  C_16 
ROOT
ATOM      1  S   UNL d   1     -55.251 -99.629 -44.155  0.00  0.00     0.285 S 
ATOM      2  O   UNL d   1     -54.712 -99.331 -43.607  0.00  0.00    -0.198 OA
ATOM      3  O   UNL d   1     -55.400 -98.863 -44.432  0.00  0.00    -0.198 OA
ENDROOT
BRANCH   1   4
ATOM      4  C   UNL d   1     -55.116-100.406 -43.891  0.00  0.00     0.105 A 
ATOM      5  C   UNL d   1     -54.906-100.540 -43.105  0.00  0.00     0.012 A 
ATOM      6  C   UNL d   1     -54.771-101.304 -42.840  0.00  0.00     0.001 A 
ATOM      7  C   UNL d   1     -54.829 -99.905 -42.577  0.00  0.00     0.001 C 
ATOM      8  C   UNL d   1     -54.846-101.946 -43.362  0.00  0.00     0.000 A 
ATOM      9  C   UNL d   1     -55.058-101.801 -44.153  0.00  0.00     0.001 A 
ATOM     10  C   UNL d   1     -54.713-102.719 -43.110  0.00  0.00     0.000 C 
ATOM     11  C   UNL d   1     -55.191-101.028 -44.410  0.00  0.00     0.012 A 
ATOM     12  C   UNL d   1     -55.401-100.890 -45.194  0.00  0.00     0.001 C 
ENDBRANCH   1   4
BRANCH   1  13
ATOM     13  N   UNL d   1     -55.809 -99.712 -44.756  0.00  0.00    -0.155 NA
BRANCH  13  14
ATOM     14  C   UNL d   1     -56.370 -99.121 -44.888  0.00  0.00     0.131 C 
BRANCH  14  15
ATOM     15  C   UNL d   1     -56.771 -98.787 -44.250  0.00  0.00     0.102 C 
BRANCH  15  16
ATOM     16  N   UNL d   1     -57.589 -98.873 -44.187  0.00  0.00    -0.303 N 
ATOM     17  C   UNL d   1     -58.012 -98.992 -43.486  0.00  0.00     0.080 A 
ATOM     18  C   UNL d   1     -58.811 -99.048 -43.675  0.00  0.00     0.021 A 
ATOM     19  C   UNL d   1     -58.892 -98.965 -44.491  0.00  0.00     0.018 A 
ATOM     20  C   UNL d   1     -58.137 -98.856 -44.811  0.00  0.00     0.064 A 
ATOM     21  C   UNL d   1     -59.544 -98.971 -44.994  0.00  0.00     0.002 A 
ATOM     22  C   UNL d   1     -58.033 -98.755 -45.621  0.00  0.00     0.018 A 
ATOM     23  C   UNL d   1     -58.685 -98.762 -46.122  0.00  0.00     0.002 A 
ATOM     24  C   UNL d   1     -59.453 -98.871 -45.814  0.00  0.00     0.000 A 
ENDBRANCH  15  16
ENDBRANCH  14  15
ENDBRANCH  13  14
ENDBRANCH   1  13
TORSDOF 5
ENDMDL
