MODEL 1
REMARK VINA RESULT:     103.7      0.000      0.000
REMARK  5 active torsions:
REMARK  status: ('A' for Active; 'I' for Inactive)
REMARK    1  A    between atoms: S_14  and  C_7 
REMARK       I    between atoms: N_10  and  C_13 
REMARK    2  A    between atoms: C_26  and  C_11 
REMARK    3  A    between atoms: C_22  and  N_12 
REMARK    4  A    between atoms: C_13  and  C_17 
REMARK    5  A    between atoms: C_17  and  S_14 
ROOT
ATOM      1  N   UNL d   1      57.766  49.706  50.681  0.00  0.00    -0.224 N 
ATOM      2  N   UNL d   1      57.966  49.704  52.105  0.00  0.00    -0.241 N 
ATOM      3  C   UNL d   1      57.456  49.705  51.457  0.00  0.00     0.343 A 
ATOM      4  C   UNL d   1      58.785  49.704  51.980  0.00  0.00     0.160 A 
ATOM      5  C   UNL d   1      58.583  49.706  50.562  0.00  0.00     0.273 A 
ATOM      6  C   UNL d   1      59.092  49.705  51.212  0.00  0.00     0.115 A 
ATOM      7  C   UNL d   1      59.909  49.706  51.092  0.00  0.00     0.120 A 
ATOM      8  N   UNL d   1      59.302  49.704  52.631  0.00  0.00    -0.209 NA
ATOM      9  N   UNL d   1      60.420  49.705  51.737  0.00  0.00    -0.220 NA
ATOM     10  C   UNL d   1      60.119  49.704  52.513  0.00  0.00     0.165 A 
ATOM     11  O   UNL d   1      56.636  49.704  51.574  0.00  0.00    -0.245 OA
ATOM     12  O   UNL d   1      58.886  49.707  49.794  0.00  0.00    -0.266 OA
ATOM     13  C   UNL d   1      57.254  49.707  50.040  0.00  0.00     0.107 C 
ATOM     14  C   UNL d   1      57.659  49.703  52.873  0.00  0.00     0.105 C 
ENDROOT
BRANCH   7  15
ATOM     15  S   UNL d   1      60.212  49.707  50.324  0.00  0.00    -0.062 SA
BRANCH  15  16
ATOM     16  C   UNL d   1      60.405  48.993  49.953  0.00  0.00     0.098 C 
BRANCH  16  17
ATOM     17  C   UNL d   1      61.145  48.650  50.073  0.00  0.00     0.272 C 
ATOM     18  N   UNL d   1      61.248  47.837  50.020  0.00  0.00    -0.269 N 
ATOM     19  C   UNL d   1      60.595  47.355  49.844  0.00  0.00     0.102 A 
ATOM     20  C   UNL d   1      61.984  47.501  50.139  0.00  0.00     0.102 A 
ATOM     21  C   UNL d   1      60.704  46.542  49.792  0.00  0.00     0.100 A 
ATOM     22  N   UNL d   1      61.442  46.202  49.912  0.00  0.00    -0.301 N 
ATOM     23  C   UNL d   1      62.087  46.689  50.087  0.00  0.00     0.100 A 
ATOM     24  O   UNL d   1      61.793  49.133  50.248  0.00  0.00    -0.266 OA
BRANCH  22  25
ATOM     25  C   UNL d   1      61.545  45.390  49.859  0.00  0.00     0.064 A 
ATOM     26  C   UNL d   1      61.186  44.884  50.397  0.00  0.00     0.018 A 
ATOM     27  C   UNL d   1      61.288  44.064  50.347  0.00  0.00     0.002 A 
ATOM     28  C   UNL d   1      61.759  43.746  49.747  0.00  0.00     0.000 A 
ATOM     29  C   UNL d   1      62.125  44.261  49.198  0.00  0.00     0.002 A 
ATOM     30  C   UNL d   1      62.015  45.066  49.262  0.00  0.00     0.018 A 
ENDBRANCH  22  25
ENDBRANCH  16  17
ENDBRANCH  15  16
ENDBRANCH   7  15
BRANCH  10  31
ATOM     31  C   UNL d   1      60.634  49.703  53.159  0.00  0.00     0.039 C 
ATOM     32  C   UNL d   1      60.336  49.698  53.929  0.00  0.00     0.003 C 
ENDBRANCH  10  31
TORSDOF 5
ENDMDL
MODEL 2
REMARK VINA RESULT:     105.9      1.105      2.080
REMARK  5 active torsions:
REMARK  status: ('A' for Active; 'I' for Inactive)
REMARK    1  A    between atoms: S_14  and  C_7 
REMARK       I    between atoms: N_10  and  C_13 
REMARK    2  A    between atoms: C_26  and  C_11 
REMARK    3  A    between atoms: C_22  and  N_12 
REMARK    4  A    between atoms: C_13  and  C_17 
REMARK    5  A    between atoms: C_17  and  S_14 
ROOT
ATOM      1  N   UNL d   1      60.424  49.697  53.169  0.00  0.00    -0.224 N 
ATOM      2  N   UNL d   1      58.986  49.698  53.138  0.00  0.00    -0.241 N 
ATOM      3  C   UNL d   1      59.690  49.698  53.568  0.00  0.00     0.343 A 
ATOM      4  C   UNL d   1      59.015  49.697  52.309  0.00  0.00     0.160 A 
ATOM      5  C   UNL d   1      60.446  49.696  52.344  0.00  0.00     0.273 A 
ATOM      6  C   UNL d   1      59.741  49.696  51.914  0.00  0.00     0.115 A 
ATOM      7  C   UNL d   1      59.764  49.695  51.089  0.00  0.00     0.120 A 
ATOM      8  N   UNL d   1      58.307  49.697  51.872  0.00  0.00    -0.209 NA
ATOM      9  N   UNL d   1      59.064  49.695  50.657  0.00  0.00    -0.220 NA
ATOM     10  C   UNL d   1      58.329  49.696  51.048  0.00  0.00     0.165 A 
ATOM     11  O   UNL d   1      59.670  49.699  54.396  0.00  0.00    -0.245 OA
ATOM     12  O   UNL d   1      61.174  49.694  51.953  0.00  0.00    -0.266 OA
ATOM     13  C   UNL d   1      61.120  49.697  53.602  0.00  0.00     0.107 C 
ATOM     14  C   UNL d   1      58.260  49.700  53.533  0.00  0.00     0.105 C 
ENDROOT
BRANCH   7  15
ATOM     15  S   UNL d   1      60.492  49.693  50.698  0.00  0.00    -0.062 SA
BRANCH  15  16
ATOM     16  C   UNL d   1      60.584  49.266  49.996  0.00  0.00     0.098 C 
BRANCH  16  17
ATOM     17  C   UNL d   1      61.322  48.962  49.789  0.00  0.00     0.272 C 
ATOM     18  N   UNL d   1      61.447  48.152  49.738  0.00  0.00    -0.269 N 
ATOM     19  C   UNL d   1      60.818  47.633  49.898  0.00  0.00     0.102 A 
ATOM     20  C   UNL d   1      62.180  47.855  49.532  0.00  0.00     0.102 A 
ATOM     21  C   UNL d   1      60.948  46.823  49.845  0.00  0.00     0.100 A 
ATOM     22  N   UNL d   1      61.683  46.522  49.639  0.00  0.00    -0.301 N 
ATOM     23  C   UNL d   1      62.304  47.045  49.481  0.00  0.00     0.100 A 
ATOM     24  O   UNL d   1      61.945  49.482  49.630  0.00  0.00    -0.266 OA
BRANCH  22  25
ATOM     25  C   UNL d   1      61.808  45.713  49.588  0.00  0.00     0.064 A 
ATOM     26  C   UNL d   1      61.620  45.217  50.215  0.00  0.00     0.018 A 
ATOM     27  C   UNL d   1      61.745  44.400  50.167  0.00  0.00     0.002 A 
ATOM     28  C   UNL d   1      62.063  44.075  49.478  0.00  0.00     0.000 A 
ATOM     29  C   UNL d   1      62.255  44.579  48.838  0.00  0.00     0.002 A 
ATOM     30  C   UNL d   1      62.127  45.381  48.902  0.00  0.00     0.018 A 
ENDBRANCH  22  25
ENDBRANCH  16  17
ENDBRANCH  15  16
ENDBRANCH   7  15
BRANCH  10  31
ATOM     31  C   UNL d   1      57.626  49.696  50.611  0.00  0.00     0.039 C 
ATOM     32  C   UNL d   1      56.897  49.666  50.997  0.00  0.00     0.003 C 
ENDBRANCH  10  31
TORSDOF 5
ENDMDL
