MODEL 1
REMARK VINA RESULT:      -9.4      0.000      0.000
REMARK  4 active torsions:
REMARK  status: ('A' for Active; 'I' for Inactive)
REMARK    1  A    between atoms: S_18  and  C_6 
REMARK    2  A    between atoms: C_8  and  N_12 
REMARK       I    between atoms: N_12  and  C_16 
REMARK    3  A    between atoms: C_16  and  C_21 
REMARK    4  A    between atoms: C_21  and  S_18 
ROOT
ATOM      1  N   UNL d   1      53.278  32.719  53.481  0.00  0.00    -0.242 N 
ATOM      2  C   UNL d   1      53.175  33.488  53.750  0.00  0.00     0.153 A 
ATOM      3  C   UNL d   1      52.758  32.408  52.919  0.00  0.00     0.357 A 
ATOM      4  N   UNL d   1      52.555  33.949  53.462  0.00  0.00    -0.203 NA
ATOM      5  N   UNL d   1      52.138  32.869  52.631  0.00  0.00    -0.167 NA
ATOM      6  C   UNL d   1      52.037  33.642  52.904  0.00  0.00     0.200 A 
ATOM      7  C   UNL d   1      53.897  32.258  53.769  0.00  0.00     0.086 A 
ATOM      8  C   UNL d   1      53.695  33.799  54.312  0.00  0.00     0.038 A 
ATOM      9  C   UNL d   1      54.415  32.565  54.327  0.00  0.00     0.019 A 
ATOM     10  C   UNL d   1      54.314  33.338  54.600  0.00  0.00     0.004 A 
ATOM     11  O   UNL d   1      52.855  31.625  52.639  0.00  0.00    -0.244 OA
ATOM     12  C   UNL d   1      54.835  33.652  55.163  0.00  0.00     0.000 C 
ENDROOT
BRANCH   6  13
ATOM     13  S   UNL d   1      51.417  34.103  52.616  0.00  0.00    -0.043 SA
BRANCH  13  14
ATOM     14  C   UNL d   1      50.694  34.117  53.014  0.00  0.00     0.101 C 
BRANCH  14  15
ATOM     15  C   UNL d   1      50.054  34.503  52.678  0.00  0.00     0.287 C 
ATOM     16  N   UNL d   1      49.505  34.883  53.163  0.00  0.00    -0.186 NA
ATOM     17  O   UNL d   1      49.954  34.514  51.862  0.00  0.00    -0.265 OA
BRANCH  16  18
ATOM     18  C   UNL d   1      48.859  35.273  52.829  0.00  0.00     0.194 A 
ATOM     19  N   UNL d   1      48.501  35.224  52.086  0.00  0.00    -0.107 NA
ATOM     20  O   UNL d   1      47.873  35.749  52.068  0.00  0.00    -0.210 OA
ATOM     21  C   UNL d   1      47.833  36.126  52.789  0.00  0.00     0.128 A 
ATOM     22  C   UNL d   1      48.445  35.832  53.265  0.00  0.00     0.068 A 
ATOM     23  C   UNL d   1      47.268  36.705  52.996  0.00  0.00     0.029 C 
ENDBRANCH  16  18
ENDBRANCH  14  15
ENDBRANCH  13  14
ENDBRANCH   6  13
TORSDOF 4
ENDMDL
MODEL 2
REMARK VINA RESULT:      -7.9      1.130      1.661
REMARK  4 active torsions:
REMARK  status: ('A' for Active; 'I' for Inactive)
REMARK    1  A    between atoms: S_18  and  C_6 
REMARK    2  A    between atoms: C_8  and  N_12 
REMARK       I    between atoms: N_12  and  C_16 
REMARK    3  A    between atoms: C_16  and  C_21 
REMARK    4  A    between atoms: C_21  and  S_18 
ROOT
ATOM      1  N   UNL d   1      52.704  33.654  53.519  0.00  0.00    -0.242 N 
ATOM      2  C   UNL d   1      52.189  33.158  53.114  0.00  0.00     0.153 A 
ATOM      3  C   UNL d   1      52.511  34.451  53.619  0.00  0.00     0.357 A 
ATOM      4  N   UNL d   1      51.482  33.453  52.809  0.00  0.00    -0.203 NA
ATOM      5  N   UNL d   1      51.804  34.746  53.313  0.00  0.00    -0.167 NA
ATOM      6  C   UNL d   1      51.289  34.245  52.907  0.00  0.00     0.200 A 
ATOM      7  C   UNL d   1      53.410  33.359  53.824  0.00  0.00     0.086 A 
ATOM      8  C   UNL d   1      52.382  32.361  53.014  0.00  0.00     0.038 A 
ATOM      9  C   UNL d   1      53.604  32.567  53.725  0.00  0.00     0.019 A 
ATOM     10  C   UNL d   1      53.088  32.066  53.319  0.00  0.00     0.004 A 
ATOM     11  O   UNL d   1      53.029  34.964  54.030  0.00  0.00    -0.244 OA
ATOM     12  C   UNL d   1      53.280  31.266  53.217  0.00  0.00     0.000 C 
ENDROOT
BRANCH   6  13
ATOM     13  S   UNL d   1      50.582  34.540  52.602  0.00  0.00    -0.043 SA
BRANCH  13  14
ATOM     14  C   UNL d   1      50.038  34.905  53.103  0.00  0.00     0.101 C 
BRANCH  14  15
ATOM     15  C   UNL d   1      49.330  35.185  52.797  0.00  0.00     0.287 C 
ATOM     16  N   UNL d   1      48.833  35.644  53.270  0.00  0.00    -0.186 NA
ATOM     17  O   UNL d   1      49.112  35.012  52.024  0.00  0.00    -0.265 OA
BRANCH  16  18
ATOM     18  C   UNL d   1      48.120  35.927  52.967  0.00  0.00     0.194 A 
ATOM     19  N   UNL d   1      47.848  36.039  52.195  0.00  0.00    -0.107 NA
ATOM     20  O   UNL d   1      47.087  36.340  52.231  0.00  0.00    -0.210 OA
ATOM     21  C   UNL d   1      46.879  36.417  53.016  0.00  0.00     0.128 A 
ATOM     22  C   UNL d   1      47.520  36.161  53.476  0.00  0.00     0.068 A 
ATOM     23  C   UNL d   1      46.146  36.706  53.290  0.00  0.00     0.029 C 
ENDBRANCH  16  18
ENDBRANCH  14  15
ENDBRANCH  13  14
ENDBRANCH   6  13
TORSDOF 4
ENDMDL
MODEL 3
REMARK VINA RESULT:      -7.9      0.961      5.438
REMARK  4 active torsions:
REMARK  status: ('A' for Active; 'I' for Inactive)
REMARK    1  A    between atoms: S_18  and  C_6 
REMARK    2  A    between atoms: C_8  and  N_12 
REMARK       I    between atoms: N_12  and  C_16 
REMARK    3  A    between atoms: C_16  and  C_21 
REMARK    4  A    between atoms: C_21  and  S_18 
ROOT
ATOM      1  N   UNL d   1      48.582  35.251  52.050  0.00  0.00    -0.242 N 
ATOM      2  C   UNL d   1      48.825  35.330  52.830  0.00  0.00     0.153 A 
ATOM      3  C   UNL d   1      49.006  34.765  51.535  0.00  0.00     0.357 A 
ATOM      4  N   UNL d   1      49.491  34.925  53.100  0.00  0.00    -0.203 NA
ATOM      5  N   UNL d   1      49.673  34.360  51.805  0.00  0.00    -0.167 NA
ATOM      6  C   UNL d   1      49.914  34.441  52.590  0.00  0.00     0.200 A 
ATOM      7  C   UNL d   1      47.916  35.655  51.780  0.00  0.00     0.086 A 
ATOM      8  C   UNL d   1      48.400  35.815  53.345  0.00  0.00     0.038 A 
ATOM      9  C   UNL d   1      47.492  36.139  52.291  0.00  0.00     0.019 A 
ATOM     10  C   UNL d   1      47.734  36.220  53.076  0.00  0.00     0.004 A 
ATOM     11  O   UNL d   1      48.766  34.679  50.738  0.00  0.00    -0.244 OA
ATOM     12  C   UNL d   1      47.309  36.707  53.594  0.00  0.00     0.000 C 
ENDROOT
BRANCH   6  13
ATOM     13  S   UNL d   1      50.581  34.037  52.860  0.00  0.00    -0.043 SA
BRANCH  13  14
ATOM     14  C   UNL d   1      51.331  34.366  52.761  0.00  0.00     0.101 C 
BRANCH  14  15
ATOM     15  C   UNL d   1      51.993  33.941  52.991  0.00  0.00     0.287 C 
ATOM     16  N   UNL d   1      52.506  34.258  53.555  0.00  0.00    -0.186 NA
ATOM     17  O   UNL d   1      52.150  33.203  52.665  0.00  0.00    -0.265 OA
BRANCH  16  18
ATOM     18  C   UNL d   1      53.174  33.834  53.790  0.00  0.00     0.194 A 
ATOM     19  N   UNL d   1      53.635  33.264  53.408  0.00  0.00    -0.107 NA
ATOM     20  O   UNL d   1      54.235  33.035  53.917  0.00  0.00    -0.210 OA
ATOM     21  C   UNL d   1      54.155  33.454  54.612  0.00  0.00     0.128 A 
ATOM     22  C   UNL d   1      53.496  33.952  54.536  0.00  0.00     0.068 A 
ATOM     23  C   UNL d   1      54.658  33.383  55.275  0.00  0.00     0.029 C 
ENDBRANCH  16  18
ENDBRANCH  14  15
ENDBRANCH  13  14
ENDBRANCH   6  13
TORSDOF 4
ENDMDL
MODEL 4
REMARK VINA RESULT:      -6.7      2.596      5.257
REMARK  4 active torsions:
REMARK  status: ('A' for Active; 'I' for Inactive)
REMARK    1  A    between atoms: S_18  and  C_6 
REMARK    2  A    between atoms: C_8  and  N_12 
REMARK       I    between atoms: N_12  and  C_16 
REMARK    3  A    between atoms: C_16  and  C_21 
REMARK    4  A    between atoms: C_21  and  S_18 
ROOT
ATOM      1  N   UNL d   1      52.412  34.293  53.231  0.00  0.00    -0.242 N 
ATOM      2  C   UNL d   1      52.705  33.773  53.795  0.00  0.00     0.153 A 
ATOM      3  C   UNL d   1      52.035  33.999  52.558  0.00  0.00     0.357 A 
ATOM      4  N   UNL d   1      52.623  32.959  53.691  0.00  0.00    -0.203 NA
ATOM      5  N   UNL d   1      51.953  33.185  52.453  0.00  0.00    -0.167 NA
ATOM      6  C   UNL d   1      52.248  32.665  53.022  0.00  0.00     0.200 A 
ATOM      7  C   UNL d   1      52.494  35.106  53.335  0.00  0.00     0.086 A 
ATOM      8  C   UNL d   1      53.082  34.067  54.468  0.00  0.00     0.038 A 
ATOM      9  C   UNL d   1      52.868  35.401  54.004  0.00  0.00     0.019 A 
ATOM     10  C   UNL d   1      53.163  34.880  54.572  0.00  0.00     0.004 A 
ATOM     11  O   UNL d   1      51.734  34.522  51.978  0.00  0.00    -0.244 OA
ATOM     12  C   UNL d   1      53.542  35.174  55.249  0.00  0.00     0.000 C 
ENDROOT
BRANCH   6  13
ATOM     13  S   UNL d   1      52.166  31.850  52.917  0.00  0.00    -0.043 SA
BRANCH  13  14
ATOM     14  C   UNL d   1      52.834  31.366  52.914  0.00  0.00     0.101 C 
BRANCH  14  15
ATOM     15  C   UNL d   1      52.790  30.612  53.233  0.00  0.00     0.287 C 
ATOM     16  N   UNL d   1      53.399  30.337  53.718  0.00  0.00    -0.186 NA
ATOM     17  O   UNL d   1      52.145  30.129  53.073  0.00  0.00    -0.265 OA
BRANCH  16  18
ATOM     18  C   UNL d   1      53.358  29.579  54.041  0.00  0.00     0.194 A 
ATOM     19  N   UNL d   1      53.257  28.832  53.701  0.00  0.00    -0.107 NA
ATOM     20  O   UNL d   1      53.261  28.274  54.300  0.00  0.00    -0.210 OA
ATOM     21  C   UNL d   1      53.363  28.661  55.010  0.00  0.00     0.128 A 
ATOM     22  C   UNL d   1      53.424  29.473  54.852  0.00  0.00     0.068 A 
ATOM     23  C   UNL d   1      53.398  28.289  55.757  0.00  0.00     0.029 C 
ENDBRANCH  16  18
ENDBRANCH  14  15
ENDBRANCH  13  14
ENDBRANCH   6  13
TORSDOF 4
ENDMDL
