MODEL 1
REMARK VINA RESULT:      -2.1      0.000      0.000
REMARK  4 active torsions:
REMARK  status: ('A' for Active; 'I' for Inactive)
REMARK    1  A    between atoms: C_14  and  N_3 
REMARK    2  A    between atoms: C_9  and  C_5 
REMARK    3  A    between atoms: C_19  and  C_14 
REMARK    4  A    between atoms: C_23  and  C_19 
ROOT
ATOM      1  C   UNL d   1      31.000  17.139 -24.297  0.00  0.00     0.083 A 
ATOM      2  C   UNL d   1      30.522  17.769 -24.523  0.00  0.00     0.161 A 
ATOM      3  N   UNL d   1      31.790  18.120 -24.766  0.00  0.00    -0.272 N 
ATOM      4  C   UNL d   1      31.005  18.379 -24.814  0.00  0.00     0.288 A 
ATOM      5  C   UNL d   1      31.787  17.352 -24.447  0.00  0.00     0.072 A 
ATOM      6  C   UNL d   1      30.667  16.451 -23.986  0.00  0.00     0.201 A 
ATOM      7  O   UNL d   1      29.695  17.712 -24.435  0.00  0.00    -0.302 OA
ATOM      8  C   UNL d   1      29.848  16.399 -23.901  0.00  0.00     0.062 A 
ATOM      9  C   UNL d   1      29.366  17.027 -24.125  0.00  0.00     0.103 A 
ATOM     10  O   UNL d   1      30.754  19.106 -25.097  0.00  0.00    -0.264 OA
ATOM     11  O   UNL d   1      31.146  15.821 -23.761  0.00  0.00    -0.286 OA
ATOM     12  C   UNL d   1      29.512  15.708 -23.588  0.00  0.00     0.005 A 
ATOM     13  C   UNL d   1      28.539  16.964 -24.035  0.00  0.00     0.025 A 
ATOM     14  C   UNL d   1      28.698  15.650 -23.501  0.00  0.00     0.000 A 
ATOM     15  C   UNL d   1      28.210  16.279 -23.725  0.00  0.00     0.002 A 
ENDROOT
BRANCH   5  16
ATOM     16  C   UNL d   1      32.269  16.723 -24.223  0.00  0.00     0.019 A 
ATOM     17  C   UNL d   1      32.486  16.620 -23.430  0.00  0.00     0.031 A 
ATOM     18  C   UNL d   1      32.968  15.990 -23.211  0.00  0.00     0.140 A 
ATOM     19  F   UNL d   1      33.179  15.895 -22.421  0.00  0.00    -0.204 F 
ATOM     20  C   UNL d   1      33.241  15.453 -23.783  0.00  0.00     0.030 A 
ATOM     21  C   UNL d   1      33.024  15.555 -24.576  0.00  0.00     0.002 A 
ATOM     22  C   UNL d   1      32.537  16.192 -24.793  0.00  0.00     0.002 A 
ENDBRANCH   5  16
BRANCH   3  23
ATOM     23  C   UNL d   1      32.457  18.545 -24.995  0.00  0.00     0.086 C 
BRANCH  23  24
ATOM     24  C   UNL d   1      32.523  19.340 -24.793  0.00  0.00     0.065 C 
BRANCH  24  25
ATOM     25  C   UNL d   1      33.212  19.754 -24.973  0.00  0.00     0.236 C 
ATOM     26  O   UNL d   1      33.227  20.566 -24.910  0.00  0.00    -0.283 OA
ENDBRANCH  24  25
ENDBRANCH  23  24
ENDBRANCH   3  23
TORSDOF 4
ENDMDL
MODEL 2
REMARK VINA RESULT:       0.6      5.006      6.883
REMARK  4 active torsions:
REMARK  status: ('A' for Active; 'I' for Inactive)
REMARK    1  A    between atoms: C_14  and  N_3 
REMARK    2  A    between atoms: C_9  and  C_5 
REMARK    3  A    between atoms: C_19  and  C_14 
REMARK    4  A    between atoms: C_23  and  C_19 
ROOT
ATOM      1  C   UNL d   1      32.794  22.014 -21.031  0.00  0.00     0.083 A 
ATOM      2  C   UNL d   1      32.960  21.367 -20.550  0.00  0.00     0.161 A 
ATOM      3  N   UNL d   1      32.959  20.936 -21.816  0.00  0.00    -0.272 N 
ATOM      4  C   UNL d   1      33.063  20.698 -21.030  0.00  0.00     0.288 A 
ATOM      5  C   UNL d   1      32.793  21.751 -21.816  0.00  0.00     0.072 A 
ATOM      6  C   UNL d   1      32.666  22.759 -20.701  0.00  0.00     0.201 A 
ATOM      7  O   UNL d   1      32.998  21.467 -19.723  0.00  0.00    -0.302 OA
ATOM      8  C   UNL d   1      32.704  22.853 -19.882  0.00  0.00     0.062 A 
ATOM      9  C   UNL d   1      32.869  22.209 -19.397  0.00  0.00     0.103 A 
ATOM     10  O   UNL d   1      33.236  19.938 -20.775  0.00  0.00    -0.264 OA
ATOM     11  O   UNL d   1      32.500  23.406 -21.183  0.00  0.00    -0.286 OA
ATOM     12  C   UNL d   1      32.575  23.602 -19.549  0.00  0.00     0.005 A 
ATOM     13  C   UNL d   1      32.906  22.315 -18.570  0.00  0.00     0.025 A 
ATOM     14  C   UNL d   1      32.611  23.702 -18.735  0.00  0.00     0.000 A 
ATOM     15  C   UNL d   1      32.777  23.057 -18.245  0.00  0.00     0.002 A 
ENDROOT
BRANCH   5  16
ATOM     16  C   UNL d   1      32.627  22.396 -22.301  0.00  0.00     0.019 A 
ATOM     17  C   UNL d   1      31.851  22.674 -22.382  0.00  0.00     0.031 A 
ATOM     18  C   UNL d   1      31.691  23.318 -22.868  0.00  0.00     0.140 A 
ATOM     19  F   UNL d   1      30.917  23.588 -22.944  0.00  0.00    -0.204 F 
ATOM     20  C   UNL d   1      32.306  23.695 -23.281  0.00  0.00     0.030 A 
ATOM     21  C   UNL d   1      33.082  23.418 -23.201  0.00  0.00     0.002 A 
ATOM     22  C   UNL d   1      33.241  22.767 -22.709  0.00  0.00     0.002 A 
ENDBRANCH   5  16
BRANCH   3  23
ATOM     23  C   UNL d   1      33.011  20.454 -22.481  0.00  0.00     0.086 C 
BRANCH  23  24
ATOM     24  C   UNL d   1      32.816  19.657 -22.423  0.00  0.00     0.065 C 
BRANCH  24  25
ATOM     25  C   UNL d   1      32.565  19.244 -23.091  0.00  0.00     0.236 C 
ATOM     26  O   UNL d   1      32.348  18.462 -23.029  0.00  0.00    -0.283 OA
ENDBRANCH  24  25
ENDBRANCH  23  24
ENDBRANCH   3  23
TORSDOF 4
ENDMDL
