MODEL 1
REMARK VINA RESULT:      -5.4      0.000      0.000
REMARK  4 active torsions:
REMARK  status: ('A' for Active; 'I' for Inactive)
REMARK    1  A    between atoms: N_6  and  C_2 
REMARK    2  A    between atoms: C_7  and  C_3 
REMARK    3  A    between atoms: C_10  and  N_6 
REMARK    4  A    between atoms: O_14  and  C_11 
ROOT
ATOM      1  N   UNL d   1      57.382  -0.135  30.538  0.00  0.00    -0.221 NA
ATOM      2  C   UNL d   1      58.054   0.170  30.176  0.00  0.00     0.194 A 
ATOM      3  C   UNL d   1      57.345   0.183  31.287  0.00  0.00     0.090 A 
ATOM      4  S   UNL d   1      58.412   0.667  30.715  0.00  0.00    -0.046 SA
ATOM      5  C   UNL d   1      57.983   0.682  31.401  0.00  0.00     0.058 A 
ENDROOT
BRANCH   3   6
ATOM      6  C   UNL d   1      56.793   0.074  31.890  0.00  0.00     0.018 A 
ATOM      7  C   UNL d   1      56.428   0.681  32.230  0.00  0.00     0.004 A 
ATOM      8  C   UNL d   1      55.872   0.554  32.838  0.00  0.00     0.024 A 
ATOM      9  C   UNL d   1      55.717  -0.179  33.067  0.00  0.00     0.094 A 
ATOM     10  C   UNL d   1      56.081  -0.824  32.732  0.00  0.00     0.024 A 
ATOM     11  C   UNL d   1      56.633  -0.714  32.130  0.00  0.00     0.004 A 
BRANCH   9  12
ATOM     12  O   UNL d   1      55.147  -0.297  33.691  0.00  0.00    -0.328 OA
ATOM     13  C   UNL d   1      54.833   0.374  34.063  0.00  0.00     0.181 C 
ENDBRANCH   9  12
ENDBRANCH   3   6
BRANCH   2  14
ATOM     14  N   UNL d   1      58.304  -0.009  29.407  0.00  0.00    -0.221 NA
BRANCH  14  15
ATOM     15  C   UNL d   1      58.823  -0.626  29.282  0.00  0.00     0.084 A 
ATOM     16  C   UNL d   1      58.546  -1.405  29.166  0.00  0.00     0.019 A 
ATOM     17  C   UNL d   1      59.069  -2.047  29.036  0.00  0.00     0.002 A 
ATOM     18  C   UNL d   1      59.884  -1.904  29.023  0.00  0.00     0.000 A 
ATOM     19  C   UNL d   1      60.173  -1.103  29.142  0.00  0.00     0.002 A 
ATOM     20  C   UNL d   1      59.653  -0.480  29.268  0.00  0.00     0.019 A 
ENDBRANCH  14  15
ENDBRANCH   2  14
TORSDOF 4
ENDMDL
MODEL 2
REMARK VINA RESULT:      -4.2      1.912      4.589
REMARK  4 active torsions:
REMARK  status: ('A' for Active; 'I' for Inactive)
REMARK    1  A    between atoms: N_6  and  C_2 
REMARK    2  A    between atoms: C_7  and  C_3 
REMARK    3  A    between atoms: C_10  and  N_6 
REMARK    4  A    between atoms: O_14  and  C_11 
ROOT
ATOM      1  N   UNL d   1      57.808  -0.546  30.289  0.00  0.00    -0.221 NA
ATOM      2  C   UNL d   1      57.656   0.221  30.541  0.00  0.00     0.194 A 
ATOM      3  C   UNL d   1      58.525  -0.536  29.901  0.00  0.00     0.090 A 
ATOM      4  S   UNL d   1      58.285   0.682  30.300  0.00  0.00    -0.046 SA
ATOM      5  C   UNL d   1      58.824   0.224  29.905  0.00  0.00     0.058 A 
ENDROOT
BRANCH   3   6
ATOM      6  C   UNL d   1      58.947  -1.145  29.537  0.00  0.00     0.018 A 
ATOM      7  C   UNL d   1      58.586  -1.781  29.249  0.00  0.00     0.004 A 
ATOM      8  C   UNL d   1      59.027  -2.387  28.884  0.00  0.00     0.024 A 
ATOM      9  C   UNL d   1      59.805  -2.315  28.831  0.00  0.00     0.094 A 
ATOM     10  C   UNL d   1      60.201  -1.668  29.120  0.00  0.00     0.024 A 
ATOM     11  C   UNL d   1      59.780  -1.060  29.484  0.00  0.00     0.004 A 
BRANCH   9  12
ATOM     12  O   UNL d   1      60.245  -2.942  28.455  0.00  0.00    -0.328 OA
ATOM     13  C   UNL d   1      60.479  -3.587  28.921  0.00  0.00     0.181 C 
ENDBRANCH   9  12
ENDBRANCH   3   6
BRANCH   2  14
ATOM     14  N   UNL d   1      56.983   0.460  30.960  0.00  0.00    -0.221 NA
BRANCH  14  15
ATOM     15  C   UNL d   1      56.879   0.220  31.733  0.00  0.00     0.084 A 
ATOM     16  C   UNL d   1      56.456  -0.476  31.914  0.00  0.00     0.019 A 
ATOM     17  C   UNL d   1      56.342  -0.734  32.704  0.00  0.00     0.002 A 
ATOM     18  C   UNL d   1      56.661  -0.284  33.322  0.00  0.00     0.000 A 
ATOM     19  C   UNL d   1      57.098   0.434  33.138  0.00  0.00     0.002 A 
ATOM     20  C   UNL d   1      57.203   0.678  32.362  0.00  0.00     0.019 A 
ENDBRANCH  14  15
ENDBRANCH   2  14
TORSDOF 4
ENDMDL
MODEL 3
REMARK VINA RESULT:      -3.8      9.313     10.218
REMARK  4 active torsions:
REMARK  status: ('A' for Active; 'I' for Inactive)
REMARK    1  A    between atoms: N_6  and  C_2 
REMARK    2  A    between atoms: C_7  and  C_3 
REMARK    3  A    between atoms: C_10  and  N_6 
REMARK    4  A    between atoms: O_14  and  C_11 
ROOT
ATOM      1  N   UNL d   1      59.165  -9.545  34.150  0.00  0.00    -0.221 NA
ATOM      2  C   UNL d   1      59.873  -9.579  34.566  0.00  0.00     0.194 A 
ATOM      3  C   UNL d   1      59.338  -9.687  33.366  0.00  0.00     0.090 A 
ATOM      4  S   UNL d   1      60.461  -9.741  34.025  0.00  0.00    -0.046 SA
ATOM      5  C   UNL d   1      60.142  -9.809  33.284  0.00  0.00     0.058 A 
ENDROOT
BRANCH   3   6
ATOM      6  C   UNL d   1      58.845  -9.719  32.705  0.00  0.00     0.018 A 
ATOM      7  C   UNL d   1      58.063  -9.688  32.773  0.00  0.00     0.004 A 
ATOM      8  C   UNL d   1      57.578  -9.721  32.095  0.00  0.00     0.024 A 
ATOM      9  C   UNL d   1      57.912  -9.784  31.389  0.00  0.00     0.094 A 
ATOM     10  C   UNL d   1      58.718  -9.818  31.293  0.00  0.00     0.024 A 
ATOM     11  C   UNL d   1      59.211  -9.786  31.953  0.00  0.00     0.004 A 
BRANCH   9  12
ATOM     12  O   UNL d   1      57.406  -9.817  30.704  0.00  0.00    -0.328 OA
ATOM     13  C   UNL d   1      57.753  -9.711  29.958  0.00  0.00     0.181 C 
ENDBRANCH   9  12
ENDBRANCH   3   6
BRANCH   2  14
ATOM     14  N   UNL d   1      59.951  -9.467  35.383  0.00  0.00    -0.221 NA
BRANCH  14  15
ATOM     15  C   UNL d   1      59.964  -8.711  35.690  0.00  0.00     0.084 A 
ATOM     16  C   UNL d   1      59.264  -8.345  35.961  0.00  0.00     0.019 A 
ATOM     17  C   UNL d   1      59.264  -7.569  36.278  0.00  0.00     0.002 A 
ATOM     18  C   UNL d   1      59.979  -7.154  36.323  0.00  0.00     0.000 A 
ATOM     19  C   UNL d   1      60.702  -7.528  36.044  0.00  0.00     0.002 A 
ATOM     20  C   UNL d   1      60.692  -8.288  35.735  0.00  0.00     0.019 A 
ENDBRANCH  14  15
ENDBRANCH   2  14
TORSDOF 4
ENDMDL
MODEL 4
REMARK VINA RESULT:      -3.4      1.851      4.782
REMARK  4 active torsions:
REMARK  status: ('A' for Active; 'I' for Inactive)
REMARK    1  A    between atoms: N_6  and  C_2 
REMARK    2  A    between atoms: C_7  and  C_3 
REMARK    3  A    between atoms: C_10  and  N_6 
REMARK    4  A    between atoms: O_14  and  C_11 
ROOT
ATOM      1  N   UNL d   1      57.209  -0.612  31.539  0.00  0.00    -0.221 NA
ATOM      2  C   UNL d   1      56.645  -0.263  32.024  0.00  0.00     0.194 A 
ATOM      3  C   UNL d   1      57.490  -0.033  31.039  0.00  0.00     0.090 A 
ATOM      4  S   UNL d   1      56.595   0.523  31.807  0.00  0.00    -0.046 SA
ATOM      5  C   UNL d   1      57.112   0.673  31.201  0.00  0.00     0.058 A 
ENDROOT
BRANCH   3   6
ATOM      6  C   UNL d   1      58.058  -0.069  30.442  0.00  0.00     0.018 A 
ATOM      7  C   UNL d   1      58.504   0.552  30.259  0.00  0.00     0.004 A 
ATOM      8  C   UNL d   1      59.074   0.499  29.653  0.00  0.00     0.024 A 
ATOM      9  C   UNL d   1      59.161  -0.178  29.267  0.00  0.00     0.094 A 
ATOM     10  C   UNL d   1      58.712  -0.833  29.437  0.00  0.00     0.024 A 
ATOM     11  C   UNL d   1      58.144  -0.797  30.034  0.00  0.00     0.004 A 
BRANCH   9  12
ATOM     12  O   UNL d   1      59.747  -0.219  28.649  0.00  0.00    -0.328 OA
ATOM     13  C   UNL d   1      60.538  -0.337  28.870  0.00  0.00     0.181 C 
ENDBRANCH   9  12
ENDBRANCH   3   6
BRANCH   2  14
ATOM     14  N   UNL d   1      56.218  -0.653  32.616  0.00  0.00    -0.221 NA
BRANCH  14  15
ATOM     15  C   UNL d   1      55.929  -0.232  33.253  0.00  0.00     0.084 A 
ATOM     16  C   UNL d   1      55.124  -0.018  33.298  0.00  0.00     0.019 A 
ATOM     17  C   UNL d   1      54.816   0.415  33.948  0.00  0.00     0.002 A 
ATOM     18  C   UNL d   1      55.326   0.635  34.561  0.00  0.00     0.000 A 
ATOM     19  C   UNL d   1      56.157   0.415  34.517  0.00  0.00     0.002 A 
ATOM     20  C   UNL d   1      56.449  -0.008  33.878  0.00  0.00     0.019 A 
ENDBRANCH  14  15
ENDBRANCH   2  14
TORSDOF 4
ENDMDL
