MODEL 1
REMARK VINA RESULT:      31.7      0.000      0.000
REMARK  6 active torsions:
REMARK  status: ('A' for Active; 'I' for Inactive)
REMARK    1  A    between atoms: C_21  and  N_1 
REMARK       I    between atoms: N_7  and  C_10 
REMARK    2  A    between atoms: C_15  and  N_8 
REMARK    3  A    between atoms: C_10  and  C_27 
REMARK    4  A    between atoms: C_29  and  C_21 
REMARK    5  A    between atoms: O_28  and  C_24 
REMARK    6  A    between atoms: C_27  and  C_29 
ROOT
ATOM      1  N   UNL d   1      45.687 -15.645  44.303  0.00  0.00    -0.269 N 
ATOM      2  N   UNL d   1      45.987 -17.112  43.651  0.00  0.00    -0.301 N 
ATOM      3  C   UNL d   1      45.542 -14.892  44.636  0.00  0.00     0.265 C 
ATOM      4  C   UNL d   1      45.064 -16.153  44.167  0.00  0.00     0.102 A 
ATOM      5  C   UNL d   1      46.462 -15.848  44.123  0.00  0.00     0.102 A 
ATOM      6  C   UNL d   1      45.207 -16.898  43.837  0.00  0.00     0.100 A 
ATOM      7  C   UNL d   1      46.607 -16.601  43.789  0.00  0.00     0.100 A 
ATOM      8  O   UNL d   1      44.769 -14.657  44.830  0.00  0.00    -0.267 OA
ENDROOT
BRANCH   3   9
ATOM      9  C   UNL d   1      46.191 -14.388  44.768  0.00  0.00     0.063 C 
BRANCH   9  10
ATOM     10  C   UNL d   1      46.035 -13.581  44.939  0.00  0.00     0.024 C 
BRANCH  10  11
ATOM     11  C   UNL d   1      46.280 -13.000  44.388  0.00  0.00     0.088 C 
BRANCH  11  12
ATOM     12  N   UNL d   1      45.758 -12.754  43.784  0.00  0.00    -0.224 N 
ATOM     13  C   UNL d   1      45.932 -12.907  42.981  0.00  0.00     0.276 A 
ATOM     14  C   UNL d   1      45.406 -12.658  42.397  0.00  0.00     0.104 A 
ATOM     15  O   UNL d   1      46.616 -13.299  42.785  0.00  0.00    -0.266 OA
ATOM     16  S   UNL d   1      45.429 -12.728  41.578  0.00  0.00    -0.080 SA
ATOM     17  C   UNL d   1      44.710 -12.259  42.597  0.00  0.00     0.097 A 
ATOM     18  C   UNL d   1      44.761 -12.379  41.288  0.00  0.00     0.037 A 
ATOM     19  C   UNL d   1      44.308 -12.086  41.905  0.00  0.00     0.027 A 
ATOM     20  N   UNL d   1      44.538 -12.108  43.389  0.00  0.00    -0.191 NA
ATOM     21  C   UNL d   1      45.054 -12.351  43.983  0.00  0.00     0.356 A 
ATOM     22  O   UNL d   1      44.887 -12.202  44.788  0.00  0.00    -0.244 OA
ENDBRANCH  11  12
ENDBRANCH  10  11
ENDBRANCH   9  10
ENDBRANCH   3   9
BRANCH   2  23
ATOM     23  C   UNL d   1      46.145 -17.854  43.321  0.00  0.00     0.064 A 
ATOM     24  C   UNL d   1      46.123 -18.545  43.771  0.00  0.00     0.020 A 
ATOM     25  C   UNL d   1      46.280 -19.270  43.435  0.00  0.00     0.026 A 
ATOM     26  C   UNL d   1      46.466 -19.327  42.634  0.00  0.00     0.094 A 
ATOM     27  C   UNL d   1      46.489 -18.633  42.180  0.00  0.00     0.026 A 
ATOM     28  C   UNL d   1      46.330 -17.898  42.519  0.00  0.00     0.020 A 
BRANCH  26  29
ATOM     29  O   UNL d   1      46.630 -20.051  42.266  0.00  0.00    -0.328 OA
ATOM     30  C   UNL d   1      46.585 -20.100  41.434  0.00  0.00     0.181 C 
ENDBRANCH  26  29
ENDBRANCH   2  23
TORSDOF 6
ENDMDL
