MODEL 1
REMARK VINA RESULT:      -8.4      0.000      0.000
REMARK  4 active torsions:
REMARK  status: ('A' for Active; 'I' for Inactive)
REMARK    1  A    between atoms: N_2  and  S_1 
REMARK    2  A    between atoms: C_4  and  S_1 
REMARK    3  A    between atoms: C_11  and  C_3 
REMARK    4  A    between atoms: O_17  and  C_9 
ROOT
ATOM      1  S   UNL d   1     -48.271  14.316  22.893  0.00  0.00     0.273 S 
ATOM      2  O   UNL d   1     -48.180  14.670  22.147  0.00  0.00    -0.200 OA
ATOM      3  O   UNL d   1     -48.361  13.965  23.631  0.00  0.00    -0.200 OA
ENDROOT
BRANCH   1   4
ATOM      4  N   UNL d   1     -49.015  14.659  22.965  0.00  0.00    -0.213 N 
ATOM      5  C   UNL d   1     -49.724  14.345  22.691  0.00  0.00     0.157 A 
ATOM      6  N   UNL d   1     -50.331  14.870  22.881  0.00  0.00    -0.224 NA
ATOM      7  C   UNL d   1     -49.993  15.517  23.278  0.00  0.00     0.120 A 
ATOM      8  C   UNL d   1     -49.180  15.386  23.330  0.00  0.00     0.114 A 
BRANCH   5   9
ATOM      9  C   UNL d   1     -49.811  13.625  22.293  0.00  0.00     0.035 A 
ATOM     10  C   UNL d   1     -49.703  13.585  21.481  0.00  0.00     0.003 A 
ATOM     11  C   UNL d   1     -49.789  12.867  21.078  0.00  0.00     0.000 A 
ATOM     12  C   UNL d   1     -49.989  12.178  21.507  0.00  0.00     0.000 A 
ATOM     13  C   UNL d   1     -50.097  12.219  22.320  0.00  0.00     0.000 A 
ATOM     14  C   UNL d   1     -50.010  12.938  22.718  0.00  0.00     0.003 A 
ENDBRANCH   5   9
ENDBRANCH   1   4
BRANCH   1  15
ATOM     15  C   UNL d   1     -47.520  13.968  22.819  0.00  0.00     0.106 A 
ATOM     16  C   UNL d   1     -47.313  13.321  23.297  0.00  0.00     0.039 A 
ATOM     17  C   UNL d   1     -46.569  12.977  23.224  0.00  0.00     0.122 A 
ATOM     18  C   UNL d   1     -46.029  13.279  22.674  0.00  0.00     0.162 A 
ATOM     19  C   UNL d   1     -46.233  13.921  22.200  0.00  0.00     0.032 A 
ATOM     20  F   UNL d   1     -45.285  12.935  22.601  0.00  0.00    -0.202 F 
ATOM     21  C   UNL d   1     -46.977  14.262  22.275  0.00  0.00     0.015 A 
BRANCH  17  22
ATOM     22  O   UNL d   1     -46.365  12.335  23.698  0.00  0.00    -0.326 OA
ATOM     23  C   UNL d   1     -46.728  11.607  23.583  0.00  0.00     0.181 C 
ENDBRANCH  17  22
ENDBRANCH   1  15
TORSDOF 4
ENDMDL
MODEL 2
REMARK VINA RESULT:      -8.1      1.171      2.305
REMARK  4 active torsions:
REMARK  status: ('A' for Active; 'I' for Inactive)
REMARK    1  A    between atoms: N_2  and  S_1 
REMARK    2  A    between atoms: C_4  and  S_1 
REMARK    3  A    between atoms: C_11  and  C_3 
REMARK    4  A    between atoms: O_17  and  C_9 
ROOT
ATOM      1  S   UNL d   1     -48.837  12.786  22.289  0.00  0.00     0.273 S 
ATOM      2  O   UNL d   1     -48.462  13.055  21.598  0.00  0.00    -0.200 OA
ATOM      3  O   UNL d   1     -49.207  12.519  22.973  0.00  0.00    -0.200 OA
ENDROOT
BRANCH   1   4
ATOM      4  N   UNL d   1     -49.570  12.906  21.939  0.00  0.00    -0.213 N 
ATOM      5  C   UNL d   1     -50.043  13.575  22.018  0.00  0.00     0.157 A 
ATOM      6  N   UNL d   1     -50.729  13.461  21.574  0.00  0.00    -0.224 NA
ATOM      7  C   UNL d   1     -50.680  12.713  21.216  0.00  0.00     0.120 A 
ATOM      8  C   UNL d   1     -49.965  12.371  21.441  0.00  0.00     0.114 A 
BRANCH   5   9
ATOM      9  C   UNL d   1     -49.860  14.245  22.466  0.00  0.00     0.035 A 
ATOM     10  C   UNL d   1     -50.111  14.304  23.245  0.00  0.00     0.003 A 
ATOM     11  C   UNL d   1     -49.930  14.972  23.698  0.00  0.00     0.000 A 
ATOM     12  C   UNL d   1     -49.487  15.592  23.355  0.00  0.00     0.000 A 
ATOM     13  C   UNL d   1     -49.236  15.533  22.576  0.00  0.00     0.000 A 
ATOM     14  C   UNL d   1     -49.419  14.862  22.127  0.00  0.00     0.003 A 
ENDBRANCH   5   9
ENDBRANCH   1   4
BRANCH   1  15
ATOM     15  C   UNL d   1     -48.095  12.664  22.644  0.00  0.00     0.106 A 
ATOM     16  C   UNL d   1     -47.418  13.028  22.328  0.00  0.00     0.039 A 
ATOM     17  C   UNL d   1     -46.685  12.908  22.678  0.00  0.00     0.122 A 
ATOM     18  C   UNL d   1     -46.623  12.423  23.347  0.00  0.00     0.162 A 
ATOM     19  C   UNL d   1     -47.293  12.061  23.661  0.00  0.00     0.032 A 
ATOM     20  F   UNL d   1     -45.888  12.303  23.698  0.00  0.00    -0.202 F 
ATOM     21  C   UNL d   1     -48.025  12.184  23.308  0.00  0.00     0.015 A 
BRANCH  17  22
ATOM     22  O   UNL d   1     -46.015  13.270  22.364  0.00  0.00    -0.326 OA
ATOM     23  C   UNL d   1     -45.813  14.033  22.593  0.00  0.00     0.181 C 
ENDBRANCH  17  22
ENDBRANCH   1  15
TORSDOF 4
ENDMDL
MODEL 3
REMARK VINA RESULT:      -7.9      1.908      3.896
REMARK  4 active torsions:
REMARK  status: ('A' for Active; 'I' for Inactive)
REMARK    1  A    between atoms: N_2  and  S_1 
REMARK    2  A    between atoms: C_4  and  S_1 
REMARK    3  A    between atoms: C_11  and  C_3 
REMARK    4  A    between atoms: O_17  and  C_9 
ROOT
ATOM      1  S   UNL d   1     -48.430  12.365  22.840  0.00  0.00     0.273 S 
ATOM      2  O   UNL d   1     -48.657  12.586  23.608  0.00  0.00    -0.200 OA
ATOM      3  O   UNL d   1     -48.206  12.146  22.080  0.00  0.00    -0.200 OA
ENDROOT
BRANCH   1   4
ATOM      4  N   UNL d   1     -47.831  11.897  23.152  0.00  0.00    -0.213 N 
ATOM      5  C   UNL d   1     -47.040  12.110  23.234  0.00  0.00     0.157 A 
ATOM      6  N   UNL d   1     -46.634  11.476  23.570  0.00  0.00    -0.224 NA
ATOM      7  C   UNL d   1     -47.180  10.862  23.698  0.00  0.00     0.120 A 
ATOM      8  C   UNL d   1     -47.918  11.123  23.439  0.00  0.00     0.114 A 
BRANCH   5   9
ATOM      9  C   UNL d   1     -46.712  12.837  23.016  0.00  0.00     0.035 A 
ATOM     10  C   UNL d   1     -46.751  13.479  23.525  0.00  0.00     0.003 A 
ATOM     11  C   UNL d   1     -46.423  14.208  23.311  0.00  0.00     0.000 A 
ATOM     12  C   UNL d   1     -46.050  14.287  22.568  0.00  0.00     0.000 A 
ATOM     13  C   UNL d   1     -46.011  13.645  22.059  0.00  0.00     0.000 A 
ATOM     14  C   UNL d   1     -46.340  12.918  22.277  0.00  0.00     0.003 A 
ENDBRANCH   5   9
ENDBRANCH   1   4
BRANCH   1  15
ATOM     15  C   UNL d   1     -49.036  12.838  22.525  0.00  0.00     0.106 A 
ATOM     16  C   UNL d   1     -49.416  13.401  23.003  0.00  0.00     0.039 A 
ATOM     17  C   UNL d   1     -50.015  13.869  22.692  0.00  0.00     0.122 A 
ATOM     18  C   UNL d   1     -50.239  13.777  21.900  0.00  0.00     0.162 A 
ATOM     19  C   UNL d   1     -49.863  13.220  21.424  0.00  0.00     0.032 A 
ATOM     20  F   UNL d   1     -50.839  14.246  21.588  0.00  0.00    -0.202 F 
ATOM     21  C   UNL d   1     -49.264  12.753  21.739  0.00  0.00     0.015 A 
BRANCH  17  22
ATOM     22  O   UNL d   1     -50.391  14.427  23.168  0.00  0.00    -0.326 OA
ATOM     23  C   UNL d   1     -50.122  15.203  23.182  0.00  0.00     0.181 C 
ENDBRANCH  17  22
ENDBRANCH   1  15
TORSDOF 4
ENDMDL
MODEL 4
REMARK VINA RESULT:      -7.7      1.889      3.435
REMARK  4 active torsions:
REMARK  status: ('A' for Active; 'I' for Inactive)
REMARK    1  A    between atoms: N_2  and  S_1 
REMARK    2  A    between atoms: C_4  and  S_1 
REMARK    3  A    between atoms: C_11  and  C_3 
REMARK    4  A    between atoms: O_17  and  C_9 
ROOT
ATOM      1  S   UNL d   1     -48.041  14.194  22.677  0.00  0.00     0.273 S 
ATOM      2  O   UNL d   1     -47.984  14.259  23.503  0.00  0.00    -0.200 OA
ATOM      3  O   UNL d   1     -48.098  14.131  21.859  0.00  0.00    -0.200 OA
ENDROOT
BRANCH   1   4
ATOM      4  N   UNL d   1     -47.289  13.863  22.650  0.00  0.00    -0.213 N 
ATOM      5  C   UNL d   1     -47.108  13.064  22.719  0.00  0.00     0.157 A 
ATOM      6  N   UNL d   1     -46.289  12.978  22.661  0.00  0.00    -0.224 NA
ATOM      7  C   UNL d   1     -45.961  13.734  22.555  0.00  0.00     0.120 A 
ATOM      8  C   UNL d   1     -46.579  14.280  22.548  0.00  0.00     0.114 A 
BRANCH   5   9
ATOM      9  C   UNL d   1     -47.654  12.453  22.828  0.00  0.00     0.035 A 
ATOM     10  C   UNL d   1     -47.868  12.217  23.584  0.00  0.00     0.003 A 
ATOM     11  C   UNL d   1     -48.414  11.606  23.698  0.00  0.00     0.000 A 
ATOM     12  C   UNL d   1     -48.749  11.227  23.033  0.00  0.00     0.000 A 
ATOM     13  C   UNL d   1     -48.535  11.462  22.276  0.00  0.00     0.000 A 
ATOM     14  C   UNL d   1     -47.988  12.073  22.168  0.00  0.00     0.003 A 
ENDBRANCH   5   9
ENDBRANCH   1   4
BRANCH   1  15
ATOM     15  C   UNL d   1     -48.802  14.529  22.704  0.00  0.00     0.106 A 
ATOM     16  C   UNL d   1     -49.335  14.399  22.081  0.00  0.00     0.039 A 
ATOM     17  C   UNL d   1     -50.087  14.730  22.107  0.00  0.00     0.122 A 
ATOM     18  C   UNL d   1     -50.310  15.193  22.757  0.00  0.00     0.162 A 
ATOM     19  C   UNL d   1     -49.782  15.322  23.376  0.00  0.00     0.032 A 
ATOM     20  F   UNL d   1     -51.063  15.524  22.784  0.00  0.00    -0.202 F 
ATOM     21  C   UNL d   1     -49.031  14.990  23.346  0.00  0.00     0.015 A 
BRANCH  17  22
ATOM     22  O   UNL d   1     -50.616  14.601  21.489  0.00  0.00    -0.326 OA
ATOM     23  C   UNL d   1     -51.064  13.913  21.468  0.00  0.00     0.181 C 
ENDBRANCH  17  22
ENDBRANCH   1  15
TORSDOF 4
ENDMDL
MODEL 5
REMARK VINA RESULT:      -7.4      1.477      2.089
REMARK  4 active torsions:
REMARK  status: ('A' for Active; 'I' for Inactive)
REMARK    1  A    between atoms: N_2  and  S_1 
REMARK    2  A    between atoms: C_4  and  S_1 
REMARK    3  A    between atoms: C_11  and  C_3 
REMARK    4  A    between atoms: O_17  and  C_9 
ROOT
ATOM      1  S   UNL d   1     -48.191  12.646  23.048  0.00  0.00     0.273 S 
ATOM      2  O   UNL d   1     -47.929  12.181  22.412  0.00  0.00    -0.200 OA
ATOM      3  O   UNL d   1     -48.451  13.105  23.678  0.00  0.00    -0.200 OA
ENDROOT
BRANCH   1   4
ATOM      4  N   UNL d   1     -48.783  12.096  23.205  0.00  0.00    -0.213 N 
ATOM      5  C   UNL d   1     -49.548  12.107  22.903  0.00  0.00     0.157 A 
ATOM      6  N   UNL d   1     -49.954  11.455  23.203  0.00  0.00    -0.224 NA
ATOM      7  C   UNL d   1     -49.434  11.035  23.697  0.00  0.00     0.120 A 
ATOM      8  C   UNL d   1     -48.711  11.432  23.698  0.00  0.00     0.114 A 
BRANCH   5   9
ATOM      9  C   UNL d   1     -49.855  12.675  22.386  0.00  0.00     0.035 A 
ATOM     10  C   UNL d   1     -49.736  12.607  21.577  0.00  0.00     0.003 A 
ATOM     11  C   UNL d   1     -50.042  13.173  21.056  0.00  0.00     0.000 A 
ATOM     12  C   UNL d   1     -50.475  13.819  21.361  0.00  0.00     0.000 A 
ATOM     13  C   UNL d   1     -50.594  13.887  22.171  0.00  0.00     0.000 A 
ATOM     14  C   UNL d   1     -50.287  13.318  22.687  0.00  0.00     0.003 A 
ENDBRANCH   5   9
ENDBRANCH   1   4
BRANCH   1  15
ATOM     15  C   UNL d   1     -47.594  13.201  22.890  0.00  0.00     0.106 A 
ATOM     16  C   UNL d   1     -46.920  12.975  22.459  0.00  0.00     0.039 A 
ATOM     17  C   UNL d   1     -46.329  13.525  22.302  0.00  0.00     0.122 A 
ATOM     18  C   UNL d   1     -46.408  14.302  22.576  0.00  0.00     0.162 A 
ATOM     19  C   UNL d   1     -47.075  14.527  23.004  0.00  0.00     0.032 A 
ATOM     20  F   UNL d   1     -45.816  14.852  22.419  0.00  0.00    -0.202 F 
ATOM     21  C   UNL d   1     -47.664  13.975  23.158  0.00  0.00     0.015 A 
BRANCH  17  22
ATOM     22  O   UNL d   1     -45.662  13.300  21.875  0.00  0.00    -0.326 OA
ATOM     23  C   UNL d   1     -45.062  12.875  22.242  0.00  0.00     0.181 C 
ENDBRANCH  17  22
ENDBRANCH   1  15
TORSDOF 4
ENDMDL
MODEL 6
REMARK VINA RESULT:      -6.5      8.550      9.851
REMARK  4 active torsions:
REMARK  status: ('A' for Active; 'I' for Inactive)
REMARK    1  A    between atoms: N_2  and  S_1 
REMARK    2  A    between atoms: C_4  and  S_1 
REMARK    3  A    between atoms: C_11  and  C_3 
REMARK    4  A    between atoms: O_17  and  C_9 
ROOT
ATOM      1  S   UNL d   1     -40.385  15.188  18.707  0.00  0.00     0.273 S 
ATOM      2  O   UNL d   1     -39.950  15.896  18.718  0.00  0.00    -0.200 OA
ATOM      3  O   UNL d   1     -40.816  14.488  18.696  0.00  0.00    -0.200 OA
ENDROOT
BRANCH   1   4
ATOM      4  N   UNL d   1     -40.526  15.288  17.903  0.00  0.00    -0.213 N 
ATOM      5  C   UNL d   1     -40.085  14.964  17.289  0.00  0.00     0.157 A 
ATOM      6  N   UNL d   1     -40.419  15.205  16.574  0.00  0.00    -0.224 NA
ATOM      7  C   UNL d   1     -41.076  15.683  16.749  0.00  0.00     0.120 A 
ATOM      8  C   UNL d   1     -41.142  15.734  17.569  0.00  0.00     0.114 A 
BRANCH   5   9
ATOM      9  C   UNL d   1     -39.420  14.481  17.375  0.00  0.00     0.035 A 
ATOM     10  C   UNL d   1     -39.505  13.668  17.451  0.00  0.00     0.003 A 
ATOM     11  C   UNL d   1     -38.842  13.180  17.538  0.00  0.00     0.000 A 
ATOM     12  C   UNL d   1     -38.080  13.522  17.548  0.00  0.00     0.000 A 
ATOM     13  C   UNL d   1     -37.995  14.335  17.472  0.00  0.00     0.000 A 
ATOM     14  C   UNL d   1     -38.660  14.818  17.385  0.00  0.00     0.003 A 
ENDBRANCH   5   9
ENDBRANCH   1   4
BRANCH   1  15
ATOM     15  C   UNL d   1     -40.243  15.088  19.519  0.00  0.00     0.106 A 
ATOM     16  C   UNL d   1     -39.674  15.556  19.903  0.00  0.00     0.039 A 
ATOM     17  C   UNL d   1     -39.533  15.457  20.707  0.00  0.00     0.122 A 
ATOM     18  C   UNL d   1     -39.960  14.889  21.132  0.00  0.00     0.162 A 
ATOM     19  C   UNL d   1     -40.525  14.423  20.753  0.00  0.00     0.032 A 
ATOM     20  F   UNL d   1     -39.819  14.789  21.936  0.00  0.00    -0.202 F 
ATOM     21  C   UNL d   1     -40.663  14.526  19.949  0.00  0.00     0.015 A 
BRANCH  17  22
ATOM     22  O   UNL d   1     -38.969  15.922  21.086  0.00  0.00    -0.326 OA
ATOM     23  C   UNL d   1     -38.170  15.804  20.935  0.00  0.00     0.181 C 
ENDBRANCH  17  22
ENDBRANCH   1  15
TORSDOF 4
ENDMDL
MODEL 7
REMARK VINA RESULT:      -5.7      8.416     10.184
REMARK  4 active torsions:
REMARK  status: ('A' for Active; 'I' for Inactive)
REMARK    1  A    between atoms: N_2  and  S_1 
REMARK    2  A    between atoms: C_4  and  S_1 
REMARK    3  A    between atoms: C_11  and  C_3 
REMARK    4  A    between atoms: O_17  and  C_9 
ROOT
ATOM      1  S   UNL d   1     -38.906  14.170  18.951  0.00  0.00     0.273 S 
ATOM      2  O   UNL d   1     -38.205  14.598  18.820  0.00  0.00    -0.200 OA
ATOM      3  O   UNL d   1     -39.599  13.747  19.080  0.00  0.00    -0.200 OA
ENDROOT
BRANCH   1   4
ATOM      4  N   UNL d   1     -38.767  13.734  18.268  0.00  0.00    -0.213 N 
ATOM      5  C   UNL d   1     -39.044  13.911  17.514  0.00  0.00     0.157 A 
ATOM      6  N   UNL d   1     -38.775  13.329  16.995  0.00  0.00    -0.224 NA
ATOM      7  C   UNL d   1     -38.325  12.785  17.434  0.00  0.00     0.120 A 
ATOM      8  C   UNL d   1     -38.321  13.036  18.219  0.00  0.00     0.114 A 
BRANCH   5   9
ATOM      9  C   UNL d   1     -39.513  14.562  17.312  0.00  0.00     0.035 A 
ATOM     10  C   UNL d   1     -39.165  15.268  17.081  0.00  0.00     0.003 A 
ATOM     11  C   UNL d   1     -39.630  15.922  16.878  0.00  0.00     0.000 A 
ATOM     12  C   UNL d   1     -40.463  15.859  16.911  0.00  0.00     0.000 A 
ATOM     13  C   UNL d   1     -40.811  15.153  17.143  0.00  0.00     0.000 A 
ATOM     14  C   UNL d   1     -40.342  14.502  17.345  0.00  0.00     0.003 A 
ENDBRANCH   5   9
ENDBRANCH   1   4
BRANCH   1  15
ATOM     15  C   UNL d   1     -39.046  14.611  19.641  0.00  0.00     0.106 A 
ATOM     16  C   UNL d   1     -39.761  14.522  20.054  0.00  0.00     0.039 A 
ATOM     17  C   UNL d   1     -39.900  14.958  20.737  0.00  0.00     0.122 A 
ATOM     18  C   UNL d   1     -39.324  15.485  21.011  0.00  0.00     0.162 A 
ATOM     19  C   UNL d   1     -38.614  15.575  20.603  0.00  0.00     0.032 A 
ATOM     20  F   UNL d   1     -39.463  15.922  21.695  0.00  0.00    -0.202 F 
ATOM     21  C   UNL d   1     -38.479  15.138  19.921  0.00  0.00     0.015 A 
BRANCH  17  22
ATOM     22  O   UNL d   1     -40.610  14.868  21.144  0.00  0.00    -0.326 OA
ATOM     23  C   UNL d   1     -41.283  15.265  20.891  0.00  0.00     0.181 C 
ENDBRANCH  17  22
ENDBRANCH   1  15
TORSDOF 4
ENDMDL
