MODEL 1
REMARK VINA RESULT:      59.2      0.000      0.000
REMARK  7 active torsions:
REMARK  status: ('A' for Active; 'I' for Inactive)
REMARK    1  A    between atoms: C_7  and  C_1 
REMARK    2  A    between atoms: C_8  and  C_2 
REMARK    3  A    between atoms: C_10  and  C_3 
REMARK    4  A    between atoms: O_14  and  C_7 
REMARK    5  A    between atoms: O_15  and  C_8 
REMARK    6  A    between atoms: C_19  and  O_14 
REMARK    7  A    between atoms: C_20  and  O_15 
ROOT
ATOM      1  C   UNL d   1     -50.715  25.387  33.763  0.00  0.00     0.100 A 
ATOM      2  C   UNL d   1     -51.824  24.500  33.610  0.00  0.00     0.103 A 
ATOM      3  C   UNL d   1     -51.527  25.258  33.768  0.00  0.00     0.016 A 
ATOM      4  C   UNL d   1     -50.191  24.760  33.600  0.00  0.00     0.171 A 
ATOM      5  C   UNL d   1     -51.300  23.873  33.447  0.00  0.00     0.204 A 
ATOM      6  C   UNL d   1     -50.482  24.007  33.442  0.00  0.00     0.081 A 
ATOM      7  O   UNL d   1     -51.482  23.221  33.307  0.00  0.00    -0.286 OA
ATOM      8  O   UNL d   1     -49.829  25.295  33.705  0.00  0.00    -0.289 OA
ATOM      9  C   UNL d   1     -49.648  24.468  33.511  0.00  0.00     0.042 C 
ENDROOT
BRANCH   3  10
ATOM     10  C   UNL d   1     -52.042  25.873  33.929  0.00  0.00     0.001 A 
ATOM     11  C   UNL d   1     -52.575  25.822  34.556  0.00  0.00     0.000 A 
ATOM     12  C   UNL d   1     -53.094  26.442  34.717  0.00  0.00     0.000 A 
ATOM     13  C   UNL d   1     -53.083  27.119  34.254  0.00  0.00     0.000 A 
ATOM     14  C   UNL d   1     -52.552  27.181  33.622  0.00  0.00     0.000 A 
ATOM     15  C   UNL d   1     -52.033  26.560  33.460  0.00  0.00     0.000 A 
ENDBRANCH   3  10
BRANCH   2  16
ATOM     16  C   UNL d   1     -52.639  24.369  33.615  0.00  0.00     0.303 C 
ATOM     17  O   UNL d   1     -53.163  24.938  33.317  0.00  0.00    -0.259 OA
BRANCH  16  18
ATOM     18  O   UNL d   1     -52.961  23.675  33.914  0.00  0.00    -0.271 OA
BRANCH  18  19
ATOM     19  C   UNL d   1     -53.741  23.461  33.725  0.00  0.00     0.126 C 
ATOM     20  C   UNL d   1     -54.256  23.196  34.318  0.00  0.00     0.029 C 
ENDBRANCH  18  19
ENDBRANCH  16  18
ENDBRANCH   2  16
BRANCH   1  21
ATOM     21  C   UNL d   1     -50.421  26.143  33.921  0.00  0.00     0.303 C 
ATOM     22  O   UNL d   1     -50.317  26.668  33.314  0.00  0.00    -0.259 OA
BRANCH  21  23
ATOM     23  O   UNL d   1     -50.226  26.386  34.690  0.00  0.00    -0.271 OA
BRANCH  23  24
ATOM     24  C   UNL d   1     -49.717  27.021  34.806  0.00  0.00     0.126 C 
ATOM     25  C   UNL d   1     -49.836  27.533  35.447  0.00  0.00     0.029 C 
ENDBRANCH  23  24
ENDBRANCH  21  23
ENDBRANCH   1  21
TORSDOF 7
ENDMDL
