MODEL 1
REMARK VINA RESULT:      -3.7      0.000      0.000
REMARK  5 active torsions:
REMARK  status: ('A' for Active; 'I' for Inactive)
REMARK    1  A    between atoms: C_14  and  N_1 
REMARK    2  A    between atoms: C_13  and  C_3 
REMARK    3  A    between atoms: C_4  and  S_11 
REMARK    4  A    between atoms: S_11  and  C_13 
REMARK    5  A    between atoms: C_15  and  C_14 
ROOT
ATOM      1  S   UNL d   1     -41.158-122.702 -51.896  0.00  0.00    -0.058 SA
ENDROOT
BRANCH   1   2
ATOM      2  C   UNL d   1     -41.356-122.621 -52.684  0.00  0.00     0.141 A 
ATOM      3  N   UNL d   1     -41.830-122.019 -52.998  0.00  0.00    -0.232 NA
ATOM      4  C   UNL d   1     -41.887-122.147 -53.805  0.00  0.00     0.088 A 
ATOM      5  C   UNL d   1     -42.272-121.747 -54.411  0.00  0.00     0.020 A 
ATOM      6  C   UNL d   1     -41.449-122.825 -53.985  0.00  0.00     0.049 A 
ATOM      7  C   UNL d   1     -42.231-122.005 -55.175  0.00  0.00     0.002 A 
ATOM      8  C   UNL d   1     -41.793-122.684 -55.355  0.00  0.00     0.001 A 
ATOM      9  C   UNL d   1     -41.400-123.099 -54.769  0.00  0.00     0.008 A 
ATOM     10  S   UNL d   1     -41.128-123.107 -53.286  0.00  0.00    -0.060 SA
ENDBRANCH   1   2
BRANCH   1  11
ATOM     11  C   UNL d   1     -41.756-122.687 -51.323  0.00  0.00     0.077 C 
BRANCH  11  12
ATOM     12  C   UNL d   1     -41.639-123.074 -50.609  0.00  0.00     0.178 A 
ATOM     13  N   UNL d   1     -42.096-122.879 -49.975  0.00  0.00    -0.264 N 
ATOM     14  C   UNL d   1     -41.851-123.354 -49.346  0.00  0.00     0.227 A 
ATOM     15  N   UNL d   1     -41.260-123.817 -49.615  0.00  0.00    -0.117 NA
ATOM     16  S   UNL d   1     -42.159-123.370 -48.534  0.00  0.00    -0.036 SA
ATOM     17  N   UNL d   1     -41.123-123.657 -50.376  0.00  0.00    -0.127 NA
BRANCH  13  18
ATOM     18  C   UNL d   1     -42.724-122.298 -49.922  0.00  0.00     0.084 C 
BRANCH  18  19
ATOM     19  C   UNL d   1     -43.511-122.561 -49.855  0.00  0.00     0.019 C 
ATOM     20  C   UNL d   1     -44.137-122.010 -49.872  0.00  0.00     0.002 C 
ENDBRANCH  18  19
ENDBRANCH  13  18
ENDBRANCH  11  12
ENDBRANCH   1  11
TORSDOF 5
ENDMDL
MODEL 2
REMARK VINA RESULT:      -2.6      1.608      4.802
REMARK  5 active torsions:
REMARK  status: ('A' for Active; 'I' for Inactive)
REMARK    1  A    between atoms: C_14  and  N_1 
REMARK    2  A    between atoms: C_13  and  C_3 
REMARK    3  A    between atoms: C_4  and  S_11 
REMARK    4  A    between atoms: S_11  and  C_13 
REMARK    5  A    between atoms: C_15  and  C_14 
ROOT
ATOM      1  S   UNL d   1     -41.928-123.574 -50.244  0.00  0.00    -0.058 SA
ENDROOT
BRANCH   1   2
ATOM      2  C   UNL d   1     -41.904-123.515 -49.430  0.00  0.00     0.141 A 
ATOM      3  N   UNL d   1     -42.485-123.159 -48.960  0.00  0.00    -0.232 NA
ATOM      4  C   UNL d   1     -42.243-123.222 -48.180  0.00  0.00     0.088 A 
ATOM      5  C   UNL d   1     -42.574-122.980 -47.468  0.00  0.00     0.020 A 
ATOM      6  C   UNL d   1     -41.516-123.615 -48.173  0.00  0.00     0.049 A 
ATOM      7  C   UNL d   1     -42.202-123.119 -46.764  0.00  0.00     0.002 A 
ATOM      8  C   UNL d   1     -41.475-123.512 -46.757  0.00  0.00     0.001 A 
ATOM      9  C   UNL d   1     -41.125-123.763 -47.453  0.00  0.00     0.008 A 
ATOM     10  S   UNL d   1     -41.319-123.790 -48.948  0.00  0.00    -0.060 SA
ENDBRANCH   1   2
BRANCH   1  11
ATOM     11  C   UNL d   1     -41.532-123.010 -50.703  0.00  0.00     0.077 C 
BRANCH  11  12
ATOM     12  C   UNL d   1     -41.438-123.140 -51.508  0.00  0.00     0.178 A 
ATOM     13  N   UNL d   1     -41.510-122.522 -52.020  0.00  0.00    -0.264 N 
ATOM     14  C   UNL d   1     -41.388-122.822 -52.779  0.00  0.00     0.227 A 
ATOM     15  N   UNL d   1     -41.248-123.604 -52.705  0.00  0.00    -0.117 NA
ATOM     16  S   UNL d   1     -41.404-122.394 -53.535  0.00  0.00    -0.036 SA
ATOM     17  N   UNL d   1     -41.275-123.808 -51.943  0.00  0.00    -0.127 NA
BRANCH  13  18
ATOM     18  C   UNL d   1     -41.679-121.700 -51.850  0.00  0.00     0.084 C 
BRANCH  18  19
ATOM     19  C   UNL d   1     -41.153-121.116 -52.125  0.00  0.00     0.019 C 
ATOM     20  C   UNL d   1     -41.131-120.368 -51.756  0.00  0.00     0.002 C 
ENDBRANCH  18  19
ENDBRANCH  13  18
ENDBRANCH  11  12
ENDBRANCH   1  11
TORSDOF 5
ENDMDL
MODEL 3
REMARK VINA RESULT:      -2.5      1.180      4.429
REMARK  5 active torsions:
REMARK  status: ('A' for Active; 'I' for Inactive)
REMARK    1  A    between atoms: C_14  and  N_1 
REMARK    2  A    between atoms: C_13  and  C_3 
REMARK    3  A    between atoms: C_4  and  S_11 
REMARK    4  A    between atoms: S_11  and  C_13 
REMARK    5  A    between atoms: C_15  and  C_14 
ROOT
ATOM      1  S   UNL d   1     -41.268-123.365 -51.985  0.00  0.00    -0.058 SA
ENDROOT
BRANCH   1   2
ATOM      2  C   UNL d   1     -41.587-123.284 -51.238  0.00  0.00     0.141 A 
ATOM      3  N   UNL d   1     -42.324-123.576 -50.998  0.00  0.00    -0.232 NA
ATOM      4  C   UNL d   1     -42.425-123.374 -50.211  0.00  0.00     0.088 A 
ATOM      5  C   UNL d   1     -43.031-123.504 -49.671  0.00  0.00     0.020 A 
ATOM      6  C   UNL d   1     -41.752-122.959 -49.969  0.00  0.00     0.049 A 
ATOM      7  C   UNL d   1     -42.980-123.234 -48.911  0.00  0.00     0.002 A 
ATOM      8  C   UNL d   1     -42.307-122.819 -48.669  0.00  0.00     0.001 A 
ATOM      9  C   UNL d   1     -41.690-122.677 -49.188  0.00  0.00     0.008 A 
ATOM     10  S   UNL d   1     -41.245-122.911 -50.610  0.00  0.00    -0.060 SA
ENDBRANCH   1   2
BRANCH   1  11
ATOM     11  C   UNL d   1     -41.553-122.890 -52.601  0.00  0.00     0.077 C 
BRANCH  11  12
ATOM     12  C   UNL d   1     -41.423-123.119 -53.378  0.00  0.00     0.178 A 
ATOM     13  N   UNL d   1     -41.587-122.603 -53.975  0.00  0.00    -0.264 N 
ATOM     14  C   UNL d   1     -41.403-122.985 -54.682  0.00  0.00     0.227 A 
ATOM     15  N   UNL d   1     -41.136-123.714 -54.495  0.00  0.00    -0.117 NA
ATOM     16  S   UNL d   1     -41.475-122.680 -55.492  0.00  0.00    -0.036 SA
ATOM     17  N   UNL d   1     -41.143-123.806 -53.711  0.00  0.00    -0.127 NA
BRANCH  13  18
ATOM     18  C   UNL d   1     -41.894-121.804 -53.926  0.00  0.00     0.084 C 
BRANCH  18  19
ATOM     19  C   UNL d   1     -42.522-121.584 -54.426  0.00  0.00     0.019 C 
ATOM     20  C   UNL d   1     -42.961-120.893 -54.264  0.00  0.00     0.002 C 
ENDBRANCH  18  19
ENDBRANCH  13  18
ENDBRANCH  11  12
ENDBRANCH   1  11
TORSDOF 5
ENDMDL
