MODEL 1
REMARK VINA RESULT:      58.3      0.000      0.000
REMARK  7 active torsions:
REMARK  status: ('A' for Active; 'I' for Inactive)
REMARK    1  A    between atoms: C_2  and  S_1 
REMARK    2  A    between atoms: N_3  and  S_1 
REMARK    3  A    between atoms: C_15  and  N_3 
REMARK    4  A    between atoms: C_4  and  C_9 
REMARK       I    between atoms: N_5  and  C_4 
REMARK    5  A    between atoms: C_16  and  N_5 
REMARK    6  A    between atoms: C_18  and  C_15 
REMARK    7  A    between atoms: C_17  and  C_16 
ROOT
ATOM      1  C   UNL d   1     -48.178  29.102  34.867  0.00  0.00     0.058 A 
ATOM      2  C   UNL d   1     -48.675  29.048  34.194  0.00  0.00     0.005 A 
ATOM      3  C   UNL d   1     -48.171  28.486  35.414  0.00  0.00     0.005 A 
ATOM      4  C   UNL d   1     -49.135  27.775  34.635  0.00  0.00     0.020 A 
ATOM      5  C   UNL d   1     -49.144  28.388  34.088  0.00  0.00     0.002 A 
ATOM      6  C   UNL d   1     -48.647  27.822  35.302  0.00  0.00     0.002 A 
ENDROOT
BRANCH   4   7
ATOM      7  C   UNL d   1     -49.617  27.104  34.521  0.00  0.00     0.112 C 
BRANCH   7   8
ATOM      8  N   UNL d   1     -49.731  26.800  33.761  0.00  0.00    -0.157 NA
BRANCH   8   9
ATOM      9  S   UNL d   1     -50.170  26.099  33.653  0.00  0.00     0.285 S 
ATOM     10  O   UNL d   1     -49.466  25.655  33.675  0.00  0.00    -0.198 OA
ATOM     11  O   UNL d   1     -50.868  26.550  33.631  0.00  0.00    -0.198 OA
BRANCH   9  12
ATOM     12  C   UNL d   1     -50.611  25.404  33.545  0.00  0.00     0.106 A 
ATOM     13  C   UNL d   1     -51.433  25.432  33.517  0.00  0.00     0.024 A 
ATOM     14  C   UNL d   1     -51.867  24.739  33.410  0.00  0.00     0.059 A 
ATOM     15 CL   UNL d   1     -52.700  24.771  33.382  0.00  0.00    -0.082 Cl
ATOM     16  C   UNL d   1     -51.480  24.019  33.330  0.00  0.00     0.011 A 
ATOM     17  C   UNL d   1     -50.659  23.992  33.357  0.00  0.00     0.002 A 
ATOM     18  C   UNL d   1     -50.225  24.685  33.465  0.00  0.00     0.013 A 
ENDBRANCH   9  12
ENDBRANCH   8   9
ENDBRANCH   7   8
ENDBRANCH   4   7
BRANCH   1  19
ATOM     19  C   UNL d   1     -47.695  29.770  34.985  0.00  0.00     0.279 C 
ATOM     20  N   UNL d   1     -47.959  30.512  34.750  0.00  0.00    -0.205 NA
ATOM     21  O   UNL d   1     -46.945  29.687  35.341  0.00  0.00    -0.265 OA
BRANCH  20  22
ATOM     22  C   UNL d   1     -47.482  31.181  34.865  0.00  0.00     0.121 C 
BRANCH  22  23
ATOM     23  C   UNL d   1     -47.653  31.878  34.454  0.00  0.00     0.101 A 
ATOM     24  N   UNL d   1     -47.258  32.038  33.748  0.00  0.00    -0.242 NA
ATOM     25  C   UNL d   1     -47.433  32.733  33.344  0.00  0.00     0.099 A 
ATOM     26  C   UNL d   1     -47.991  33.262  33.635  0.00  0.00     0.021 A 
ATOM     27  C   UNL d   1     -48.383  33.090  34.348  0.00  0.00     0.003 A 
ATOM     28  C   UNL d   1     -48.209  32.392  34.755  0.00  0.00     0.021 A 
ENDBRANCH  22  23
ENDBRANCH  20  22
ENDBRANCH   1  19
TORSDOF 7
ENDMDL
MODEL 2
REMARK VINA RESULT:      60.5      2.354      6.675
REMARK  7 active torsions:
REMARK  status: ('A' for Active; 'I' for Inactive)
REMARK    1  A    between atoms: C_2  and  S_1 
REMARK    2  A    between atoms: N_3  and  S_1 
REMARK    3  A    between atoms: C_15  and  N_3 
REMARK    4  A    between atoms: C_4  and  C_9 
REMARK       I    between atoms: N_5  and  C_4 
REMARK    5  A    between atoms: C_16  and  N_5 
REMARK    6  A    between atoms: C_18  and  C_15 
REMARK    7  A    between atoms: C_17  and  C_16 
ROOT
ATOM      1  C   UNL d   1     -49.699  25.789  33.649  0.00  0.00     0.058 A 
ATOM      2  C   UNL d   1     -50.117  26.350  34.111  0.00  0.00     0.005 A 
ATOM      3  C   UNL d   1     -48.949  25.978  33.364  0.00  0.00     0.005 A 
ATOM      4  C   UNL d   1     -49.029  27.262  33.986  0.00  0.00     0.020 A 
ATOM      5  C   UNL d   1     -49.777  27.076  34.272  0.00  0.00     0.002 A 
ATOM      6  C   UNL d   1     -48.612  26.712  33.530  0.00  0.00     0.002 A 
ENDROOT
BRANCH   4   7
ATOM      7  C   UNL d   1     -48.690  28.004  34.155  0.00  0.00     0.112 C 
BRANCH   7   8
ATOM      8  N   UNL d   1     -48.673  28.286  34.932  0.00  0.00    -0.157 NA
BRANCH   8   9
ATOM      9  S   UNL d   1     -48.287  29.004  35.108  0.00  0.00     0.285 S 
ATOM     10  O   UNL d   1     -49.008  29.324  35.376  0.00  0.00    -0.198 OA
ATOM     11  O   UNL d   1     -47.573  28.676  34.839  0.00  0.00    -0.198 OA
BRANCH   9  12
ATOM     12  C   UNL d   1     -47.899  29.717  35.281  0.00  0.00     0.106 A 
ATOM     13  C   UNL d   1     -48.018  30.382  34.812  0.00  0.00     0.024 A 
ATOM     14  C   UNL d   1     -47.631  31.088  34.988  0.00  0.00     0.059 A 
ATOM     15 CL   UNL d   1     -47.755  31.760  34.510  0.00  0.00    -0.082 Cl
ATOM     16  C   UNL d   1     -47.125  31.130  35.633  0.00  0.00     0.011 A 
ATOM     17  C   UNL d   1     -47.005  30.465  36.102  0.00  0.00     0.002 A 
ATOM     18  C   UNL d   1     -47.393  29.759  35.926  0.00  0.00     0.013 A 
ENDBRANCH   9  12
ENDBRANCH   8   9
ENDBRANCH   7   8
ENDBRANCH   4   7
BRANCH   1  19
ATOM     19  C   UNL d   1     -50.035  25.046  33.478  0.00  0.00     0.279 C 
ATOM     20  N   UNL d   1     -50.852  24.957  33.479  0.00  0.00    -0.205 NA
ATOM     21  O   UNL d   1     -49.544  24.394  33.307  0.00  0.00    -0.265 OA
BRANCH  20  22
ATOM     22  C   UNL d   1     -51.191  24.219  33.309  0.00  0.00     0.121 C 
BRANCH  22  23
ATOM     23  C   UNL d   1     -52.003  24.109  33.425  0.00  0.00     0.101 A 
ATOM     24  N   UNL d   1     -52.325  23.356  33.331  0.00  0.00    -0.242 NA
ATOM     25  C   UNL d   1     -53.134  23.253  33.447  0.00  0.00     0.099 A 
ATOM     26  C   UNL d   1     -53.615  23.887  33.654  0.00  0.00     0.021 A 
ATOM     27  C   UNL d   1     -53.278  24.641  33.746  0.00  0.00     0.003 A 
ATOM     28  C   UNL d   1     -52.467  24.747  33.630  0.00  0.00     0.021 A 
ENDBRANCH  22  23
ENDBRANCH  20  22
ENDBRANCH   1  19
TORSDOF 7
ENDMDL
MODEL 3
REMARK VINA RESULT:      61.2      0.747      1.109
REMARK  7 active torsions:
REMARK  status: ('A' for Active; 'I' for Inactive)
REMARK    1  A    between atoms: C_2  and  S_1 
REMARK    2  A    between atoms: N_3  and  S_1 
REMARK    3  A    between atoms: C_15  and  N_3 
REMARK    4  A    between atoms: C_4  and  C_9 
REMARK       I    between atoms: N_5  and  C_4 
REMARK    5  A    between atoms: C_16  and  N_5 
REMARK    6  A    between atoms: C_18  and  C_15 
REMARK    7  A    between atoms: C_17  and  C_16 
ROOT
ATOM      1  C   UNL d   1     -48.668  28.990  34.604  0.00  0.00     0.058 A 
ATOM      2  C   UNL d   1     -48.598  28.205  34.892  0.00  0.00     0.005 A 
ATOM      3  C   UNL d   1     -49.151  29.140  33.953  0.00  0.00     0.005 A 
ATOM      4  C   UNL d   1     -49.489  27.754  33.877  0.00  0.00     0.020 A 
ATOM      5  C   UNL d   1     -49.008  27.601  34.525  0.00  0.00     0.002 A 
ATOM      6  C   UNL d   1     -49.563  28.526  33.588  0.00  0.00     0.002 A 
ENDROOT
BRANCH   4   7
ATOM      7  C   UNL d   1     -49.904  27.132  33.508  0.00  0.00     0.112 C 
BRANCH   7   8
ATOM      8  N   UNL d   1     -49.894  26.373  33.836  0.00  0.00    -0.157 NA
BRANCH   8   9
ATOM      9  S   UNL d   1     -50.536  25.856  33.714  0.00  0.00     0.285 S 
ATOM     10  O   UNL d   1     -50.128  25.255  34.123  0.00  0.00    -0.198 OA
ATOM     11  O   UNL d   1     -50.935  26.461  33.308  0.00  0.00    -0.198 OA
BRANCH   9  12
ATOM     12  C   UNL d   1     -51.177  25.344  33.590  0.00  0.00     0.106 A 
ATOM     13  C   UNL d   1     -51.056  24.534  33.515  0.00  0.00     0.024 A 
ATOM     14  C   UNL d   1     -51.696  24.029  33.392  0.00  0.00     0.059 A 
ATOM     15 CL   UNL d   1     -51.569  23.208  33.315  0.00  0.00    -0.082 Cl
ATOM     16  C   UNL d   1     -52.457  24.333  33.345  0.00  0.00     0.011 A 
ATOM     17  C   UNL d   1     -52.578  25.143  33.421  0.00  0.00     0.002 A 
ATOM     18  C   UNL d   1     -51.938  25.648  33.543  0.00  0.00     0.013 A 
ENDBRANCH   9  12
ENDBRANCH   8   9
ENDBRANCH   7   8
ENDBRANCH   4   7
BRANCH   1  19
ATOM     19  C   UNL d   1     -48.255  29.614  34.970  0.00  0.00     0.279 C 
ATOM     20  N   UNL d   1     -48.105  30.306  34.552  0.00  0.00    -0.205 NA
ATOM     21  O   UNL d   1     -47.993  29.537  35.758  0.00  0.00    -0.265 OA
BRANCH  20  22
ATOM     22  C   UNL d   1     -47.694  30.930  34.912  0.00  0.00     0.121 C 
BRANCH  22  23
ATOM     23  C   UNL d   1     -47.752  31.691  34.594  0.00  0.00     0.101 A 
ATOM     24  N   UNL d   1     -47.167  32.246  34.767  0.00  0.00    -0.242 NA
ATOM     25  C   UNL d   1     -47.230  33.002  34.447  0.00  0.00     0.099 A 
ATOM     26  C   UNL d   1     -47.863  33.205  33.963  0.00  0.00     0.021 A 
ATOM     27  C   UNL d   1     -48.447  32.636  33.796  0.00  0.00     0.003 A 
ATOM     28  C   UNL d   1     -48.386  31.877  34.116  0.00  0.00     0.021 A 
ENDBRANCH  22  23
ENDBRANCH  20  22
ENDBRANCH   1  19
TORSDOF 7
ENDMDL
