MODEL 1
REMARK VINA RESULT:      51.6      0.000      0.000
REMARK  5 active torsions:
REMARK  status: ('A' for Active; 'I' for Inactive)
REMARK    1  A    between atoms: C_7  and  N_2 
REMARK    2  A    between atoms: C_6  and  C_8 
REMARK       I    between atoms: N_9  and  C_6 
REMARK    3  A    between atoms: C_8  and  C_7 
REMARK    4  A    between atoms: C_11  and  N_9 
REMARK    5  A    between atoms: C_13  and  C_11 
ROOT
ATOM      1  C   UNL d   1     -50.420  26.135  33.985  0.00  0.00     0.080 C 
ENDROOT
BRANCH   1   2
ATOM      2  C   UNL d   1     -50.305  26.951  33.998  0.00  0.00     0.266 C 
ATOM      3  N   UNL d   1     -49.811  27.295  34.557  0.00  0.00    -0.270 N 
ATOM      4  C   UNL d   1     -49.423  26.816  35.115  0.00  0.00     0.102 C 
ATOM      5  O   UNL d   1     -50.690  27.429  33.444  0.00  0.00    -0.267 OA
BRANCH   3   6
ATOM      6  C   UNL d   1     -49.698  28.107  34.569  0.00  0.00     0.083 C 
BRANCH   6   7
ATOM      7  C   UNL d   1     -49.005  28.426  34.874  0.00  0.00     0.018 A 
ATOM      8  C   UNL d   1     -48.919  28.548  35.688  0.00  0.00     0.002 A 
ATOM      9  C   UNL d   1     -48.226  28.868  35.994  0.00  0.00     0.000 A 
ATOM     10  C   UNL d   1     -47.611  29.069  35.493  0.00  0.00     0.000 A 
ATOM     11  C   UNL d   1     -47.689  28.951  34.680  0.00  0.00     0.000 A 
ATOM     12  C   UNL d   1     -48.393  28.626  34.371  0.00  0.00     0.002 A 
ENDBRANCH   6   7
ENDBRANCH   3   6
ENDBRANCH   1   2
BRANCH   1  13
ATOM     13  C   UNL d   1     -50.908  25.791  33.421  0.00  0.00     0.090 C 
BRANCH  13  14
ATOM     14  N   UNL d   1     -50.986  24.972  33.382  0.00  0.00    -0.251 N 
ATOM     15  C   UNL d   1     -50.371  24.429  33.330  0.00  0.00     0.378 A 
ATOM     16  O   UNL d   1     -50.762  23.705  33.308  0.00  0.00    -0.258 OA
ATOM     17  O   UNL d   1     -49.566  24.610  33.306  0.00  0.00    -0.237 OA
ATOM     18  C   UNL d   1     -51.519  23.751  33.341  0.00  0.00     0.121 A 
ATOM     19  C   UNL d   1     -52.130  23.190  33.337  0.00  0.00     0.026 A 
ATOM     20  C   UNL d   1     -51.698  24.555  33.390  0.00  0.00     0.092 A 
ATOM     21  C   UNL d   1     -52.921  23.436  33.381  0.00  0.00     0.002 A 
ATOM     22  C   UNL d   1     -53.089  24.244  33.430  0.00  0.00     0.002 A 
ATOM     23  C   UNL d   1     -52.477  24.800  33.434  0.00  0.00     0.020 A 
ENDBRANCH  13  14
ENDBRANCH   1  13
TORSDOF 5
ENDMDL
