MODEL 1
REMARK VINA RESULT:      -8.9      0.000      0.000
REMARK  5 active torsions:
REMARK  status: ('A' for Active; 'I' for Inactive)
REMARK    1  A    between atoms: C_5  and  C_1 
REMARK    2  A    between atoms: O_8  and  C_2 
REMARK    3  A    between atoms: C_20  and  O_8 
REMARK    4  A    between atoms: C_11  and  O_14 
REMARK    5  A    between atoms: O_14  and  C_13 
ROOT
ATOM      1  C   UNL d   1     -48.446  14.617  22.932  0.00  0.00     0.197 A 
ATOM      2  C   UNL d   1     -48.759  13.907  23.217  0.00  0.00     0.165 A 
ATOM      3  O   UNL d   1     -47.659  14.661  22.751  0.00  0.00    -0.301 OA
ATOM      4  C   UNL d   1     -48.277  13.246  23.317  0.00  0.00     0.222 A 
ATOM      5  C   UNL d   1     -47.170  14.008  22.847  0.00  0.00     0.105 A 
ATOM      6  C   UNL d   1     -47.484  13.298  23.132  0.00  0.00     0.064 A 
ATOM      7  C   UNL d   1     -46.369  14.053  22.662  0.00  0.00     0.050 A 
ATOM      8  C   UNL d   1     -46.990  12.638  23.229  0.00  0.00     0.007 A 
ATOM      9  O   UNL d   1     -48.588  12.543  23.599  0.00  0.00    -0.284 OA
ATOM     10  C   UNL d   1     -45.890  13.411  22.757  0.00  0.00     0.105 A 
ATOM     11  C   UNL d   1     -46.200  12.701  23.041  0.00  0.00     0.025 A 
ENDROOT
BRANCH   2  12
ATOM     12  O   UNL d   1     -49.568  13.839  23.411  0.00  0.00    -0.302 OA
BRANCH  12  13
ATOM     13  C   UNL d   1     -50.064  13.345  22.979  0.00  0.00     0.100 A 
ATOM     14  C   UNL d   1     -50.105  13.407  22.162  0.00  0.00     0.025 A 
ATOM     15  C   UNL d   1     -50.604  12.911  21.731  0.00  0.00     0.002 A 
ATOM     16  C   UNL d   1     -51.064  12.348  22.124  0.00  0.00     0.000 A 
ATOM     17  C   UNL d   1     -51.028  12.279  22.953  0.00  0.00     0.002 A 
ATOM     18  C   UNL d   1     -50.527  12.778  23.382  0.00  0.00     0.025 A 
ENDBRANCH  12  13
ENDBRANCH   2  12
BRANCH   1  19
ATOM     19  C   UNL d   1     -48.919  15.272  22.832  0.00  0.00     0.442 C 
ATOM     20  F   UNL d   1     -49.379  15.922  22.657  0.00  0.00    -0.164 F 
ATOM     21  F   UNL d   1     -49.316  15.677  23.510  0.00  0.00    -0.164 F 
ATOM     22  F   UNL d   1     -48.996  15.511  22.108  0.00  0.00    -0.164 F 
ENDBRANCH   1  19
BRANCH  10  23
ATOM     23  O   UNL d   1     -45.056  13.470  22.560  0.00  0.00    -0.273 OA
BRANCH  23  24
ATOM     24  C   UNL d   1     -44.692  12.850  22.154  0.00  0.00     0.300 C 
ATOM     25  O   UNL d   1     -44.472  12.143  22.564  0.00  0.00    -0.259 OA
ATOM     26  C   UNL d   1     -44.546  12.923  21.355  0.00  0.00     0.074 C 
ENDBRANCH  23  24
ENDBRANCH  10  23
TORSDOF 5
ENDMDL
MODEL 2
REMARK VINA RESULT:      -8.6      1.654      2.333
REMARK  5 active torsions:
REMARK  status: ('A' for Active; 'I' for Inactive)
REMARK    1  A    between atoms: C_5  and  C_1 
REMARK    2  A    between atoms: O_8  and  C_2 
REMARK    3  A    between atoms: C_20  and  O_8 
REMARK    4  A    between atoms: C_11  and  O_14 
REMARK    5  A    between atoms: O_14  and  C_13 
ROOT
ATOM      1  C   UNL d   1     -48.954  12.688  22.323  0.00  0.00     0.197 A 
ATOM      2  C   UNL d   1     -48.885  13.511  22.354  0.00  0.00     0.165 A 
ATOM      3  O   UNL d   1     -48.342  12.227  22.582  0.00  0.00    -0.301 OA
ATOM      4  C   UNL d   1     -48.200  13.864  22.646  0.00  0.00     0.222 A 
ATOM      5  C   UNL d   1     -47.655  12.569  22.875  0.00  0.00     0.105 A 
ATOM      6  C   UNL d   1     -47.587  13.393  22.906  0.00  0.00     0.064 A 
ATOM      7  C   UNL d   1     -47.033  12.099  23.138  0.00  0.00     0.050 A 
ATOM      8  C   UNL d   1     -46.893  13.738  23.202  0.00  0.00     0.007 A 
ATOM      9  O   UNL d   1     -48.133  14.679  22.677  0.00  0.00    -0.284 OA
ATOM     10  C   UNL d   1     -46.358  12.436  23.426  0.00  0.00     0.105 A 
ATOM     11  C   UNL d   1     -46.287  13.257  23.458  0.00  0.00     0.025 A 
ENDROOT
BRANCH   2  12
ATOM     12  O   UNL d   1     -49.504  14.007  22.092  0.00  0.00    -0.302 OA
BRANCH  12  13
ATOM     13  C   UNL d   1     -49.903  14.497  22.620  0.00  0.00     0.100 A 
ATOM     14  C   UNL d   1     -50.479  14.192  23.116  0.00  0.00     0.025 A 
ATOM     15  C   UNL d   1     -50.877  14.685  23.644  0.00  0.00     0.002 A 
ATOM     16  C   UNL d   1     -50.694  15.491  23.673  0.00  0.00     0.000 A 
ATOM     17  C   UNL d   1     -50.110  15.807  23.172  0.00  0.00     0.002 A 
ATOM     18  C   UNL d   1     -49.713  15.310  22.644  0.00  0.00     0.025 A 
ENDBRANCH  12  13
ENDBRANCH   2  12
BRANCH   1  19
ATOM     19  C   UNL d   1     -49.629  12.336  22.035  0.00  0.00     0.442 C 
ATOM     20  F   UNL d   1     -50.285  12.010  21.677  0.00  0.00    -0.164 F 
ATOM     21  F   UNL d   1     -50.192  11.895  22.553  0.00  0.00    -0.164 F 
ATOM     22  F   UNL d   1     -49.742  12.416  21.280  0.00  0.00    -0.164 F 
ENDBRANCH   1  19
BRANCH  10  23
ATOM     23  O   UNL d   1     -45.716  11.936  23.698  0.00  0.00    -0.273 OA
BRANCH  23  24
ATOM     24  C   UNL d   1     -45.155  11.666  23.154  0.00  0.00     0.300 C 
ATOM     25  O   UNL d   1     -44.781  12.210  22.624  0.00  0.00    -0.259 OA
ATOM     26  C   UNL d   1     -44.966  10.874  23.130  0.00  0.00     0.074 C 
ENDBRANCH  23  24
ENDBRANCH  10  23
TORSDOF 5
ENDMDL
MODEL 3
REMARK VINA RESULT:      -7.9      1.701      2.157
REMARK  5 active torsions:
REMARK  status: ('A' for Active; 'I' for Inactive)
REMARK    1  A    between atoms: C_5  and  C_1 
REMARK    2  A    between atoms: O_8  and  C_2 
REMARK    3  A    between atoms: C_20  and  O_8 
REMARK    4  A    between atoms: C_11  and  O_14 
REMARK    5  A    between atoms: O_14  and  C_13 
ROOT
ATOM      1  C   UNL d   1     -48.624  12.356  22.946  0.00  0.00     0.197 A 
ATOM      2  C   UNL d   1     -48.824  13.149  23.065  0.00  0.00     0.165 A 
ATOM      3  O   UNL d   1     -47.853  12.156  22.812  0.00  0.00    -0.301 OA
ATOM      4  C   UNL d   1     -48.245  13.735  23.050  0.00  0.00     0.222 A 
ATOM      5  C   UNL d   1     -47.267  12.732  22.795  0.00  0.00     0.105 A 
ATOM      6  C   UNL d   1     -47.469  13.525  22.915  0.00  0.00     0.064 A 
ATOM      7  C   UNL d   1     -46.482  12.528  22.659  0.00  0.00     0.050 A 
ATOM      8  C   UNL d   1     -46.878  14.108  22.897  0.00  0.00     0.007 A 
ATOM      9  O   UNL d   1     -48.444  14.520  23.168  0.00  0.00    -0.284 OA
ATOM     10  C   UNL d   1     -45.908  13.095  22.642  0.00  0.00     0.105 A 
ATOM     11  C   UNL d   1     -46.105  13.887  22.761  0.00  0.00     0.025 A 
ENDROOT
BRANCH   2  12
ATOM     12  O   UNL d   1     -49.615  13.379  23.205  0.00  0.00    -0.302 OA
BRANCH  12  13
ATOM     13  C   UNL d   1     -50.024  13.835  22.655  0.00  0.00     0.100 A 
ATOM     14  C   UNL d   1     -50.054  13.610  21.868  0.00  0.00     0.025 A 
ATOM     15  C   UNL d   1     -50.465  14.069  21.319  0.00  0.00     0.002 A 
ATOM     16  C   UNL d   1     -50.849  14.759  21.565  0.00  0.00     0.000 A 
ATOM     17  C   UNL d   1     -50.822  14.993  22.362  0.00  0.00     0.002 A 
ATOM     18  C   UNL d   1     -50.410  14.531  22.910  0.00  0.00     0.025 A 
ENDBRANCH  12  13
ENDBRANCH   2  12
BRANCH   1  19
ATOM     19  C   UNL d   1     -49.194  11.775  22.961  0.00  0.00     0.442 C 
ATOM     20  F   UNL d   1     -49.763  11.198  23.052  0.00  0.00    -0.164 F 
ATOM     21  F   UNL d   1     -49.523  11.414  22.224  0.00  0.00    -0.164 F 
ATOM     22  F   UNL d   1     -49.426  11.563  23.661  0.00  0.00    -0.164 F 
ENDBRANCH   1  19
BRANCH  10  23
ATOM     23  O   UNL d   1     -45.092  12.870  22.499  0.00  0.00    -0.273 OA
BRANCH  23  24
ATOM     24  C   UNL d   1     -44.779  12.945  21.738  0.00  0.00     0.300 C 
ATOM     25  O   UNL d   1     -45.188  12.613  21.076  0.00  0.00    -0.259 OA
ATOM     26  C   UNL d   1     -44.074  13.339  21.629  0.00  0.00     0.074 C 
ENDBRANCH  23  24
ENDBRANCH  10  23
TORSDOF 5
ENDMDL
MODEL 4
REMARK VINA RESULT:      -7.3      0.969      1.263
REMARK  5 active torsions:
REMARK  status: ('A' for Active; 'I' for Inactive)
REMARK    1  A    between atoms: C_5  and  C_1 
REMARK    2  A    between atoms: O_8  and  C_2 
REMARK    3  A    between atoms: C_20  and  O_8 
REMARK    4  A    between atoms: C_11  and  O_14 
REMARK    5  A    between atoms: O_14  and  C_13 
ROOT
ATOM      1  C   UNL d   1     -47.323  13.976  22.744  0.00  0.00     0.197 A 
ATOM      2  C   UNL d   1     -47.679  13.347  23.145  0.00  0.00     0.165 A 
ATOM      3  O   UNL d   1     -46.554  13.911  22.503  0.00  0.00    -0.301 OA
ATOM      4  C   UNL d   1     -47.258  12.656  23.299  0.00  0.00     0.222 A 
ATOM      5  C   UNL d   1     -46.125  13.225  22.652  0.00  0.00     0.105 A 
ATOM      6  C   UNL d   1     -46.483  12.597  23.053  0.00  0.00     0.064 A 
ATOM      7  C   UNL d   1     -45.343  13.159  22.406  0.00  0.00     0.050 A 
ATOM      8  C   UNL d   1     -46.050  11.905  23.204  0.00  0.00     0.007 A 
ATOM      9  O   UNL d   1     -47.612  12.033  23.696  0.00  0.00    -0.284 OA
ATOM     10  C   UNL d   1     -44.923  12.485  22.554  0.00  0.00     0.105 A 
ATOM     11  C   UNL d   1     -45.276  11.856  22.953  0.00  0.00     0.025 A 
ENDROOT
BRANCH   2  12
ATOM     12  O   UNL d   1     -48.472  13.393  23.403  0.00  0.00    -0.302 OA
BRANCH  12  13
ATOM     13  C   UNL d   1     -49.047  12.896  23.087  0.00  0.00     0.100 A 
ATOM     14  C   UNL d   1     -49.117  12.805  22.276  0.00  0.00     0.025 A 
ATOM     15  C   UNL d   1     -49.695  12.306  21.962  0.00  0.00     0.002 A 
ATOM     16  C   UNL d   1     -50.205  11.897  22.468  0.00  0.00     0.000 A 
ATOM     17  C   UNL d   1     -50.139  11.985  23.293  0.00  0.00     0.002 A 
ATOM     18  C   UNL d   1     -49.559  12.486  23.604  0.00  0.00     0.025 A 
ENDBRANCH  12  13
ENDBRANCH   2  12
BRANCH   1  19
ATOM     19  C   UNL d   1     -47.736  14.660  22.590  0.00  0.00     0.442 C 
ATOM     20  F   UNL d   1     -48.141  15.330  22.360  0.00  0.00    -0.164 F 
ATOM     21  F   UNL d   1     -48.047  15.182  23.232  0.00  0.00    -0.164 F 
ATOM     22  F   UNL d   1     -47.836  14.820  21.846  0.00  0.00    -0.164 F 
ENDBRANCH   1  19
BRANCH  10  23
ATOM     23  O   UNL d   1     -44.107  12.427  22.293  0.00  0.00    -0.273 OA
BRANCH  23  24
ATOM     24  C   UNL d   1     -43.902  12.709  21.544  0.00  0.00     0.300 C 
ATOM     25  O   UNL d   1     -44.360  12.492  20.866  0.00  0.00    -0.259 OA
ATOM     26  C   UNL d   1     -43.255  13.198  21.461  0.00  0.00     0.074 C 
ENDBRANCH  23  24
ENDBRANCH  10  23
TORSDOF 5
ENDMDL
MODEL 5
REMARK VINA RESULT:      -6.6      7.738      9.538
REMARK  5 active torsions:
REMARK  status: ('A' for Active; 'I' for Inactive)
REMARK    1  A    between atoms: C_5  and  C_1 
REMARK    2  A    between atoms: O_8  and  C_2 
REMARK    3  A    between atoms: C_20  and  O_8 
REMARK    4  A    between atoms: C_11  and  O_14 
REMARK    5  A    between atoms: O_14  and  C_13 
ROOT
ATOM      1  C   UNL d   1     -40.633  15.423  20.314  0.00  0.00     0.197 A 
ATOM      2  C   UNL d   1     -39.922  15.590  20.700  0.00  0.00     0.165 A 
ATOM      3  O   UNL d   1     -40.658  15.424  19.506  0.00  0.00    -0.301 OA
ATOM      4  C   UNL d   1     -39.239  15.757  20.269  0.00  0.00     0.222 A 
ATOM      5  C   UNL d   1     -39.983  15.589  19.067  0.00  0.00     0.105 A 
ATOM      6  C   UNL d   1     -39.271  15.756  19.454  0.00  0.00     0.064 A 
ATOM      7  C   UNL d   1     -40.008  15.589  18.244  0.00  0.00     0.050 A 
ATOM      8  C   UNL d   1     -38.590  15.922  19.011  0.00  0.00     0.007 A 
ATOM      9  O   UNL d   1     -38.535  15.922  20.652  0.00  0.00    -0.284 OA
ATOM     10  C   UNL d   1     -39.345  15.751  17.814  0.00  0.00     0.105 A 
ATOM     11  C   UNL d   1     -38.634  15.918  18.197  0.00  0.00     0.025 A 
ENDROOT
BRANCH   2  12
ATOM     12  O   UNL d   1     -39.873  15.595  21.534  0.00  0.00    -0.302 OA
BRANCH  12  13
ATOM     13  C   UNL d   1     -39.418  15.037  21.932  0.00  0.00     0.100 A 
ATOM     14  C   UNL d   1     -39.463  14.243  21.732  0.00  0.00     0.025 A 
ATOM     15  C   UNL d   1     -39.006  13.686  22.133  0.00  0.00     0.002 A 
ATOM     16  C   UNL d   1     -38.500  13.929  22.740  0.00  0.00     0.000 A 
ATOM     17  C   UNL d   1     -38.449  14.733  22.949  0.00  0.00     0.002 A 
ATOM     18  C   UNL d   1     -38.909  15.289  22.545  0.00  0.00     0.025 A 
ENDBRANCH  12  13
ENDBRANCH   2  12
BRANCH   1  19
ATOM     19  C   UNL d   1     -41.309  15.258  20.737  0.00  0.00     0.442 C 
ATOM     20  F   UNL d   1     -41.991  15.169  21.175  0.00  0.00    -0.164 F 
ATOM     21  F   UNL d   1     -41.624  14.438  20.826  0.00  0.00    -0.164 F 
ATOM     22  F   UNL d   1     -41.652  15.867  21.054  0.00  0.00    -0.164 F 
ENDBRANCH   1  19
BRANCH  10  23
ATOM     23  O   UNL d   1     -39.383  15.749  16.956  0.00  0.00    -0.273 OA
BRANCH  23  24
ATOM     24  C   UNL d   1     -39.085  15.101  16.540  0.00  0.00     0.300 C 
ATOM     25  O   UNL d   1     -39.484  14.355  16.573  0.00  0.00    -0.259 OA
ATOM     26  C   UNL d   1     -38.406  15.183  16.098  0.00  0.00     0.074 C 
ENDBRANCH  23  24
ENDBRANCH  10  23
TORSDOF 5
ENDMDL
MODEL 6
REMARK VINA RESULT:      -6.2      2.000      4.509
REMARK  5 active torsions:
REMARK  status: ('A' for Active; 'I' for Inactive)
REMARK    1  A    between atoms: C_5  and  C_1 
REMARK    2  A    between atoms: O_8  and  C_2 
REMARK    3  A    between atoms: C_20  and  O_8 
REMARK    4  A    between atoms: C_11  and  O_14 
REMARK    5  A    between atoms: O_14  and  C_13 
ROOT
ATOM      1  C   UNL d   1     -47.806  12.402  23.002  0.00  0.00     0.197 A 
ATOM      2  C   UNL d   1     -47.161  12.893  23.162  0.00  0.00     0.165 A 
ATOM      3  O   UNL d   1     -48.524  12.730  22.828  0.00  0.00    -0.301 OA
ATOM      4  C   UNL d   1     -47.244  13.713  23.146  0.00  0.00     0.222 A 
ATOM      5  C   UNL d   1     -48.617  13.547  22.809  0.00  0.00     0.105 A 
ATOM      6  C   UNL d   1     -47.971  14.037  22.970  0.00  0.00     0.064 A 
ATOM      7  C   UNL d   1     -49.348  13.881  22.632  0.00  0.00     0.050 A 
ATOM      8  C   UNL d   1     -48.065  14.862  22.951  0.00  0.00     0.007 A 
ATOM      9  O   UNL d   1     -46.604  14.198  23.305  0.00  0.00    -0.284 OA
ATOM     10  C   UNL d   1     -49.438  14.683  22.614  0.00  0.00     0.105 A 
ATOM     11  C   UNL d   1     -48.796  15.175  22.774  0.00  0.00     0.025 A 
ENDROOT
BRANCH   2  12
ATOM     12  O   UNL d   1     -46.411  12.575  23.344  0.00  0.00    -0.302 OA
BRANCH  12  13
ATOM     13  C   UNL d   1     -45.784  12.646  22.816  0.00  0.00     0.100 A 
ATOM     14  C   UNL d   1     -45.806  13.205  22.217  0.00  0.00     0.025 A 
ATOM     15  C   UNL d   1     -45.176  13.274  21.688  0.00  0.00     0.002 A 
ATOM     16  C   UNL d   1     -44.520  12.776  21.763  0.00  0.00     0.000 A 
ATOM     17  C   UNL d   1     -44.491  12.207  22.369  0.00  0.00     0.002 A 
ATOM     18  C   UNL d   1     -45.124  12.141  22.897  0.00  0.00     0.025 A 
ENDBRANCH  12  13
ENDBRANCH   2  12
BRANCH   1  19
ATOM     19  C   UNL d   1     -47.728  11.591  23.017  0.00  0.00     0.442 C 
ATOM     20  F   UNL d   1     -47.668  10.783  23.107  0.00  0.00    -0.164 F 
ATOM     21  F   UNL d   1     -47.507  11.123  22.301  0.00  0.00    -0.164 F 
ATOM     22  F   UNL d   1     -47.860  11.263  23.698  0.00  0.00    -0.164 F 
ENDBRANCH   1  19
BRANCH  10  23
ATOM     23  O   UNL d   1     -50.205  15.021  22.428  0.00  0.00    -0.273 OA
BRANCH  23  24
ATOM     24  C   UNL d   1     -50.748  15.149  23.037  0.00  0.00     0.300 C 
ATOM     25  O   UNL d   1     -51.064  14.495  23.470  0.00  0.00    -0.259 OA
ATOM     26  C   UNL d   1     -50.978  15.910  23.218  0.00  0.00     0.074 C 
ENDBRANCH  23  24
ENDBRANCH  10  23
TORSDOF 5
ENDMDL
MODEL 7
REMARK VINA RESULT:      -6.0      9.359     10.377
REMARK  5 active torsions:
REMARK  status: ('A' for Active; 'I' for Inactive)
REMARK    1  A    between atoms: C_5  and  C_1 
REMARK    2  A    between atoms: O_8  and  C_2 
REMARK    3  A    between atoms: C_20  and  O_8 
REMARK    4  A    between atoms: C_11  and  O_14 
REMARK    5  A    between atoms: O_14  and  C_13 
ROOT
ATOM      1  C   UNL d   1     -38.579  13.756  18.353  0.00  0.00     0.197 A 
ATOM      2  C   UNL d   1     -38.756  14.550  18.209  0.00  0.00     0.165 A 
ATOM      3  O   UNL d   1     -38.415  13.515  19.107  0.00  0.00    -0.301 OA
ATOM      4  C   UNL d   1     -38.767  15.096  18.826  0.00  0.00     0.222 A 
ATOM      5  C   UNL d   1     -38.423  14.051  19.729  0.00  0.00     0.105 A 
ATOM      6  C   UNL d   1     -38.601  14.846  19.584  0.00  0.00     0.064 A 
ATOM      7  C   UNL d   1     -38.256  13.805  20.497  0.00  0.00     0.050 A 
ATOM      8  C   UNL d   1     -38.610  15.388  20.212  0.00  0.00     0.007 A 
ATOM      9  O   UNL d   1     -38.944  15.883  18.682  0.00  0.00    -0.284 OA
ATOM     10  C   UNL d   1     -38.265  14.333  21.107  0.00  0.00     0.105 A 
ATOM     11  C   UNL d   1     -38.442  15.127  20.966  0.00  0.00     0.025 A 
ENDROOT
BRANCH   2  12
ATOM     12  O   UNL d   1     -38.929  14.821  17.438  0.00  0.00    -0.302 OA
BRANCH  12  13
ATOM     13  C   UNL d   1     -39.688  15.070  17.240  0.00  0.00     0.100 A 
ATOM     14  C   UNL d   1     -40.343  14.738  17.603  0.00  0.00     0.025 A 
ATOM     15  C   UNL d   1     -41.102  14.989  17.401  0.00  0.00     0.002 A 
ATOM     16  C   UNL d   1     -41.203  15.580  16.831  0.00  0.00     0.000 A 
ATOM     17  C   UNL d   1     -40.543  15.922  16.459  0.00  0.00     0.002 A 
ATOM     18  C   UNL d   1     -39.783  15.667  16.663  0.00  0.00     0.025 A 
ENDBRANCH  12  13
ENDBRANCH   2  12
BRANCH   1  19
ATOM     19  C   UNL d   1     -38.567  13.214  17.746  0.00  0.00     0.442 C 
ATOM     20  F   UNL d   1     -38.617  12.639  17.170  0.00  0.00    -0.164 F 
ATOM     21  F   UNL d   1     -37.961  13.235  17.103  0.00  0.00    -0.164 F 
ATOM     22  F   UNL d   1     -39.120  12.683  17.771  0.00  0.00    -0.164 F 
ENDBRANCH   1  19
BRANCH  10  23
ATOM     23  O   UNL d   1     -38.089  14.066  21.904  0.00  0.00    -0.273 OA
BRANCH  23  24
ATOM     24  C   UNL d   1     -38.703  13.997  22.452  0.00  0.00     0.300 C 
ATOM     25  O   UNL d   1     -39.279  13.382  22.371  0.00  0.00    -0.259 OA
ATOM     26  C   UNL d   1     -38.751  14.525  23.071  0.00  0.00     0.074 C 
ENDBRANCH  23  24
ENDBRANCH  10  23
TORSDOF 5
ENDMDL
