MODEL 1
REMARK VINA RESULT:      -2.4      0.000      0.000
REMARK  2 active torsions:
REMARK  status: ('A' for Active; 'I' for Inactive)
REMARK    1  A    between atoms: C_5  and  CA_2 
REMARK    2  A    between atoms: C_4  and  CA_3 
ROOT
ATOM      1  N   UNL d   1      29.690  16.442 -24.011  0.00  0.00    -0.233 NA
ATOM      2  CA  UNL d   1      29.184  16.016 -23.518  0.00  0.00     0.146 A 
ATOM      3  CA  UNL d   1      30.504  16.380 -23.928  0.00  0.00     0.146 A 
ATOM      4  C   UNL d   1      30.823  15.885 -23.341  0.00  0.00     0.025 A 
ATOM      5  C   UNL d   1      29.504  15.520 -22.931  0.00  0.00     0.025 A 
ATOM      6  C   UNL d   1      30.326  15.454 -22.843  0.00  0.00     0.004 A 
ENDROOT
BRANCH   2   7
ATOM      7  C   UNL d   1      28.367  16.076 -23.600  0.00  0.00     0.229 C 
ATOM      8  O   UNL d   1      27.967  16.739 -23.320  0.00  0.00    -0.643 OA
ATOM      9  OXT UNL d   1      27.912  15.489 -23.960  0.00  0.00    -0.643 OA
ENDBRANCH   2   7
BRANCH   3  10
ATOM     10  C   UNL d   1      31.005  16.805 -24.420  0.00  0.00     0.229 C 
ATOM     11  O   UNL d   1      31.149  17.605 -24.312  0.00  0.00    -0.643 OA
ATOM     12  OXT UNL d   1      31.398  16.440 -25.065  0.00  0.00    -0.643 OA
ENDBRANCH   3  10
TORSDOF 2
ENDMDL
MODEL 2
REMARK VINA RESULT:      -2.4      0.941      1.521
REMARK  2 active torsions:
REMARK  status: ('A' for Active; 'I' for Inactive)
REMARK    1  A    between atoms: C_5  and  CA_2 
REMARK    2  A    between atoms: C_4  and  CA_3 
ROOT
ATOM      1  N   UNL d   1      29.809  16.350 -23.844  0.00  0.00    -0.233 NA
ATOM      2  CA  UNL d   1      29.065  16.631 -24.064  0.00  0.00     0.146 A 
ATOM      3  CA  UNL d   1      30.489  16.663 -24.180  0.00  0.00     0.146 A 
ATOM      4  C   UNL d   1      30.429  17.268 -24.748  0.00  0.00     0.025 A 
ATOM      5  C   UNL d   1      29.006  17.237 -24.631  0.00  0.00     0.025 A 
ATOM      6  C   UNL d   1      29.690  17.556 -24.974  0.00  0.00     0.004 A 
ENDROOT
BRANCH   2   7
ATOM      7  C   UNL d   1      28.381  16.319 -23.727  0.00  0.00     0.229 C 
ATOM      8  O   UNL d   1      27.934  16.766 -23.200  0.00  0.00    -0.643 OA
ATOM      9  OXT UNL d   1      28.112  15.557 -23.894  0.00  0.00    -0.643 OA
ENDBRANCH   2   7
BRANCH   3  10
ATOM     10  C   UNL d   1      31.228  16.382 -23.960  0.00  0.00     0.229 C 
ATOM     11  O   UNL d   1      31.570  15.726 -24.314  0.00  0.00    -0.643 OA
ATOM     12  OXT UNL d   1      31.676  16.754 -23.356  0.00  0.00    -0.643 OA
ENDBRANCH   3  10
TORSDOF 2
ENDMDL
MODEL 3
REMARK VINA RESULT:      -2.3      0.086      2.592
REMARK  2 active torsions:
REMARK  status: ('A' for Active; 'I' for Inactive)
REMARK    1  A    between atoms: C_5  and  CA_2 
REMARK    2  A    between atoms: C_4  and  CA_3 
ROOT
ATOM      1  N   UNL d   1      29.686  16.393 -24.046  0.00  0.00    -0.233 NA
ATOM      2  CA  UNL d   1      30.507  16.347 -23.978  0.00  0.00     0.146 A 
ATOM      3  CA  UNL d   1      29.201  15.977 -23.531  0.00  0.00     0.146 A 
ATOM      4  C   UNL d   1      29.538  15.505 -22.935  0.00  0.00     0.025 A 
ATOM      5  C   UNL d   1      30.844  15.875 -23.382  0.00  0.00     0.025 A 
ATOM      6  C   UNL d   1      30.358  15.453 -22.859  0.00  0.00     0.004 A 
ENDROOT
BRANCH   2   7
ATOM      7  C   UNL d   1      30.996  16.764 -24.494  0.00  0.00     0.229 C 
ATOM      8  O   UNL d   1      31.398  16.371 -25.096  0.00  0.00    -0.643 OA
ATOM      9  OXT UNL d   1      31.107  17.579 -24.439  0.00  0.00    -0.643 OA
ENDBRANCH   2   7
BRANCH   3  10
ATOM     10  C   UNL d   1      28.385  16.024 -23.601  0.00  0.00     0.229 C 
ATOM     11  O   UNL d   1      27.947  16.606 -23.224  0.00  0.00    -0.643 OA
ATOM     12  OXT UNL d   1      27.953  15.476 -24.065  0.00  0.00    -0.643 OA
ENDBRANCH   3  10
TORSDOF 2
ENDMDL
MODEL 4
REMARK VINA RESULT:      -2.2      6.373      7.332
REMARK  2 active torsions:
REMARK  status: ('A' for Active; 'I' for Inactive)
REMARK    1  A    between atoms: C_5  and  CA_2 
REMARK    2  A    between atoms: C_4  and  CA_3 
ROOT
ATOM      1  N   UNL d   1      32.538  22.049 -21.090  0.00  0.00    -0.233 NA
ATOM      2  CA  UNL d   1      32.499  22.853 -21.272  0.00  0.00     0.146 A 
ATOM      3  CA  UNL d   1      32.905  21.523 -21.602  0.00  0.00     0.146 A 
ATOM      4  C   UNL d   1      33.241  21.801 -22.310  0.00  0.00     0.025 A 
ATOM      5  C   UNL d   1      32.835  23.131 -21.980  0.00  0.00     0.025 A 
ATOM      6  C   UNL d   1      33.208  22.603 -22.501  0.00  0.00     0.004 A 
ENDROOT
BRANCH   2   7
ATOM      7  C   UNL d   1      32.131  23.383 -20.759  0.00  0.00     0.229 C 
ATOM      8  O   UNL d   1      31.353  23.617 -20.890  0.00  0.00    -0.643 OA
ATOM      9  OXT UNL d   1      32.512  23.701 -20.101  0.00  0.00    -0.643 OA
ENDBRANCH   2   7
BRANCH   3  10
ATOM     10  C   UNL d   1      32.942  20.724 -21.419  0.00  0.00     0.229 C 
ATOM     11  O   UNL d   1      32.867  20.140 -21.990  0.00  0.00    -0.643 OA
ATOM     12  OXT UNL d   1      33.059  20.460 -20.632  0.00  0.00    -0.643 OA
ENDBRANCH   3  10
TORSDOF 2
ENDMDL
MODEL 5
REMARK VINA RESULT:      -2.1      1.696      2.178
REMARK  2 active torsions:
REMARK  status: ('A' for Active; 'I' for Inactive)
REMARK    1  A    between atoms: C_5  and  CA_2 
REMARK    2  A    between atoms: C_4  and  CA_3 
ROOT
ATOM      1  N   UNL d   1      31.421  16.829 -23.524  0.00  0.00    -0.233 NA
ATOM      2  CA  UNL d   1      31.218  16.030 -23.500  0.00  0.00     0.146 A 
ATOM      3  CA  UNL d   1      32.209  17.059 -23.524  0.00  0.00     0.146 A 
ATOM      4  C   UNL d   1      32.808  16.482 -23.501  0.00  0.00     0.025 A 
ATOM      5  C   UNL d   1      31.817  15.453 -23.477  0.00  0.00     0.025 A 
ATOM      6  C   UNL d   1      32.615  15.680 -23.478  0.00  0.00     0.004 A 
ENDROOT
BRANCH   2   7
ATOM      7  C   UNL d   1      30.427  15.797 -23.500  0.00  0.00     0.229 C 
ATOM      8  O   UNL d   1      30.046  15.619 -22.792  0.00  0.00    -0.643 OA
ATOM      9  OXT UNL d   1      29.983  15.730 -24.191  0.00  0.00    -0.643 OA
ENDBRANCH   2   7
BRANCH   3  10
ATOM     10  C   UNL d   1      32.409  17.854 -23.547  0.00  0.00     0.229 C 
ATOM     11  O   UNL d   1      32.392  18.289 -24.242  0.00  0.00    -0.643 OA
ATOM     12  OXT UNL d   1      32.644  18.267 -22.856  0.00  0.00    -0.643 OA
ENDBRANCH   3  10
TORSDOF 2
ENDMDL
MODEL 6
REMARK VINA RESULT:       0.2      1.729      3.195
REMARK  2 active torsions:
REMARK  status: ('A' for Active; 'I' for Inactive)
REMARK    1  A    between atoms: C_5  and  CA_2 
REMARK    2  A    between atoms: C_4  and  CA_3 
ROOT
ATOM      1  N   UNL d   1      31.474  16.826 -23.522  0.00  0.00    -0.233 NA
ATOM      2  CA  UNL d   1      32.265  17.058 -23.507  0.00  0.00     0.146 A 
ATOM      3  CA  UNL d   1      31.271  16.031 -23.511  0.00  0.00     0.146 A 
ATOM      4  C   UNL d   1      31.869  15.452 -23.484  0.00  0.00     0.025 A 
ATOM      5  C   UNL d   1      32.863  16.479 -23.480  0.00  0.00     0.025 A 
ATOM      6  C   UNL d   1      32.664  15.674 -23.468  0.00  0.00     0.004 A 
ENDROOT
BRANCH   2   7
ATOM      7  C   UNL d   1      32.470  17.856 -23.518  0.00  0.00     0.229 C 
ATOM      8  O   UNL d   1      32.709  18.235 -22.828  0.00  0.00    -0.643 OA
ATOM      9  OXT UNL d   1      32.448  18.310 -24.206  0.00  0.00    -0.643 OA
ENDBRANCH   2   7
BRANCH   3  10
ATOM     10  C   UNL d   1      30.483  15.803 -23.526  0.00  0.00     0.229 C 
ATOM     11  O   UNL d   1      30.056  15.753 -24.224  0.00  0.00    -0.643 OA
ATOM     12  OXT UNL d   1      30.071  15.607 -22.823  0.00  0.00    -0.643 OA
ENDBRANCH   3  10
TORSDOF 2
ENDMDL
