MODEL 1
REMARK VINA RESULT:      31.9      0.000      0.000
REMARK  6 active torsions:
REMARK  status: ('A' for Active; 'I' for Inactive)
REMARK    1  A    between atoms: C_10  and  C_3 
REMARK    2  A    between atoms: S_9  and  C_4 
REMARK       I    between atoms: N_6  and  C_7 
REMARK    3  A    between atoms: C_8  and  N_6 
REMARK    4  A    between atoms: C_7  and  C_14 
REMARK    5  A    between atoms: C_14  and  S_9 
REMARK    6  A    between atoms: O_15  and  C_12 
ROOT
ATOM      1  S   UNL d   1      15.030  13.061  -1.157  0.00  0.00    -0.036 SA
ENDROOT
BRANCH   1   2
ATOM      2  C   UNL d   1      14.491  12.639  -1.657  0.00  0.00     0.236 A 
ATOM      3  O   UNL d   1      14.348  12.896  -2.427  0.00  0.00    -0.263 OA
ATOM      4  C   UNL d   1      13.817  12.392  -2.771  0.00  0.00     0.205 A 
ATOM      5  N   UNL d   1      13.623  11.813  -2.215  0.00  0.00    -0.120 NA
ATOM      6  N   UNL d   1      14.034  11.964  -1.536  0.00  0.00    -0.114 NA
BRANCH   4   7
ATOM      7  C   UNL d   1      13.503  12.417  -3.530  0.00  0.00     0.046 A 
ATOM      8  C   UNL d   1      13.596  11.780  -4.031  0.00  0.00     0.024 A 
ATOM      9  C   UNL d   1      13.274  11.809  -4.807  0.00  0.00     0.099 A 
ATOM     10  N   UNL d   1      12.867  12.481  -5.052  0.00  0.00    -0.242 NA
ATOM     11  C   UNL d   1      12.773  13.141  -4.527  0.00  0.00     0.099 A 
ATOM     12  C   UNL d   1      13.091  13.101  -3.775  0.00  0.00     0.024 A 
ENDBRANCH   4   7
ENDBRANCH   1   2
BRANCH   1  13
ATOM     13  C   UNL d   1      14.731  13.426  -0.479  0.00  0.00     0.101 C 
BRANCH  13  14
ATOM     14  C   UNL d   1      14.717  14.248  -0.462  0.00  0.00     0.286 C 
ATOM     15  N   UNL d   1      15.282  14.676  -0.897  0.00  0.00    -0.206 NA
ATOM     16  O   UNL d   1      14.160  14.669  -0.025  0.00  0.00    -0.265 OA
BRANCH  15  17
ATOM     17  C   UNL d   1      15.282  15.499  -0.890  0.00  0.00     0.107 A 
ATOM     18  C   UNL d   1      15.089  15.945  -1.584  0.00  0.00     0.112 A 
ATOM     19  C   UNL d   1      15.093  16.751  -1.562  0.00  0.00     0.026 A 
ATOM     20  C   UNL d   1      15.281  17.170  -0.877  0.00  0.00     0.002 A 
ATOM     21  C   UNL d   1      15.474  16.765  -0.183  0.00  0.00     0.002 A 
ATOM     22  C   UNL d   1      15.474  15.934  -0.190  0.00  0.00     0.021 A 
BRANCH  18  23
ATOM     23  O   UNL d   1      14.897  15.510  -2.284  0.00  0.00    -0.327 OA
ATOM     24  C   UNL d   1      14.906  15.932  -3.018  0.00  0.00     0.181 C 
ENDBRANCH  18  23
ENDBRANCH  15  17
ENDBRANCH  13  14
ENDBRANCH   1  13
TORSDOF 6
ENDMDL
MODEL 2
REMARK VINA RESULT:      34.1      1.611      3.251
REMARK  6 active torsions:
REMARK  status: ('A' for Active; 'I' for Inactive)
REMARK    1  A    between atoms: C_10  and  C_3 
REMARK    2  A    between atoms: S_9  and  C_4 
REMARK       I    between atoms: N_6  and  C_7 
REMARK    3  A    between atoms: C_8  and  N_6 
REMARK    4  A    between atoms: C_7  and  C_14 
REMARK    5  A    between atoms: C_14  and  S_9 
REMARK    6  A    between atoms: O_15  and  C_12 
ROOT
ATOM      1  S   UNL d   1      13.545  13.412  -4.179  0.00  0.00    -0.036 SA
ENDROOT
BRANCH   1   2
ATOM      2  C   UNL d   1      13.495  12.824  -3.570  0.00  0.00     0.236 A 
ATOM      3  O   UNL d   1      13.918  12.912  -2.869  0.00  0.00    -0.263 OA
ATOM      4  C   UNL d   1      13.766  12.275  -2.395  0.00  0.00     0.205 A 
ATOM      5  N   UNL d   1      13.242  11.780  -2.801  0.00  0.00    -0.120 NA
ATOM      6  N   UNL d   1      13.077  12.115  -3.517  0.00  0.00    -0.114 NA
BRANCH   4   7
ATOM      7  C   UNL d   1      14.057  12.111  -1.644  0.00  0.00     0.046 A 
ATOM      8  C   UNL d   1      13.541  11.950  -1.033  0.00  0.00     0.024 A 
ATOM      9  C   UNL d   1      13.842  11.783  -0.267  0.00  0.00     0.099 A 
ATOM     10  N   UNL d   1      14.657  11.784  -0.142  0.00  0.00    -0.242 NA
ATOM     11  C   UNL d   1      15.189  11.952  -0.781  0.00  0.00     0.099 A 
ATOM     12  C   UNL d   1      14.883  12.113  -1.522  0.00  0.00     0.024 A 
ENDBRANCH   4   7
ENDBRANCH   1   2
BRANCH   1  13
ATOM     13  C   UNL d   1      13.169  14.137  -4.056  0.00  0.00     0.101 C 
BRANCH  13  14
ATOM     14  C   UNL d   1      13.581  14.820  -4.256  0.00  0.00     0.286 C 
ATOM     15  N   UNL d   1      14.035  15.208  -3.677  0.00  0.00    -0.206 NA
ATOM     16  O   UNL d   1      13.560  15.139  -5.015  0.00  0.00    -0.265 OA
BRANCH  15  17
ATOM     17  C   UNL d   1      14.453  15.892  -3.861  0.00  0.00     0.107 A 
ATOM     18  C   UNL d   1      14.686  16.441  -3.259  0.00  0.00     0.112 A 
ATOM     19  C   UNL d   1      15.095  17.108  -3.455  0.00  0.00     0.026 A 
ATOM     20  C   UNL d   1      15.302  17.283  -4.233  0.00  0.00     0.002 A 
ATOM     21  C   UNL d   1      15.090  16.769  -4.844  0.00  0.00     0.002 A 
ATOM     22  C   UNL d   1      14.668  16.077  -4.659  0.00  0.00     0.021 A 
BRANCH  18  23
ATOM     23  O   UNL d   1      14.471  16.256  -2.461  0.00  0.00    -0.327 OA
ATOM     24  C   UNL d   1      15.083  16.291  -1.877  0.00  0.00     0.181 C 
ENDBRANCH  18  23
ENDBRANCH  15  17
ENDBRANCH  13  14
ENDBRANCH   1  13
TORSDOF 6
ENDMDL
