MODEL 1
REMARK VINA RESULT:      18.2      0.000      0.000
REMARK  3 active torsions:
REMARK  status: ('A' for Active; 'I' for Inactive)
REMARK    1  A    between atoms: C_3  and  C_1 
REMARK       I    between atoms: N_6  and  C_3 
REMARK    2  A    between atoms: C_12  and  N_5 
REMARK    3  A    between atoms: C_8  and  N_6 
ROOT
ATOM      1  C   UNL d   1      58.684  49.673  51.286  0.00  0.00     0.348 C 
ATOM      2  N   UNL d   1      58.106  49.678  50.687  0.00  0.00    -0.362 NA
ATOM      3  O   UNL d   1      58.449  49.663  52.105  0.00  0.00    -0.249 OA
ENDROOT
BRANCH   1   4
ATOM      4  C   UNL d   1      59.491  49.677  51.073  0.00  0.00     0.173 A 
ATOM      5  N   UNL d   1      60.133  49.694  51.603  0.00  0.00    -0.159 NA
ATOM      6  N   UNL d   1      60.830  49.692  51.146  0.00  0.00    -0.227 N 
ATOM      7  C   UNL d   1      60.617  49.675  50.351  0.00  0.00     0.102 A 
ATOM      8  C   UNL d   1      59.790  49.665  50.301  0.00  0.00     0.048 A 
BRANCH   6   9
ATOM      9  C   UNL d   1      61.601  49.706  51.444  0.00  0.00     0.101 C 
ATOM     10  C   UNL d   1      61.934  49.658  52.196  0.00  0.00     0.022 C 
ENDBRANCH   6   9
ENDBRANCH   1   4
BRANCH   2  11
ATOM     11  C   UNL d   1      57.453  49.682  50.177  0.00  0.00     0.146 A 
ATOM     12  C   UNL d   1      56.677  49.693  50.487  0.00  0.00     0.087 A 
ATOM     13 CL   UNL d   1      56.565  49.700  51.314  0.00  0.00    -0.080 Cl
ATOM     14  C   UNL d   1      56.038  49.697  49.988  0.00  0.00     0.014 A 
ATOM     15  C   UNL d   1      56.158  49.690  49.173  0.00  0.00     0.001 A 
ATOM     16  C   UNL d   1      56.921  49.679  48.858  0.00  0.00     0.003 A 
ATOM     17  C   UNL d   1      57.573  49.675  49.362  0.00  0.00     0.033 A 
ENDBRANCH   2  11
TORSDOF 3
ENDMDL
MODEL 2
REMARK VINA RESULT:      21.2      1.289      3.858
REMARK  3 active torsions:
REMARK  status: ('A' for Active; 'I' for Inactive)
REMARK    1  A    between atoms: C_3  and  C_1 
REMARK       I    between atoms: N_6  and  C_3 
REMARK    2  A    between atoms: C_12  and  N_5 
REMARK    3  A    between atoms: C_8  and  N_6 
ROOT
ATOM      1  C   UNL d   1      58.082  49.634  51.829  0.00  0.00     0.348 C 
ATOM      2  N   UNL d   1      58.825  49.656  51.455  0.00  0.00    -0.362 NA
ATOM      3  O   UNL d   1      58.032  49.589  52.678  0.00  0.00    -0.249 OA
ENDROOT
BRANCH   1   4
ATOM      4  C   UNL d   1      57.390  49.658  51.362  0.00  0.00     0.173 A 
ATOM      5  N   UNL d   1      57.364  49.646  50.530  0.00  0.00    -0.159 NA
ATOM      6  N   UNL d   1      56.562  49.678  50.308  0.00  0.00    -0.227 N 
ATOM      7  C   UNL d   1      56.106  49.708  50.992  0.00  0.00     0.102 A 
ATOM      8  C   UNL d   1      56.614  49.696  51.647  0.00  0.00     0.048 A 
BRANCH   6   9
ATOM      9  C   UNL d   1      56.277  49.679  49.531  0.00  0.00     0.101 C 
ATOM     10  C   UNL d   1      56.048  49.095  48.996  0.00  0.00     0.022 C 
ENDBRANCH   6   9
ENDBRANCH   1   4
BRANCH   2  11
ATOM     11  C   UNL d   1      59.610  49.672  51.190  0.00  0.00     0.146 A 
ATOM     12  C   UNL d   1      60.239  49.691  51.740  0.00  0.00     0.087 A 
ATOM     13 CL   UNL d   1      60.071  49.693  52.557  0.00  0.00    -0.080 Cl
ATOM     14  C   UNL d   1      61.007  49.707  51.481  0.00  0.00     0.014 A 
ATOM     15  C   UNL d   1      61.164  49.705  50.672  0.00  0.00     0.001 A 
ATOM     16  C   UNL d   1      60.549  49.686  50.122  0.00  0.00     0.003 A 
ATOM     17  C   UNL d   1      59.766  49.670  50.381  0.00  0.00     0.033 A 
ENDBRANCH   2  11
TORSDOF 3
ENDMDL
