MODEL 1
REMARK VINA RESULT:      -3.6      0.000      0.000
REMARK  6 active torsions:
REMARK  status: ('A' for Active; 'I' for Inactive)
REMARK    1  A    between atoms: S_7  and  C_1 
REMARK       I    between atoms: C_6  and  N_9 
REMARK    2  A    between atoms: C_13  and  C_6 
REMARK    3  A    between atoms: C_15  and  S_7 
REMARK    4  A    between atoms: N_9  and  C_16 
REMARK    5  A    between atoms: O_14  and  C_13 
REMARK    6  A    between atoms: C_16  and  C_15 
ROOT
ATOM      1  C   UNL d   1      58.891  -0.692  29.551  0.00  0.00     0.049 A 
ATOM      2  N   UNL d   1      60.137  -0.441  29.148  0.00  0.00    -0.245 NA
ATOM      3  C   UNL d   1      59.467  -0.105  29.484  0.00  0.00     0.087 A 
ATOM      4  C   UNL d   1      59.199  -1.392  29.258  0.00  0.00     0.025 A 
ATOM      5  C   UNL d   1      59.976  -1.240  29.006  0.00  0.00     0.082 A 
ATOM      6  C   UNL d   1      59.380   0.682  29.715  0.00  0.00     0.021 C 
ATOM      7  C   UNL d   1      58.886  -2.146  29.184  0.00  0.00     0.002 A 
ATOM      8  C   UNL d   1      60.432  -1.845  28.682  0.00  0.00     0.019 A 
ATOM      9  C   UNL d   1      59.343  -2.751  28.860  0.00  0.00     0.000 A 
ATOM     10  C   UNL d   1      60.110  -2.599  28.612  0.00  0.00     0.002 A 
ENDROOT
BRANCH   1  11
ATOM     11  S   UNL d   1      58.131  -0.592  29.861  0.00  0.00    -0.083 SA
BRANCH  11  12
ATOM     12  C   UNL d   1      58.037  -0.450  30.676  0.00  0.00     0.056 C 
BRANCH  12  13
ATOM     13  C   UNL d   1      57.354  -0.716  31.059  0.00  0.00     0.109 C 
BRANCH  13  14
ATOM     14  N   UNL d   1      57.032  -0.265  31.657  0.00  0.00    -0.204 NA
ATOM     15  C   UNL d   1      56.525  -0.613  32.202  0.00  0.00     0.304 C 
ATOM     16  O   UNL d   1      56.343  -1.417  32.146  0.00  0.00    -0.263 OA
BRANCH  15  17
ATOM     17  C   UNL d   1      56.196  -0.150  32.814  0.00  0.00     0.179 C 
BRANCH  17  18
ATOM     18  O   UNL d   1      55.429  -0.316  33.077  0.00  0.00    -0.322 OA
ATOM     19  C   UNL d   1      55.084   0.150  33.669  0.00  0.00     0.182 C 
ENDBRANCH  17  18
ENDBRANCH  15  17
ENDBRANCH  13  14
ENDBRANCH  12  13
ENDBRANCH  11  12
ENDBRANCH   1  11
TORSDOF 6
ENDMDL
MODEL 2
REMARK VINA RESULT:      -3.5      1.857      5.367
REMARK  6 active torsions:
REMARK  status: ('A' for Active; 'I' for Inactive)
REMARK    1  A    between atoms: S_7  and  C_1 
REMARK       I    between atoms: C_6  and  N_9 
REMARK    2  A    between atoms: C_13  and  C_6 
REMARK    3  A    between atoms: C_15  and  S_7 
REMARK    4  A    between atoms: N_9  and  C_16 
REMARK    5  A    between atoms: O_14  and  C_13 
REMARK    6  A    between atoms: C_16  and  C_15 
ROOT
ATOM      1  C   UNL d   1      56.699   0.682  33.180  0.00  0.00     0.049 A 
ATOM      2  N   UNL d   1      56.853   0.682  34.504  0.00  0.00    -0.245 NA
ATOM      3  C   UNL d   1      57.256   0.682  33.789  0.00  0.00     0.087 A 
ATOM      4  C   UNL d   1      55.951   0.682  33.513  0.00  0.00     0.025 A 
ATOM      5  C   UNL d   1      56.042   0.682  34.339  0.00  0.00     0.082 A 
ATOM      6  C   UNL d   1      58.074   0.682  33.691  0.00  0.00     0.021 C 
ATOM      7  C   UNL d   1      55.199   0.682  33.186  0.00  0.00     0.002 A 
ATOM      8  C   UNL d   1      55.380   0.682  34.829  0.00  0.00     0.019 A 
ATOM      9  C   UNL d   1      54.536   0.682  33.677  0.00  0.00     0.000 A 
ATOM     10  C   UNL d   1      54.628   0.682  34.492  0.00  0.00     0.002 A 
ENDROOT
BRANCH   1  11
ATOM     11  S   UNL d   1      56.865   0.682  32.370  0.00  0.00    -0.083 SA
BRANCH  11  12
ATOM     12  C   UNL d   1      57.194   0.001  32.020  0.00  0.00     0.056 C 
BRANCH  12  13
ATOM     13  C   UNL d   1      57.303  -0.023  31.201  0.00  0.00     0.109 C 
BRANCH  13  14
ATOM     14  N   UNL d   1      57.903  -0.480  30.893  0.00  0.00    -0.204 NA
ATOM     15  C   UNL d   1      58.085  -0.428  30.093  0.00  0.00     0.304 C 
ATOM     16  O   UNL d   1      57.661   0.086  29.602  0.00  0.00    -0.263 OA
BRANCH  15  17
ATOM     17  C   UNL d   1      58.700  -0.897  29.777  0.00  0.00     0.179 C 
BRANCH  17  18
ATOM     18  O   UNL d   1      59.165  -0.592  29.166  0.00  0.00    -0.322 OA
ATOM     19  C   UNL d   1      59.665  -1.094  28.735  0.00  0.00     0.182 C 
ENDBRANCH  17  18
ENDBRANCH  15  17
ENDBRANCH  13  14
ENDBRANCH  12  13
ENDBRANCH  11  12
ENDBRANCH   1  11
TORSDOF 6
ENDMDL
MODEL 3
REMARK VINA RESULT:      -3.2      9.014      9.633
REMARK  6 active torsions:
REMARK  status: ('A' for Active; 'I' for Inactive)
REMARK    1  A    between atoms: S_7  and  C_1 
REMARK       I    between atoms: C_6  and  N_9 
REMARK    2  A    between atoms: C_13  and  C_6 
REMARK    3  A    between atoms: C_15  and  S_7 
REMARK    4  A    between atoms: N_9  and  C_16 
REMARK    5  A    between atoms: O_14  and  C_13 
REMARK    6  A    between atoms: C_16  and  C_15 
ROOT
ATOM      1  C   UNL d   1      59.900  -9.243  34.189  0.00  0.00     0.049 A 
ATOM      2  N   UNL d   1      61.047  -8.717  34.621  0.00  0.00    -0.245 NA
ATOM      3  C   UNL d   1      60.718  -9.241  34.081  0.00  0.00     0.087 A 
ATOM      4  C   UNL d   1      59.718  -8.723  34.795  0.00  0.00     0.025 A 
ATOM      5  C   UNL d   1      60.430  -8.393  35.067  0.00  0.00     0.082 A 
ATOM      6  C   UNL d   1      61.130  -9.689  33.524  0.00  0.00     0.021 C 
ATOM      7  C   UNL d   1      59.008  -8.501  35.140  0.00  0.00     0.002 A 
ATOM      8  C   UNL d   1      60.425  -7.844  35.682  0.00  0.00     0.019 A 
ATOM      9  C   UNL d   1      59.003  -7.952  35.755  0.00  0.00     0.000 A 
ATOM     10  C   UNL d   1      59.707  -7.627  36.022  0.00  0.00     0.002 A 
ENDROOT
BRANCH   1  11
ATOM     11  S   UNL d   1      59.355  -9.692  33.761  0.00  0.00    -0.083 SA
BRANCH  11  12
ATOM     12  C   UNL d   1      59.267  -9.559  32.943  0.00  0.00     0.056 C 
BRANCH  12  13
ATOM     13  C   UNL d   1      58.575  -9.803  32.562  0.00  0.00     0.109 C 
BRANCH  13  14
ATOM     14  N   UNL d   1      58.550  -9.808  31.748  0.00  0.00    -0.204 NA
ATOM     15  C   UNL d   1      57.823  -9.813  31.363  0.00  0.00     0.304 C 
ATOM     16  O   UNL d   1      57.121  -9.813  31.800  0.00  0.00    -0.263 OA
BRANCH  15  17
ATOM     17  C   UNL d   1      57.797  -9.818  30.529  0.00  0.00     0.179 C 
BRANCH  17  18
ATOM     18  O   UNL d   1      57.066  -9.763  30.148  0.00  0.00    -0.322 OA
ATOM     19  C   UNL d   1      57.032  -9.688  29.322  0.00  0.00     0.182 C 
ENDBRANCH  17  18
ENDBRANCH  15  17
ENDBRANCH  13  14
ENDBRANCH  12  13
ENDBRANCH  11  12
ENDBRANCH   1  11
TORSDOF 6
ENDMDL
MODEL 4
REMARK VINA RESULT:      -3.2      2.326      5.069
REMARK  6 active torsions:
REMARK  status: ('A' for Active; 'I' for Inactive)
REMARK    1  A    between atoms: S_7  and  C_1 
REMARK       I    between atoms: C_6  and  N_9 
REMARK    2  A    between atoms: C_13  and  C_6 
REMARK    3  A    between atoms: C_15  and  S_7 
REMARK    4  A    between atoms: N_9  and  C_16 
REMARK    5  A    between atoms: O_14  and  C_13 
REMARK    6  A    between atoms: C_16  and  C_15 
ROOT
ATOM      1  C   UNL d   1      56.607  -0.244  31.959  0.00  0.00     0.049 A 
ATOM      2  N   UNL d   1      56.161  -1.387  32.483  0.00  0.00    -0.245 NA
ATOM      3  C   UNL d   1      56.625  -1.066  31.886  0.00  0.00     0.087 A 
ATOM      4  C   UNL d   1      56.133  -0.051  32.598  0.00  0.00     0.025 A 
ATOM      5  C   UNL d   1      55.853  -0.761  32.928  0.00  0.00     0.082 A 
ATOM      6  C   UNL d   1      57.040  -1.488  31.311  0.00  0.00     0.021 C 
ATOM      7  C   UNL d   1      55.915   0.666  32.930  0.00  0.00     0.002 A 
ATOM      8  C   UNL d   1      55.357  -0.745  33.586  0.00  0.00     0.019 A 
ATOM      9  C   UNL d   1      55.419   0.682  33.588  0.00  0.00     0.000 A 
ATOM     10  C   UNL d   1      55.144  -0.019  33.912  0.00  0.00     0.002 A 
ENDROOT
BRANCH   1  11
ATOM     11  S   UNL d   1      56.999   0.295  31.471  0.00  0.00    -0.083 SA
BRANCH  11  12
ATOM     12  C   UNL d   1      57.743   0.093  31.153  0.00  0.00     0.056 C 
BRANCH  12  13
ATOM     13  C   UNL d   1      58.032   0.508  30.498  0.00  0.00     0.109 C 
BRANCH  13  14
ATOM     14  N   UNL d   1      58.837   0.571  30.392  0.00  0.00    -0.204 NA
ATOM     15  C   UNL d   1      59.144   0.617  29.630  0.00  0.00     0.304 C 
ATOM     16  O   UNL d   1      58.640   0.598  28.976  0.00  0.00    -0.263 OA
BRANCH  15  17
ATOM     17  C   UNL d   1      59.970   0.682  29.521  0.00  0.00     0.179 C 
BRANCH  17  18
ATOM     18  O   UNL d   1      60.295   0.497  28.784  0.00  0.00    -0.322 OA
ATOM     19  C   UNL d   1      61.052   0.162  28.736  0.00  0.00     0.182 C 
ENDBRANCH  17  18
ENDBRANCH  15  17
ENDBRANCH  13  14
ENDBRANCH  12  13
ENDBRANCH  11  12
ENDBRANCH   1  11
TORSDOF 6
ENDMDL
MODEL 5
REMARK VINA RESULT:      -2.7      1.532      2.226
REMARK  6 active torsions:
REMARK  status: ('A' for Active; 'I' for Inactive)
REMARK    1  A    between atoms: S_7  and  C_1 
REMARK       I    between atoms: C_6  and  N_9 
REMARK    2  A    between atoms: C_13  and  C_6 
REMARK    3  A    between atoms: C_15  and  S_7 
REMARK    4  A    between atoms: N_9  and  C_16 
REMARK    5  A    between atoms: O_14  and  C_13 
REMARK    6  A    between atoms: C_16  and  C_15 
ROOT
ATOM      1  C   UNL d   1      59.710  -2.268  28.768  0.00  0.00     0.049 A 
ATOM      2  N   UNL d   1      60.755  -3.095  28.710  0.00  0.00    -0.245 NA
ATOM      3  C   UNL d   1      60.534  -2.309  28.797  0.00  0.00     0.087 A 
ATOM      4  C   UNL d   1      59.416  -3.025  28.663  0.00  0.00     0.025 A 
ATOM      5  C   UNL d   1      60.065  -3.544  28.626  0.00  0.00     0.082 A 
ATOM      6  C   UNL d   1      61.043  -1.668  28.896  0.00  0.00     0.021 C 
ATOM      7  C   UNL d   1      58.654  -3.319  28.596  0.00  0.00     0.002 A 
ATOM      8  C   UNL d   1      59.943  -4.353  28.522  0.00  0.00     0.019 A 
ATOM      9  C   UNL d   1      58.533  -4.128  28.491  0.00  0.00     0.000 A 
ATOM     10  C   UNL d   1      59.173  -4.639  28.455  0.00  0.00     0.002 A 
ENDROOT
BRANCH   1  11
ATOM     11  S   UNL d   1      59.256  -1.581  28.834  0.00  0.00    -0.083 SA
BRANCH  11  12
ATOM     12  C   UNL d   1      59.061  -1.289  29.590  0.00  0.00     0.056 C 
BRANCH  12  13
ATOM     13  C   UNL d   1      58.568  -0.630  29.657  0.00  0.00     0.109 C 
BRANCH  13  14
ATOM     14  N   UNL d   1      58.311  -0.399  30.395  0.00  0.00    -0.204 NA
ATOM     15  C   UNL d   1      57.753   0.201  30.463  0.00  0.00     0.304 C 
ATOM     16  O   UNL d   1      57.452   0.568  29.786  0.00  0.00    -0.263 OA
BRANCH  15  17
ATOM     17  C   UNL d   1      57.490   0.437  31.220  0.00  0.00     0.179 C 
BRANCH  17  18
ATOM     18  O   UNL d   1      56.682   0.413  31.392  0.00  0.00    -0.322 OA
ATOM     19  C   UNL d   1      56.409   0.654  32.137  0.00  0.00     0.182 C 
ENDBRANCH  17  18
ENDBRANCH  15  17
ENDBRANCH  13  14
ENDBRANCH  12  13
ENDBRANCH  11  12
ENDBRANCH   1  11
TORSDOF 6
ENDMDL
MODEL 6
REMARK VINA RESULT:      -2.4      1.299      1.563
REMARK  6 active torsions:
REMARK  status: ('A' for Active; 'I' for Inactive)
REMARK    1  A    between atoms: S_7  and  C_1 
REMARK       I    between atoms: C_6  and  N_9 
REMARK    2  A    between atoms: C_13  and  C_6 
REMARK    3  A    between atoms: C_15  and  S_7 
REMARK    4  A    between atoms: N_9  and  C_16 
REMARK    5  A    between atoms: O_14  and  C_13 
REMARK    6  A    between atoms: C_16  and  C_15 
ROOT
ATOM      1  C   UNL d   1      58.921   0.260  29.680  0.00  0.00     0.049 A 
ATOM      2  N   UNL d   1      59.047  -0.253  28.455  0.00  0.00    -0.245 NA
ATOM      3  C   UNL d   1      58.528   0.124  28.967  0.00  0.00     0.087 A 
ATOM      4  C   UNL d   1      59.684  -0.031  29.614  0.00  0.00     0.025 A 
ATOM      5  C   UNL d   1      59.766  -0.352  28.852  0.00  0.00     0.082 A 
ATOM      6  C   UNL d   1      57.747   0.333  28.802  0.00  0.00     0.021 C 
ATOM      7  C   UNL d   1      60.316  -0.052  30.136  0.00  0.00     0.002 A 
ATOM      8  C   UNL d   1      60.482  -0.690  28.620  0.00  0.00     0.019 A 
ATOM      9  C   UNL d   1      61.031  -0.390  29.904  0.00  0.00     0.000 A 
ATOM     10  C   UNL d   1      61.111  -0.706  29.151  0.00  0.00     0.002 A 
ENDROOT
BRANCH   1  11
ATOM     11  S   UNL d   1      58.602   0.627  30.348  0.00  0.00    -0.083 SA
BRANCH  11  12
ATOM     12  C   UNL d   1      57.910   0.318  30.694  0.00  0.00     0.056 C 
BRANCH  12  13
ATOM     13  C   UNL d   1      57.657   0.607  31.425  0.00  0.00     0.109 C 
BRANCH  13  14
ATOM     14  N   UNL d   1      56.958   0.331  31.741  0.00  0.00    -0.204 NA
ATOM     15  C   UNL d   1      56.865   0.298  32.557  0.00  0.00     0.304 C 
ATOM     16  O   UNL d   1      57.477   0.543  33.057  0.00  0.00    -0.263 OA
BRANCH  15  17
ATOM     17  C   UNL d   1      56.149   0.016  32.881  0.00  0.00     0.179 C 
BRANCH  17  18
ATOM     18  O   UNL d   1      55.826   0.397  33.540  0.00  0.00    -0.322 OA
ATOM     19  C   UNL d   1      55.051   0.226  33.780  0.00  0.00     0.182 C 
ENDBRANCH  17  18
ENDBRANCH  15  17
ENDBRANCH  13  14
ENDBRANCH  12  13
ENDBRANCH  11  12
ENDBRANCH   1  11
TORSDOF 6
ENDMDL
MODEL 7
REMARK VINA RESULT:      -2.3      8.497      9.170
REMARK  6 active torsions:
REMARK  status: ('A' for Active; 'I' for Inactive)
REMARK    1  A    between atoms: S_7  and  C_1 
REMARK       I    between atoms: C_6  and  N_9 
REMARK    2  A    between atoms: C_13  and  C_6 
REMARK    3  A    between atoms: C_15  and  S_7 
REMARK    4  A    between atoms: N_9  and  C_16 
REMARK    5  A    between atoms: O_14  and  C_13 
REMARK    6  A    between atoms: C_16  and  C_15 
ROOT
ATOM      1  C   UNL d   1      59.565  -9.795  32.913  0.00  0.00     0.049 A 
ATOM      2  N   UNL d   1      59.848  -9.798  31.610  0.00  0.00    -0.245 NA
ATOM      3  C   UNL d   1      60.179  -9.792  32.361  0.00  0.00     0.087 A 
ATOM      4  C   UNL d   1      58.853  -9.803  32.509  0.00  0.00     0.025 A 
ATOM      5  C   UNL d   1      59.025  -9.805  31.695  0.00  0.00     0.082 A 
ATOM      6  C   UNL d   1      60.984  -9.784  32.539  0.00  0.00     0.021 C 
ATOM      7  C   UNL d   1      58.073  -9.808  32.760  0.00  0.00     0.002 A 
ATOM      8  C   UNL d   1      58.414  -9.812  31.142  0.00  0.00     0.019 A 
ATOM      9  C   UNL d   1      57.462  -9.816  32.207  0.00  0.00     0.000 A 
ATOM     10  C   UNL d   1      57.633  -9.818  31.405  0.00  0.00     0.002 A 
ENDROOT
BRANCH   1  11
ATOM     11  S   UNL d   1      59.652  -9.790  33.735  0.00  0.00    -0.083 SA
BRANCH  11  12
ATOM     12  C   UNL d   1      59.698  -9.063  34.138  0.00  0.00     0.056 C 
BRANCH  12  13
ATOM     13  C   UNL d   1      59.863  -9.055  34.948  0.00  0.00     0.109 C 
BRANCH  13  14
ATOM     14  N   UNL d   1      60.198  -8.390  35.279  0.00  0.00    -0.204 NA
ATOM     15  C   UNL d   1      59.844  -8.039  35.933  0.00  0.00     0.304 C 
ATOM     16  O   UNL d   1      59.152  -8.358  36.253  0.00  0.00    -0.263 OA
BRANCH  15  17
ATOM     17  C   UNL d   1      60.188  -7.358  36.272  0.00  0.00     0.179 C 
BRANCH  17  18
ATOM     18  O   UNL d   1      60.082  -6.626  35.903  0.00  0.00    -0.322 OA
ATOM     19  C   UNL d   1      60.601  -6.000  36.065  0.00  0.00     0.182 C 
ENDBRANCH  17  18
ENDBRANCH  15  17
ENDBRANCH  13  14
ENDBRANCH  12  13
ENDBRANCH  11  12
ENDBRANCH   1  11
TORSDOF 6
ENDMDL
