MODEL 1
REMARK VINA RESULT:      -6.0      0.000      0.000
REMARK  2 active torsions:
REMARK  status: ('A' for Active; 'I' for Inactive)
REMARK    1  A    between atoms: C_4  and  C_1 
REMARK       I    between atoms: N_7  and  C_4 
REMARK    2  A    between atoms: C_17  and  N_8 
ROOT
ATOM      1  C   UNL d   1      58.865  -0.036  29.365  0.00  0.00     0.248 C 
ATOM      2  N   UNL d   1      58.306  -0.082  30.018  0.00  0.00    -0.272 N 
ATOM      3  N   UNL d   1      57.192  -0.169  31.320  0.00  0.00    -0.301 N 
ATOM      4  O   UNL d   1      59.037   0.682  29.025  0.00  0.00    -0.271 OA
ATOM      5  C   UNL d   1      57.928   0.635  30.313  0.00  0.00     0.102 A 
ATOM      6  C   UNL d   1      58.138  -0.846  30.362  0.00  0.00     0.102 A 
ATOM      7  C   UNL d   1      57.378   0.594  30.955  0.00  0.00     0.100 A 
ATOM      8  C   UNL d   1      57.570  -0.885  31.025  0.00  0.00     0.100 A 
ENDROOT
BRANCH   1   9
ATOM      9  C   UNL d   1      59.222  -0.707  29.085  0.00  0.00     0.112 A 
ATOM     10  C   UNL d   1      60.354  -1.687  28.827  0.00  0.00     0.025 A 
ATOM     11  C   UNL d   1      59.589  -1.379  28.807  0.00  0.00     0.074 A 
ATOM     12  C   UNL d   1      60.513  -2.401  28.475  0.00  0.00     0.002 C 
ATOM     13  C   UNL d   1      61.061  -1.445  29.136  0.00  0.00     0.002 C 
ATOM     14  C   UNL d   1      59.760  -2.096  28.455  0.00  0.00     0.012 C 
ATOM     15  C   UNL d   1      58.877  -1.623  28.496  0.00  0.00    -0.023 A 
ATOM     16  C   UNL d   1      60.025  -0.832  29.215  0.00  0.00     0.172 A 
ATOM     17  C   UNL d   1      58.516  -0.953  28.774  0.00  0.00    -0.018 A 
ATOM     18  C   UNL d   1      59.661  -0.160  29.495  0.00  0.00     0.024 A 
ATOM     19  O   UNL d   1      60.799  -0.767  29.444  0.00  0.00    -0.291 OA
ENDBRANCH   1   9
BRANCH   3  20
ATOM     20  C   UNL d   1      56.631  -0.216  31.976  0.00  0.00     0.064 A 
ATOM     21  C   UNL d   1      56.292   0.500  32.300  0.00  0.00     0.018 A 
ATOM     22  C   UNL d   1      55.735   0.455  32.952  0.00  0.00     0.002 A 
ATOM     23  C   UNL d   1      55.516  -0.315  33.282  0.00  0.00     0.000 A 
ATOM     24  C   UNL d   1      55.861  -1.036  32.953  0.00  0.00     0.002 A 
ATOM     25  C   UNL d   1      56.418  -0.986  32.300  0.00  0.00     0.018 A 
ENDBRANCH   3  20
TORSDOF 2
ENDMDL
MODEL 2
REMARK VINA RESULT:      -5.1      2.104      5.300
REMARK  2 active torsions:
REMARK  status: ('A' for Active; 'I' for Inactive)
REMARK    1  A    between atoms: C_4  and  C_1 
REMARK       I    between atoms: N_7  and  C_4 
REMARK    2  A    between atoms: C_17  and  N_8 
ROOT
ATOM      1  C   UNL d   1      56.325  -1.079  32.577  0.00  0.00     0.248 C 
ATOM      2  N   UNL d   1      56.824  -0.786  31.939  0.00  0.00    -0.272 N 
ATOM      3  N   UNL d   1      57.818  -0.204  30.667  0.00  0.00    -0.301 N 
ATOM      4  O   UNL d   1      56.069  -1.850  32.572  0.00  0.00    -0.271 OA
ATOM      5  C   UNL d   1      57.053  -1.310  31.294  0.00  0.00     0.102 A 
ATOM      6  C   UNL d   1      57.083   0.029  31.962  0.00  0.00     0.102 A 
ATOM      7  C   UNL d   1      57.543  -1.025  30.666  0.00  0.00     0.100 A 
ATOM      8  C   UNL d   1      57.589   0.320  31.311  0.00  0.00     0.100 A 
ENDROOT
BRANCH   1   9
ATOM      9  C   UNL d   1      56.108  -0.589  33.184  0.00  0.00     0.112 A 
ATOM     10  C   UNL d   1      55.165   0.181  34.093  0.00  0.00     0.025 A 
ATOM     11  C   UNL d   1      55.881  -0.098  33.793  0.00  0.00     0.074 A 
ATOM     12  C   UNL d   1      55.160   0.682  34.731  0.00  0.00     0.002 C 
ATOM     13  C   UNL d   1      54.386   0.079  33.902  0.00  0.00     0.002 C 
ATOM     14  C   UNL d   1      55.866   0.406  34.435  0.00  0.00     0.012 C 
ATOM     15  C   UNL d   1      56.666   0.005  33.985  0.00  0.00    -0.023 A 
ATOM     16  C   UNL d   1      55.313  -0.432  33.323  0.00  0.00     0.172 A 
ATOM     17  C   UNL d   1      56.888  -0.484  33.378  0.00  0.00    -0.018 A 
ATOM     18  C   UNL d   1      55.536  -0.923  32.714  0.00  0.00     0.024 A 
ATOM     19  O   UNL d   1      54.503  -0.407  33.291  0.00  0.00    -0.291 OA
ENDBRANCH   1   9
BRANCH   3  20
ATOM     20  C   UNL d   1      58.318   0.092  30.027  0.00  0.00     0.064 A 
ATOM     21  C   UNL d   1      57.964   0.340  29.288  0.00  0.00     0.018 A 
ATOM     22  C   UNL d   1      58.460   0.635  28.652  0.00  0.00     0.002 A 
ATOM     23  C   UNL d   1      59.318   0.681  28.757  0.00  0.00     0.000 A 
ATOM     24  C   UNL d   1      59.672   0.430  29.505  0.00  0.00     0.002 A 
ATOM     25  C   UNL d   1      59.172   0.135  30.139  0.00  0.00     0.018 A 
ENDBRANCH   3  20
TORSDOF 2
ENDMDL
MODEL 3
REMARK VINA RESULT:      -4.5      1.023      1.526
REMARK  2 active torsions:
REMARK  status: ('A' for Active; 'I' for Inactive)
REMARK    1  A    between atoms: C_4  and  C_1 
REMARK       I    between atoms: N_7  and  C_4 
REMARK    2  A    between atoms: C_17  and  N_8 
ROOT
ATOM      1  C   UNL d   1      58.400  -0.833  29.662  0.00  0.00     0.248 C 
ATOM      2  N   UNL d   1      58.005  -0.581  30.384  0.00  0.00    -0.272 N 
ATOM      3  N   UNL d   1      57.216  -0.080  31.824  0.00  0.00    -0.301 N 
ATOM      4  O   UNL d   1      58.202  -1.542  29.316  0.00  0.00    -0.271 OA
ATOM      5  C   UNL d   1      57.399  -1.079  30.741  0.00  0.00     0.102 A 
ATOM      6  C   UNL d   1      58.227   0.168  30.734  0.00  0.00     0.102 A 
ATOM      7  C   UNL d   1      57.008  -0.834  31.451  0.00  0.00     0.100 A 
ATOM      8  C   UNL d   1      57.822   0.418  31.467  0.00  0.00     0.100 A 
ENDROOT
BRANCH   1   9
ATOM      9  C   UNL d   1      58.970  -0.368  29.324  0.00  0.00     0.112 A 
ATOM     10  C   UNL d   1      60.370   0.050  28.905  0.00  0.00     0.025 A 
ATOM     11  C   UNL d   1      59.550   0.094  28.987  0.00  0.00     0.074 A 
ATOM     12  C   UNL d   1      60.771   0.639  28.518  0.00  0.00     0.002 C 
ATOM     13  C   UNL d   1      60.940  -0.478  29.130  0.00  0.00     0.002 C 
ATOM     14  C   UNL d   1      59.963   0.682  28.599  0.00  0.00     0.012 C 
ATOM     15  C   UNL d   1      58.976   0.625  28.760  0.00  0.00    -0.023 A 
ATOM     16  C   UNL d   1      59.760  -0.597  29.352  0.00  0.00     0.172 A 
ATOM     17  C   UNL d   1      58.402   0.163  29.097  0.00  0.00    -0.018 A 
ATOM     18  C   UNL d   1      59.184  -1.062  29.690  0.00  0.00     0.024 A 
ATOM     19  O   UNL d   1      60.456  -0.991  29.485  0.00  0.00    -0.291 OA
ENDBRANCH   1   9
BRANCH   3  20
ATOM     20  C   UNL d   1      56.820   0.175  32.548  0.00  0.00     0.064 A 
ATOM     21  C   UNL d   1      57.285   0.428  33.221  0.00  0.00     0.018 A 
ATOM     22  C   UNL d   1      56.893   0.682  33.942  0.00  0.00     0.002 A 
ATOM     23  C   UNL d   1      56.029   0.681  33.989  0.00  0.00     0.000 A 
ATOM     24  C   UNL d   1      55.563   0.425  33.308  0.00  0.00     0.002 A 
ATOM     25  C   UNL d   1      55.959   0.172  32.588  0.00  0.00     0.018 A 
ENDBRANCH   3  20
TORSDOF 2
ENDMDL
MODEL 4
REMARK VINA RESULT:      -3.2      8.951     10.124
REMARK  2 active torsions:
REMARK  status: ('A' for Active; 'I' for Inactive)
REMARK    1  A    between atoms: C_4  and  C_1 
REMARK       I    between atoms: N_7  and  C_4 
REMARK    2  A    between atoms: C_17  and  N_8 
ROOT
ATOM      1  C   UNL d   1      59.361  -9.307  34.262  0.00  0.00     0.248 C 
ATOM      2  N   UNL d   1      59.535  -9.387  33.422  0.00  0.00    -0.272 N 
ATOM      3  N   UNL d   1      59.880  -9.548  31.749  0.00  0.00    -0.301 N 
ATOM      4  O   UNL d   1      58.647  -9.562  34.555  0.00  0.00    -0.271 OA
ATOM      5  C   UNL d   1      58.953  -9.737  32.892  0.00  0.00     0.102 A 
ATOM      6  C   UNL d   1      60.292  -9.114  33.133  0.00  0.00     0.102 A 
ATOM      7  C   UNL d   1      59.121  -9.818  32.066  0.00  0.00     0.100 A 
ATOM      8  C   UNL d   1      60.462  -9.198  32.279  0.00  0.00     0.100 A 
ENDROOT
BRANCH   1   9
ATOM      9  C   UNL d   1      59.906  -8.979  34.763  0.00  0.00     0.112 A 
ATOM     10  C   UNL d   1      60.471  -7.972  35.750  0.00  0.00     0.025 A 
ATOM     11  C   UNL d   1      60.447  -8.642  35.269  0.00  0.00     0.074 A 
ATOM     12  C   UNL d   1      61.133  -7.813  36.191  0.00  0.00     0.002 C 
ATOM     13  C   UNL d   1      59.959  -7.369  35.918  0.00  0.00     0.002 C 
ATOM     14  C   UNL d   1      61.109  -8.473  35.717  0.00  0.00     0.012 C 
ATOM     15  C   UNL d   1      60.963  -9.249  35.100  0.00  0.00    -0.023 A 
ATOM     16  C   UNL d   1      59.730  -8.282  35.164  0.00  0.00     0.172 A 
ATOM     17  C   UNL d   1      60.421  -9.581  34.598  0.00  0.00    -0.018 A 
ATOM     18  C   UNL d   1      59.186  -8.616  34.659  0.00  0.00     0.024 A 
ATOM     19  O   UNL d   1      59.371  -7.615  35.452  0.00  0.00    -0.291 OA
ENDBRANCH   1   9
BRANCH   3  20
ATOM     20  C   UNL d   1      60.057  -9.628  30.907  0.00  0.00     0.064 A 
ATOM     21  C   UNL d   1      60.871  -9.664  30.644  0.00  0.00     0.018 A 
ATOM     22  C   UNL d   1      61.048  -9.743  29.807  0.00  0.00     0.002 A 
ATOM     23  C   UNL d   1      60.404  -9.786  29.229  0.00  0.00     0.000 A 
ATOM     24  C   UNL d   1      59.584  -9.749  29.499  0.00  0.00     0.002 A 
ATOM     25  C   UNL d   1      59.411  -9.670  30.338  0.00  0.00     0.018 A 
ENDBRANCH   3  20
TORSDOF 2
ENDMDL
