MODEL 1
REMARK VINA RESULT:      69.0      0.000      0.000
REMARK  7 active torsions:
REMARK  status: ('A' for Active; 'I' for Inactive)
REMARK    1  A    between atoms: N_2  and  S_1 
REMARK    2  A    between atoms: C_5  and  S_1 
REMARK    3  A    between atoms: C_3  and  N_2 
REMARK    4  A    between atoms: C_4  and  C_3 
REMARK    5  A    between atoms: C_13  and  C_3 
REMARK    6  A    between atoms: C_9  and  C_8 
REMARK    7  A    between atoms: O_22  and  C_19 
ROOT
ATOM      1  C   UNL d   1     -47.781  30.064  34.528  0.00  0.00     0.105 A 
ATOM      2  C   UNL d   1     -48.670  28.722  34.180  0.00  0.00     0.000 A 
ATOM      3  C   UNL d   1     -47.695  29.386  34.986  0.00  0.00     0.013 A 
ATOM      4  C   UNL d   1     -48.311  30.072  33.896  0.00  0.00     0.013 A 
ATOM      5  C   UNL d   1     -48.755  29.402  33.722  0.00  0.00     0.001 A 
ATOM      6  C   UNL d   1     -48.140  28.714  34.812  0.00  0.00     0.001 A 
ENDROOT
BRANCH   1   7
ATOM      7  S   UNL d   1     -47.331  30.747  34.703  0.00  0.00     0.285 S 
ATOM      8  O   UNL d   1     -47.791  31.185  34.164  0.00  0.00    -0.198 OA
ATOM      9  O   UNL d   1     -46.874  30.301  35.242  0.00  0.00    -0.198 OA
BRANCH   7  10
ATOM     10  N   UNL d   1     -46.885  31.422  34.877  0.00  0.00    -0.152 NA
BRANCH  10  11
ATOM     11  C   UNL d   1     -47.260  32.155  34.986  0.00  0.00     0.158 C 
BRANCH  11  12
ATOM     12  C   UNL d   1     -47.548  32.362  35.731  0.00  0.00     0.230 C 
ATOM     13  O   UNL d   1     -47.147  32.123  36.408  0.00  0.00    -0.643 OA
ATOM     14  O   UNL d   1     -48.237  32.807  35.797  0.00  0.00    -0.643 OA
ENDBRANCH  11  12
BRANCH  11  15
ATOM     15  C   UNL d   1     -47.344  32.673  34.352  0.00  0.00     0.025 C 
ATOM     16  C   UNL d   1     -47.983  33.207  34.330  0.00  0.00     0.002 C 
ATOM     17  C   UNL d   1     -46.794  32.663  33.738  0.00  0.00     0.002 C 
ENDBRANCH  11  15
ENDBRANCH  10  11
ENDBRANCH   7  10
ENDBRANCH   1   7
BRANCH   2  18
ATOM     18  C   UNL d   1     -49.114  28.052  34.006  0.00  0.00     0.000 A 
ATOM     19  C   UNL d   1     -48.763  27.308  34.036  0.00  0.00     0.002 A 
ATOM     20  C   UNL d   1     -49.208  26.629  33.861  0.00  0.00     0.024 A 
ATOM     21  C   UNL d   1     -50.011  26.703  33.655  0.00  0.00     0.094 A 
ATOM     22  C   UNL d   1     -50.363  27.455  33.626  0.00  0.00     0.024 A 
ATOM     23  C   UNL d   1     -49.918  28.126  33.800  0.00  0.00     0.002 A 
BRANCH  21  24
ATOM     24  O   UNL d   1     -50.461  26.029  33.479  0.00  0.00    -0.328 OA
ATOM     25  C   UNL d   1     -51.274  26.101  33.306  0.00  0.00     0.181 C 
ENDBRANCH  21  24
ENDBRANCH   2  18
TORSDOF 7
ENDMDL
