MODEL 1
REMARK VINA RESULT:      27.0      0.000      0.000
REMARK  1 active torsions:
REMARK  status: ('A' for Active; 'I' for Inactive)
REMARK    1  A    between atoms: N_8  and  C_7 
REMARK       I    between atoms: C_11  and  N_8 
ROOT
ATOM      1  N   UNL d   1     -59.024 -98.816 -43.658  0.00  0.00    -0.273 N 
ATOM      2  C   UNL d   1     -58.248 -98.801 -43.937  0.00  0.00     0.067 A 
ATOM      3  C   UNL d   1     -58.101 -98.816 -44.749  0.00  0.00     0.019 A 
ATOM      4  C   UNL d   1     -57.622 -98.771 -43.412  0.00  0.00     0.018 A 
ATOM      5  C   UNL d   1     -59.175 -98.801 -42.855  0.00  0.00     0.265 A 
ATOM      6  C   UNL d   1     -59.522 -98.845 -44.312  0.00  0.00     0.083 A 
ATOM      7  C   UNL d   1     -56.695 -98.772 -44.494  0.00  0.00     0.085 A 
ATOM      8  C   UNL d   1     -57.325 -98.802 -45.027  0.00  0.00     0.021 A 
ATOM      9  C   UNL d   1     -56.846 -98.757 -43.690  0.00  0.00     0.021 A 
ATOM     10  C   UNL d   1     -58.827 -98.846 -45.146  0.00  0.00     0.021 A 
ATOM     11  C   UNL d   1     -57.766 -98.756 -42.591  0.00  0.00     0.006 A 
ATOM     12  C   UNL d   1     -58.543 -98.770 -42.313  0.00  0.00     0.061 A 
ATOM     13  O   UNL d   1     -59.952 -98.815 -42.576  0.00  0.00    -0.267 OA
ENDROOT
BRANCH   7  14
ATOM     14  N   UNL d   1     -55.920 -98.757 -44.772  0.00  0.00    -0.208 NA
ATOM     15  C   UNL d   1     -55.490 -99.443 -44.818  0.00  0.00     0.279 C 
ATOM     16  O   UNL d   1     -55.826-100.172 -44.586  0.00  0.00    -0.265 OA
ATOM     17  C   UNL d   1     -54.713 -99.433 -45.096  0.00  0.00     0.068 C 
ENDBRANCH   7  14
TORSDOF 1
ENDMDL
