MODEL 1
REMARK VINA RESULT:      -2.9      0.000      0.000
REMARK  5 active torsions:
REMARK  status: ('A' for Active; 'I' for Inactive)
REMARK    1  A    between atoms: N_2  and  S_1 
REMARK    2  A    between atoms: C_8  and  S_1 
REMARK    3  A    between atoms: S_7  and  C_3 
REMARK    4  A    between atoms: C_11  and  S_7 
REMARK    5  A    between atoms: C_12  and  C_11 
ROOT
ATOM      1  N   UNL d   1      31.347  16.462 -24.338  0.00  0.00    -0.208 N 
ATOM      2  C   UNL d   1      32.017  16.786 -23.964  0.00  0.00     0.189 A 
ATOM      3  N   UNL d   1      32.526  16.163 -23.762  0.00  0.00    -0.219 NA
ATOM      4  C   UNL d   1      31.444  15.635 -24.368  0.00  0.00     0.114 A 
ATOM      5  C   UNL d   1      32.169  15.456 -24.013  0.00  0.00     0.121 A 
ENDROOT
BRANCH   1   6
ATOM      6  S   UNL d   1      30.698  16.892 -24.630  0.00  0.00     0.273 S 
ATOM      7  O   UNL d   1      31.236  17.358 -25.038  0.00  0.00    -0.200 OA
ATOM      8  O   UNL d   1      30.237  17.450 -25.036  0.00  0.00    -0.200 OA
BRANCH   6   9
ATOM      9  C   UNL d   1      30.140  16.433 -24.225  0.00  0.00     0.104 A 
ATOM     10  C   UNL d   1      30.110  16.465 -23.406  0.00  0.00     0.013 A 
ATOM     11  C   UNL d   1      29.555  16.007 -23.004  0.00  0.00     0.001 A 
ATOM     12  C   UNL d   1      29.037  15.523 -23.424  0.00  0.00     0.000 A 
ATOM     13  C   UNL d   1      29.071  15.495 -24.244  0.00  0.00     0.001 A 
ATOM     14  C   UNL d   1      29.631  15.957 -24.645  0.00  0.00     0.013 A 
ENDBRANCH   6   9
ENDBRANCH   1   6
BRANCH   2  15
ATOM     15  S   UNL d   1      32.151  17.596 -23.817  0.00  0.00    -0.049 SA
BRANCH  15  16
ATOM     16  C   UNL d   1      32.866  17.839 -23.479  0.00  0.00     0.038 C 
BRANCH  16  17
ATOM     17  C   UNL d   1      32.960  18.630 -23.235  0.00  0.00     0.007 A 
ATOM     18  C   UNL d   1      33.137  19.224 -23.791  0.00  0.00     0.001 A 
ATOM     19  C   UNL d   1      33.231  20.005 -23.557  0.00  0.00     0.000 A 
ATOM     20  C   UNL d   1      33.148  20.203 -22.759  0.00  0.00     0.000 A 
ATOM     21  C   UNL d   1      32.972  19.613 -22.201  0.00  0.00     0.000 A 
ATOM     22  C   UNL d   1      33.241  20.985 -22.515  0.00  0.00     0.000 C 
ATOM     23  C   UNL d   1      32.878  18.829 -22.441  0.00  0.00     0.001 A 
ENDBRANCH  16  17
ENDBRANCH  15  16
ENDBRANCH   2  15
TORSDOF 5
ENDMDL
MODEL 2
REMARK VINA RESULT:      -2.1      0.891      4.199
REMARK  5 active torsions:
REMARK  status: ('A' for Active; 'I' for Inactive)
REMARK    1  A    between atoms: N_2  and  S_1 
REMARK    2  A    between atoms: C_8  and  S_1 
REMARK    3  A    between atoms: S_7  and  C_3 
REMARK    4  A    between atoms: C_11  and  S_7 
REMARK    5  A    between atoms: C_12  and  C_11 
ROOT
ATOM      1  N   UNL d   1      32.189  16.921 -24.227  0.00  0.00    -0.208 N 
ATOM      2  C   UNL d   1      31.772  16.232 -24.010  0.00  0.00     0.189 A 
ATOM      3  N   UNL d   1      32.319  15.683 -23.714  0.00  0.00    -0.219 NA
ATOM      4  C   UNL d   1      32.996  16.794 -24.063  0.00  0.00     0.114 A 
ATOM      5  C   UNL d   1      33.071  16.033 -23.748  0.00  0.00     0.121 A 
ENDROOT
BRANCH   1   6
ATOM      6  S   UNL d   1      31.854  17.609 -24.549  0.00  0.00     0.273 S 
ATOM      7  O   UNL d   1      31.478  17.127 -25.097  0.00  0.00    -0.200 OA
ATOM      8  O   UNL d   1      31.415  18.126 -25.028  0.00  0.00    -0.200 OA
BRANCH   6   9
ATOM      9  C   UNL d   1      32.224  18.112 -24.005  0.00  0.00     0.104 A 
ATOM     10  C   UNL d   1      32.873  18.555 -24.242  0.00  0.00     0.013 A 
ATOM     11  C   UNL d   1      33.241  19.054 -23.700  0.00  0.00     0.001 A 
ATOM     12  C   UNL d   1      32.958  19.106 -22.928  0.00  0.00     0.000 A 
ATOM     13  C   UNL d   1      32.308  18.660 -22.696  0.00  0.00     0.001 A 
ATOM     14  C   UNL d   1      31.940  18.159 -23.243  0.00  0.00     0.013 A 
ENDBRANCH   6   9
ENDBRANCH   1   6
BRANCH   2  15
ATOM     15  S   UNL d   1      30.949  16.117 -24.080  0.00  0.00    -0.049 SA
BRANCH  15  16
ATOM     16  C   UNL d   1      30.579  15.523 -23.638  0.00  0.00     0.038 C 
BRANCH  16  17
ATOM     17  C   UNL d   1      29.750  15.518 -23.567  0.00  0.00     0.007 A 
ATOM     18  C   UNL d   1      29.391  15.458 -22.818  0.00  0.00     0.001 A 
ATOM     19  C   UNL d   1      28.573  15.453 -22.742  0.00  0.00     0.000 A 
ATOM     20  C   UNL d   1      28.101  15.507 -23.418  0.00  0.00     0.000 A 
ATOM     21  C   UNL d   1      28.456  15.567 -24.167  0.00  0.00     0.000 A 
ATOM     22  C   UNL d   1      27.280  15.502 -23.350  0.00  0.00     0.000 C 
ATOM     23  C   UNL d   1      29.278  15.572 -24.239  0.00  0.00     0.001 A 
ENDBRANCH  16  17
ENDBRANCH  15  16
ENDBRANCH   2  15
TORSDOF 5
ENDMDL
MODEL 3
REMARK VINA RESULT:      -0.9      2.950      5.630
REMARK  5 active torsions:
REMARK  status: ('A' for Active; 'I' for Inactive)
REMARK    1  A    between atoms: N_2  and  S_1 
REMARK    2  A    between atoms: C_8  and  S_1 
REMARK    3  A    between atoms: S_7  and  C_3 
REMARK    4  A    between atoms: C_11  and  S_7 
REMARK    5  A    between atoms: C_12  and  C_11 
ROOT
ATOM      1  N   UNL d   1      32.823  21.461 -21.949  0.00  0.00    -0.208 N 
ATOM      2  C   UNL d   1      32.994  20.939 -22.576  0.00  0.00     0.189 A 
ATOM      3  N   UNL d   1      33.241  21.391 -23.227  0.00  0.00    -0.219 NA
ATOM      4  C   UNL d   1      32.965  22.237 -22.216  0.00  0.00     0.114 A 
ATOM      5  C   UNL d   1      33.221  22.190 -23.000  0.00  0.00     0.121 A 
ENDROOT
BRANCH   1   6
ATOM      6  S   UNL d   1      32.558  21.240 -21.193  0.00  0.00     0.273 S 
ATOM      7  O   UNL d   1      32.535  20.467 -21.466  0.00  0.00    -0.200 OA
ATOM      8  O   UNL d   1      32.295  20.790 -20.547  0.00  0.00    -0.200 OA
BRANCH   6   9
ATOM      9  C   UNL d   1      32.575  22.015 -20.900  0.00  0.00     0.104 A 
ATOM     10  C   UNL d   1      33.224  22.267 -20.465  0.00  0.00     0.013 A 
ATOM     11  C   UNL d   1      33.239  23.038 -20.174  0.00  0.00     0.001 A 
ATOM     12  C   UNL d   1      32.608  23.547 -20.319  0.00  0.00     0.000 A 
ATOM     13  C   UNL d   1      31.962  23.289 -20.755  0.00  0.00     0.001 A 
ATOM     14  C   UNL d   1      31.949  22.514 -21.047  0.00  0.00     0.013 A 
ENDBRANCH   6   9
ENDBRANCH   1   6
BRANCH   2  15
ATOM     15  S   UNL d   1      32.929  20.108 -22.552  0.00  0.00    -0.049 SA
BRANCH  15  16
ATOM     16  C   UNL d   1      33.190  19.658 -23.195  0.00  0.00     0.038 C 
BRANCH  16  17
ATOM     17  C   UNL d   1      32.953  18.862 -23.265  0.00  0.00     0.007 A 
ATOM     18  C   UNL d   1      32.425  18.631 -23.865  0.00  0.00     0.001 A 
ATOM     19  C   UNL d   1      32.188  17.848 -23.939  0.00  0.00     0.000 A 
ATOM     20  C   UNL d   1      32.478  17.284 -23.410  0.00  0.00     0.000 A 
ATOM     21  C   UNL d   1      33.006  17.511 -22.809  0.00  0.00     0.000 A 
ATOM     22  C   UNL d   1      32.245  16.496 -23.477  0.00  0.00     0.000 C 
ATOM     23  C   UNL d   1      33.241  18.298 -22.739  0.00  0.00     0.001 A 
ENDBRANCH  16  17
ENDBRANCH  15  16
ENDBRANCH   2  15
TORSDOF 5
ENDMDL
MODEL 4
REMARK VINA RESULT:      -0.3      1.533      4.503
REMARK  5 active torsions:
REMARK  status: ('A' for Active; 'I' for Inactive)
REMARK    1  A    between atoms: N_2  and  S_1 
REMARK    2  A    between atoms: C_8  and  S_1 
REMARK    3  A    between atoms: S_7  and  C_3 
REMARK    4  A    between atoms: C_11  and  S_7 
REMARK    5  A    between atoms: C_12  and  C_11 
ROOT
ATOM      1  N   UNL d   1      32.910  19.073 -23.554  0.00  0.00    -0.208 N 
ATOM      2  C   UNL d   1      32.394  18.678 -24.074  0.00  0.00     0.189 A 
ATOM      3  N   UNL d   1      32.404  19.077 -24.802  0.00  0.00    -0.219 NA
ATOM      4  C   UNL d   1      33.241  19.720 -23.963  0.00  0.00     0.114 A 
ATOM      5  C   UNL d   1      32.928  19.718 -24.729  0.00  0.00     0.121 A 
ENDROOT
BRANCH   1   6
ATOM      6  S   UNL d   1      33.065  18.857 -22.767  0.00  0.00     0.273 S 
ATOM      7  O   UNL d   1      33.145  18.085 -23.032  0.00  0.00    -0.200 OA
ATOM      8  O   UNL d   1      33.238  18.412 -22.088  0.00  0.00    -0.200 OA
BRANCH   6   9
ATOM      9  C   UNL d   1      32.987  19.631 -22.481  0.00  0.00     0.104 A 
ATOM     10  C   UNL d   1      32.657  19.755 -21.740  0.00  0.00     0.013 A 
ATOM     11  C   UNL d   1      32.581  20.525 -21.456  0.00  0.00     0.001 A 
ATOM     12  C   UNL d   1      32.835  21.161 -21.914  0.00  0.00     0.000 A 
ATOM     13  C   UNL d   1      33.164  21.031 -22.655  0.00  0.00     0.001 A 
ATOM     14  C   UNL d   1      33.240  20.255 -22.938  0.00  0.00     0.013 A 
ENDBRANCH   6   9
ENDBRANCH   1   6
BRANCH   2  15
ATOM     15  S   UNL d   1      31.944  17.998 -23.895  0.00  0.00    -0.049 SA
BRANCH  15  16
ATOM     16  C   UNL d   1      31.481  17.646 -24.482  0.00  0.00     0.038 C 
BRANCH  16  17
ATOM     17  C   UNL d   1      30.796  17.223 -24.269  0.00  0.00     0.007 A 
ATOM     18  C   UNL d   1      30.041  17.536 -24.424  0.00  0.00     0.001 A 
ATOM     19  C   UNL d   1      29.362  17.124 -24.216  0.00  0.00     0.000 A 
ATOM     20  C   UNL d   1      29.430  16.387 -23.848  0.00  0.00     0.000 A 
ATOM     21  C   UNL d   1      30.183  16.071 -23.692  0.00  0.00     0.000 A 
ATOM     22  C   UNL d   1      28.754  15.966 -23.636  0.00  0.00     0.000 C 
ATOM     23  C   UNL d   1      30.862  16.489 -23.903  0.00  0.00     0.001 A 
ENDBRANCH  16  17
ENDBRANCH  15  16
ENDBRANCH   2  15
TORSDOF 5
ENDMDL
