MODEL 1
REMARK VINA RESULT:      31.1      0.000      0.000
REMARK  1 active torsions:
REMARK  status: ('A' for Active; 'I' for Inactive)
REMARK    1  A    between atoms: C_10  and  N_3 
ROOT
ATOM      1  C   UNL d   1     -51.274  25.326  33.575  0.00  0.00     0.166 A 
ATOM      2  C   UNL d   1     -52.020  25.642  33.440  0.00  0.00     0.117 A 
ATOM      3  N   UNL d   1     -51.376  24.506  33.640  0.00  0.00    -0.289 N 
ATOM      4  N   UNL d   1     -50.600  25.811  33.623  0.00  0.00    -0.225 NA
ATOM      5  N   UNL d   1     -52.074  26.463  33.354  0.00  0.00    -0.241 NA
ATOM      6  C   UNL d   1     -52.565  25.044  33.421  0.00  0.00     0.037 A 
ATOM      7  C   UNL d   1     -52.164  24.336  33.546  0.00  0.00     0.067 A 
ATOM      8  C   UNL d   1     -50.672  26.611  33.536  0.00  0.00     0.101 A 
ATOM      9  C   UNL d   1     -51.422  26.934  33.400  0.00  0.00     0.099 A 
ATOM     10  C   UNL d   1     -53.381  25.036  33.308  0.00  0.00     0.003 A 
ATOM     11  C   UNL d   1     -52.579  23.621  33.556  0.00  0.00     0.018 A 
ATOM     12  C   UNL d   1     -51.501  27.741  33.311  0.00  0.00     0.021 A 
ATOM     13  C   UNL d   1     -50.027  27.087  33.580  0.00  0.00     0.021 A 
ATOM     14  C   UNL d   1     -53.800  24.325  33.318  0.00  0.00     0.000 A 
ATOM     15  C   UNL d   1     -53.399  23.618  33.442  0.00  0.00     0.002 A 
ATOM     16  C   UNL d   1     -50.842  28.251  33.354  0.00  0.00     0.002 A 
ATOM     17  C   UNL d   1     -50.117  27.918  33.488  0.00  0.00     0.002 A 
ENDROOT
BRANCH   3  18
ATOM     18  C   UNL d   1     -50.788  23.971  33.774  0.00  0.00     0.082 C 
ATOM     19  C   UNL d   1     -51.001  23.189  34.010  0.00  0.00     0.021 C 
ENDBRANCH   3  18
TORSDOF 1
ENDMDL
