MODEL 1
REMARK VINA RESULT:      -8.2      0.000      0.000
REMARK  3 active torsions:
REMARK  status: ('A' for Active; 'I' for Inactive)
REMARK    1  A    between atoms: C_7  and  N_1 
REMARK    2  A    between atoms: C_2  and  C_5 
REMARK    3  A    between atoms: N_3  and  C_2 
REMARK       I    between atoms: C_6  and  N_4 
ROOT
ATOM      1  C   UNL d   1     -48.623  12.622  22.230  0.00  0.00     0.120 C 
ATOM      2  S   UNL d   1     -48.800  12.161  21.568  0.00  0.00    -0.059 SA
ENDROOT
BRANCH   1   3
ATOM      3  C   UNL d   1     -47.955  12.443  22.693  0.00  0.00     0.028 A 
ATOM      4  C   UNL d   1     -47.268  12.897  22.616  0.00  0.00     0.026 A 
ATOM      5  C   UNL d   1     -46.604  12.723  23.073  0.00  0.00     0.127 A 
ATOM      6  C   UNL d   1     -46.627  12.094  23.607  0.00  0.00     0.024 A 
ATOM      7  C   UNL d   1     -47.313  11.640  23.684  0.00  0.00     0.002 A 
ATOM      8  C   UNL d   1     -47.978  11.814  23.227  0.00  0.00     0.002 A 
BRANCH   5   9
ATOM      9  N   UNL d   1     -45.915  13.174  23.000  0.00  0.00    -0.114 N 
ATOM     10  O   UNL d   1     -45.290  12.922  22.522  0.00  0.00    -0.532 OA
ATOM     11  O   UNL d   1     -45.862  13.885  23.415  0.00  0.00    -0.532 OA
ENDBRANCH   5   9
ENDBRANCH   1   3
BRANCH   1  12
ATOM     12  N   UNL d   1     -49.108  13.258  22.432  0.00  0.00    -0.293 N 
ATOM     13  C   UNL d   1     -49.608  13.204  23.092  0.00  0.00     0.100 A 
ATOM     14  C   UNL d   1     -50.093  13.840  23.294  0.00  0.00     0.102 A 
ATOM     15  N   UNL d   1     -50.081  14.532  22.840  0.00  0.00    -0.269 N 
ATOM     16  C   UNL d   1     -49.582  14.585  22.182  0.00  0.00     0.102 A 
ATOM     17  C   UNL d   1     -50.566  15.167  23.044  0.00  0.00     0.265 C 
ATOM     18  C   UNL d   1     -49.097  13.949  21.979  0.00  0.00     0.100 A 
ATOM     19  O   UNL d   1     -50.555  15.858  22.590  0.00  0.00    -0.267 OA
ATOM     20  C   UNL d   1     -51.063  15.116  23.698  0.00  0.00     0.066 C 
ENDBRANCH   1  12
TORSDOF 3
ENDMDL
MODEL 2
REMARK VINA RESULT:      -7.7      0.881      3.915
REMARK  3 active torsions:
REMARK  status: ('A' for Active; 'I' for Inactive)
REMARK    1  A    between atoms: C_7  and  N_1 
REMARK    2  A    between atoms: C_2  and  C_5 
REMARK    3  A    between atoms: N_3  and  C_2 
REMARK       I    between atoms: C_6  and  N_4 
ROOT
ATOM      1  C   UNL d   1     -49.429  12.740  22.214  0.00  0.00     0.120 C 
ATOM      2  S   UNL d   1     -49.644  12.535  21.443  0.00  0.00    -0.059 SA
ENDROOT
BRANCH   1   3
ATOM      3  C   UNL d   1     -49.969  13.147  22.699  0.00  0.00     0.028 A 
ATOM      4  C   UNL d   1     -50.010  13.973  22.665  0.00  0.00     0.026 A 
ATOM      5  C   UNL d   1     -50.544  14.380  23.145  0.00  0.00     0.127 A 
ATOM      6  C   UNL d   1     -51.036  13.962  23.658  0.00  0.00     0.024 A 
ATOM      7  C   UNL d   1     -50.995  13.137  23.692  0.00  0.00     0.002 A 
ATOM      8  C   UNL d   1     -50.462  12.729  23.212  0.00  0.00     0.002 A 
BRANCH   5   9
ATOM      9  N   UNL d   1     -50.588  15.205  23.115  0.00  0.00    -0.114 N 
ATOM     10  O   UNL d   1     -50.169  15.674  23.651  0.00  0.00    -0.532 OA
ATOM     11  O   UNL d   1     -51.061  15.555  22.536  0.00  0.00    -0.532 OA
ENDBRANCH   5   9
ENDBRANCH   1   3
BRANCH   1  12
ATOM     12  N   UNL d   1     -48.682  12.540  22.503  0.00  0.00    -0.293 N 
ATOM     13  C   UNL d   1     -48.552  11.790  22.831  0.00  0.00     0.100 A 
ATOM     14  C   UNL d   1     -47.805  11.591  23.120  0.00  0.00     0.102 A 
ATOM     15  N   UNL d   1     -47.187  12.139  23.083  0.00  0.00    -0.269 N 
ATOM     16  C   UNL d   1     -47.317  12.888  22.755  0.00  0.00     0.102 A 
ATOM     17  C   UNL d   1     -46.440  11.939  23.372  0.00  0.00     0.265 C 
ATOM     18  C   UNL d   1     -48.064  13.088  22.466  0.00  0.00     0.100 A 
ATOM     19  O   UNL d   1     -45.822  12.486  23.334  0.00  0.00    -0.267 OA
ATOM     20  C   UNL d   1     -46.309  11.195  23.698  0.00  0.00     0.066 C 
ENDBRANCH   1  12
TORSDOF 3
ENDMDL
MODEL 3
REMARK VINA RESULT:      -7.4      1.932      4.105
REMARK  3 active torsions:
REMARK  status: ('A' for Active; 'I' for Inactive)
REMARK    1  A    between atoms: C_7  and  N_1 
REMARK    2  A    between atoms: C_2  and  C_5 
REMARK    3  A    between atoms: N_3  and  C_2 
REMARK       I    between atoms: C_6  and  N_4 
ROOT
ATOM      1  C   UNL d   1     -48.305  13.684  22.698  0.00  0.00     0.120 C 
ATOM      2  S   UNL d   1     -48.456  14.457  22.948  0.00  0.00    -0.059 SA
ENDROOT
BRANCH   1   3
ATOM      3  C   UNL d   1     -48.937  13.189  22.479  0.00  0.00     0.028 A 
ATOM      4  C   UNL d   1     -49.322  12.735  23.053  0.00  0.00     0.026 A 
ATOM      5  C   UNL d   1     -49.949  12.243  22.839  0.00  0.00     0.127 A 
ATOM      6  C   UNL d   1     -50.191  12.205  22.052  0.00  0.00     0.024 A 
ATOM      7  C   UNL d   1     -49.805  12.658  21.478  0.00  0.00     0.002 A 
ATOM      8  C   UNL d   1     -49.178  13.151  21.691  0.00  0.00     0.002 A 
BRANCH   5   9
ATOM      9  N   UNL d   1     -50.337  11.788  23.410  0.00  0.00    -0.114 N 
ATOM     10  O   UNL d   1     -50.006  11.084  23.690  0.00  0.00    -0.532 OA
ATOM     11  O   UNL d   1     -51.064  12.049  23.698  0.00  0.00    -0.532 OA
ENDBRANCH   5   9
ENDBRANCH   1   3
BRANCH   1  12
ATOM     12  N   UNL d   1     -47.529  13.404  22.665  0.00  0.00    -0.293 N 
ATOM     13  C   UNL d   1     -47.036  13.623  22.036  0.00  0.00     0.100 A 
ATOM     14  C   UNL d   1     -46.261  13.343  22.004  0.00  0.00     0.102 A 
ATOM     15  N   UNL d   1     -45.975  12.844  22.598  0.00  0.00    -0.269 N 
ATOM     16  C   UNL d   1     -46.468  12.625  23.226  0.00  0.00     0.102 A 
ATOM     17  C   UNL d   1     -45.200  12.564  22.564  0.00  0.00     0.265 C 
ATOM     18  C   UNL d   1     -47.243  12.905  23.260  0.00  0.00     0.100 A 
ATOM     19  O   UNL d   1     -44.914  12.065  23.158  0.00  0.00    -0.267 OA
ATOM     20  C   UNL d   1     -44.709  12.780  21.941  0.00  0.00     0.066 C 
ENDBRANCH   1  12
TORSDOF 3
ENDMDL
MODEL 4
REMARK VINA RESULT:      -6.9      1.607      2.028
REMARK  3 active torsions:
REMARK  status: ('A' for Active; 'I' for Inactive)
REMARK    1  A    between atoms: C_7  and  N_1 
REMARK    2  A    between atoms: C_2  and  C_5 
REMARK    3  A    between atoms: N_3  and  C_2 
REMARK       I    between atoms: C_6  and  N_4 
ROOT
ATOM      1  C   UNL d   1     -47.475  12.392  23.179  0.00  0.00     0.120 C 
ATOM      2  S   UNL d   1     -47.339  11.763  23.696  0.00  0.00    -0.059 SA
ENDROOT
BRANCH   1   3
ATOM      3  C   UNL d   1     -46.850  12.903  22.975  0.00  0.00     0.028 A 
ATOM      4  C   UNL d   1     -46.208  12.616  22.541  0.00  0.00     0.026 A 
ATOM      5  C   UNL d   1     -45.587  13.120  22.338  0.00  0.00     0.127 A 
ATOM      6  C   UNL d   1     -45.608  13.911  22.569  0.00  0.00     0.024 A 
ATOM      7  C   UNL d   1     -46.250  14.199  23.004  0.00  0.00     0.002 A 
ATOM      8  C   UNL d   1     -46.872  13.695  23.207  0.00  0.00     0.002 A 
BRANCH   5   9
ATOM      9  N   UNL d   1     -44.943  12.837  21.903  0.00  0.00    -0.114 N 
ATOM     10  O   UNL d   1     -44.915  12.920  21.081  0.00  0.00    -0.532 OA
ATOM     11  O   UNL d   1     -44.325  12.467  22.306  0.00  0.00    -0.532 OA
ENDBRANCH   5   9
ENDBRANCH   1   3
BRANCH   1  12
ATOM     12  N   UNL d   1     -48.228  12.514  22.863  0.00  0.00    -0.293 N 
ATOM     13  C   UNL d   1     -48.788  12.953  23.288  0.00  0.00     0.100 A 
ATOM     14  C   UNL d   1     -49.541  13.075  22.973  0.00  0.00     0.102 A 
ATOM     15  N   UNL d   1     -49.737  12.760  22.234  0.00  0.00    -0.269 N 
ATOM     16  C   UNL d   1     -49.177  12.321  21.810  0.00  0.00     0.102 A 
ATOM     17  C   UNL d   1     -50.490  12.882  21.920  0.00  0.00     0.265 C 
ATOM     18  C   UNL d   1     -48.424  12.199  22.124  0.00  0.00     0.100 A 
ATOM     19  O   UNL d   1     -50.686  12.567  21.181  0.00  0.00    -0.267 OA
ATOM     20  C   UNL d   1     -51.048  13.318  22.340  0.00  0.00     0.066 C 
ENDBRANCH   1  12
TORSDOF 3
ENDMDL
MODEL 5
REMARK VINA RESULT:      -5.5      8.795      9.481
REMARK  3 active torsions:
REMARK  status: ('A' for Active; 'I' for Inactive)
REMARK    1  A    between atoms: C_7  and  N_1 
REMARK    2  A    between atoms: C_2  and  C_5 
REMARK    3  A    between atoms: N_3  and  C_2 
REMARK       I    between atoms: C_6  and  N_4 
ROOT
ATOM      1  C   UNL d   1     -40.552  15.372  20.606  0.00  0.00     0.120 C 
ATOM      2  S   UNL d   1     -41.268  15.583  20.961  0.00  0.00    -0.059 SA
ENDROOT
BRANCH   1   3
ATOM      3  C   UNL d   1     -39.875  15.258  21.076  0.00  0.00     0.028 A 
ATOM      4  C   UNL d   1     -39.697  14.504  21.365  0.00  0.00     0.026 A 
ATOM      5  C   UNL d   1     -39.026  14.388  21.831  0.00  0.00     0.127 A 
ATOM      6  C   UNL d   1     -38.533  15.025  22.008  0.00  0.00     0.024 A 
ATOM      7  C   UNL d   1     -38.711  15.779  21.719  0.00  0.00     0.002 A 
ATOM      8  C   UNL d   1     -39.382  15.896  21.253  0.00  0.00     0.002 A 
BRANCH   5   9
ATOM      9  N   UNL d   1     -38.845  13.635  22.123  0.00  0.00    -0.114 N 
ATOM     10  O   UNL d   1     -39.140  13.378  22.851  0.00  0.00    -0.532 OA
ATOM     11  O   UNL d   1     -38.361  13.142  21.672  0.00  0.00    -0.532 OA
ENDBRANCH   5   9
ENDBRANCH   1   3
BRANCH   1  12
ATOM     12  N   UNL d   1     -40.509  15.275  19.788  0.00  0.00    -0.293 N 
ATOM     13  C   UNL d   1     -40.317  15.921  19.305  0.00  0.00     0.100 A 
ATOM     14  C   UNL d   1     -40.273  15.824  18.486  0.00  0.00     0.102 A 
ATOM     15  N   UNL d   1     -40.421  15.084  18.148  0.00  0.00    -0.269 N 
ATOM     16  C   UNL d   1     -40.613  14.439  18.631  0.00  0.00     0.102 A 
ATOM     17  C   UNL d   1     -40.378  14.988  17.329  0.00  0.00     0.265 C 
ATOM     18  C   UNL d   1     -40.657  14.535  19.449  0.00  0.00     0.100 A 
ATOM     19  O   UNL d   1     -40.526  14.248  16.991  0.00  0.00    -0.267 OA
ATOM     20  C   UNL d   1     -40.187  15.627  16.848  0.00  0.00     0.066 C 
ENDBRANCH   1  12
TORSDOF 3
ENDMDL
MODEL 6
REMARK VINA RESULT:      -5.4      9.588     10.362
REMARK  3 active torsions:
REMARK  status: ('A' for Active; 'I' for Inactive)
REMARK    1  A    between atoms: C_7  and  N_1 
REMARK    2  A    between atoms: C_2  and  C_5 
REMARK    3  A    between atoms: N_3  and  C_2 
REMARK       I    between atoms: C_6  and  N_4 
ROOT
ATOM      1  C   UNL d   1     -38.926  14.932  19.838  0.00  0.00     0.120 C 
ATOM      2  S   UNL d   1     -38.569  15.673  19.764  0.00  0.00    -0.059 SA
ENDROOT
BRANCH   1   3
ATOM      3  C   UNL d   1     -39.380  14.627  19.210  0.00  0.00     0.028 A 
ATOM      4  C   UNL d   1     -39.021  14.154  18.635  0.00  0.00     0.026 A 
ATOM      5  C   UNL d   1     -39.468  13.850  18.012  0.00  0.00     0.127 A 
ATOM      6  C   UNL d   1     -40.274  14.018  17.964  0.00  0.00     0.024 A 
ATOM      7  C   UNL d   1     -40.633  14.491  18.539  0.00  0.00     0.002 A 
ATOM      8  C   UNL d   1     -40.186  14.796  19.163  0.00  0.00     0.002 A 
BRANCH   5   9
ATOM      9  N   UNL d   1     -39.113  13.376  17.434  0.00  0.00    -0.114 N 
ATOM     10  O   UNL d   1     -39.038  12.560  17.539  0.00  0.00    -0.532 OA
ATOM     11  O   UNL d   1     -38.833  13.734  16.745  0.00  0.00    -0.532 OA
ENDBRANCH   5   9
ENDBRANCH   1   3
BRANCH   1  12
ATOM     12  N   UNL d   1     -38.833  14.495  20.531  0.00  0.00    -0.293 N 
ATOM     13  C   UNL d   1     -39.359  14.605  21.163  0.00  0.00     0.100 A 
ATOM     14  C   UNL d   1     -39.266  14.168  21.857  0.00  0.00     0.102 A 
ATOM     15  N   UNL d   1     -38.650  13.621  21.923  0.00  0.00    -0.269 N 
ATOM     16  C   UNL d   1     -38.125  13.511  21.292  0.00  0.00     0.102 A 
ATOM     17  C   UNL d   1     -38.558  13.184  22.617  0.00  0.00     0.265 C 
ATOM     18  C   UNL d   1     -38.217  13.947  20.598  0.00  0.00     0.100 A 
ATOM     19  O   UNL d   1     -37.941  12.637  22.683  0.00  0.00    -0.267 OA
ATOM     20  C   UNL d   1     -39.078  13.292  23.245  0.00  0.00     0.066 C 
ENDBRANCH   1  12
TORSDOF 3
ENDMDL
