MODEL 1
REMARK VINA RESULT:      45.0      0.000      0.000
REMARK  5 active torsions:
REMARK  status: ('A' for Active; 'I' for Inactive)
REMARK    1  A    between atoms: C_10  and  C_4 
REMARK    2  A    between atoms: C_19  and  N_5 
REMARK       I    between atoms: N_11  and  C_10 
REMARK    3  A    between atoms: C_22  and  C_19 
REMARK    4  A    between atoms: C_26  and  C_22 
REMARK    5  A    between atoms: O_23  and  C_26 
ROOT
ATOM      1  C   UNL d   1      14.090  13.665  -2.679  0.00  0.00     0.154 A 
ATOM      2  C   UNL d   1      13.893  14.257  -3.219  0.00  0.00     0.093 A 
ATOM      3  N   UNL d   1      13.902  12.894  -2.835  0.00  0.00    -0.210 NA
ATOM      4  C   UNL d   1      14.650  14.603  -1.852  0.00  0.00     0.122 A 
ATOM      5  N   UNL d   1      14.465  13.838  -2.002  0.00  0.00    -0.286 N 
ATOM      6  C   UNL d   1      13.512  14.085  -3.908  0.00  0.00     0.269 A 
ATOM      7  N   UNL d   1      13.329  13.310  -4.054  0.00  0.00    -0.258 N 
ATOM      8  C   UNL d   1      13.525  12.717  -3.515  0.00  0.00     0.152 A 
ATOM      9  C   UNL d   1      14.456  15.187  -2.382  0.00  0.00     0.030 A 
ATOM     10  C   UNL d   1      12.948  13.145  -4.744  0.00  0.00     0.084 A 
ATOM     11  O   UNL d   1      13.316  14.678  -4.448  0.00  0.00    -0.266 OA
ATOM     12  C   UNL d   1      13.341  11.959  -3.666  0.00  0.00     0.038 A 
ATOM     13  C   UNL d   1      12.769  12.372  -4.882  0.00  0.00     0.019 A 
ATOM     14  C   UNL d   1      12.966  11.779  -4.343  0.00  0.00     0.005 A 
ENDROOT
BRANCH   4  15
ATOM     15  C   UNL d   1      15.034  14.780  -1.156  0.00  0.00     0.281 C 
ATOM     16  N   UNL d   1      15.190  15.580  -0.973  0.00  0.00    -0.267 N 
ATOM     17  C   UNL d   1      15.585  15.765  -0.259  0.00  0.00     0.110 A 
ATOM     18  C   UNL d   1      14.952  16.186  -1.499  0.00  0.00     0.110 A 
ATOM     19  C   UNL d   1      15.744  16.566  -0.069  0.00  0.00     0.142 A 
ATOM     20  O   UNL d   1      15.509  17.178  -0.591  0.00  0.00    -0.300 OA
ATOM     21  C   UNL d   1      15.113  16.986  -1.305  0.00  0.00     0.142 A 
ATOM     22  O   UNL d   1      15.263  14.177  -0.648  0.00  0.00    -0.265 OA
ENDBRANCH   4  15
BRANCH   5  23
ATOM     23  C   UNL d   1      14.660  13.234  -1.463  0.00  0.00     0.084 C 
BRANCH  23  24
ATOM     24  C   UNL d   1      14.060  12.778  -1.110  0.00  0.00     0.045 C 
BRANCH  24  25
ATOM     25  C   UNL d   1      14.160  12.499  -0.332  0.00  0.00     0.118 C 
BRANCH  25  26
ATOM     26  O   UNL d   1      14.563  11.784  -0.201  0.00  0.00    -0.326 OA
ATOM     27  C   UNL d   1      15.387  11.791  -0.049  0.00  0.00     0.181 C 
ENDBRANCH  25  26
ENDBRANCH  24  25
ENDBRANCH  23  24
ENDBRANCH   5  23
TORSDOF 5
ENDMDL
