MODEL 1
REMARK VINA RESULT:      54.1      0.000      0.000
REMARK  2 active torsions:
REMARK  status: ('A' for Active; 'I' for Inactive)
REMARK    1  A    between atoms: C_18  and  N_5 
REMARK    2  A    between atoms: C_21  and  C_18 
ROOT
ATOM      1  C   UNL d   1      59.305  49.627  51.254  0.00  0.00     0.155 A 
ATOM      2  C   UNL d   1      58.992  49.658  52.017  0.00  0.00     0.092 A 
ATOM      3  N   UNL d   1      58.793  49.607  50.603  0.00  0.00    -0.210 NA
ATOM      4  N   UNL d   1      57.676  49.648  51.481  0.00  0.00    -0.258 N 
ATOM      5  N   UNL d   1      60.120  49.617  51.143  0.00  0.00    -0.275 N 
ATOM      6  C   UNL d   1      57.985  49.618  50.717  0.00  0.00     0.152 A 
ATOM      7  C   UNL d   1      58.175  49.668  52.132  0.00  0.00     0.269 A 
ATOM      8  C   UNL d   1      60.313  49.667  52.560  0.00  0.00     0.105 A 
ATOM      9  C   UNL d   1      60.632  49.636  51.785  0.00  0.00     0.180 A 
ATOM     10  C   UNL d   1      59.498  49.678  52.670  0.00  0.00     0.021 A 
ATOM     11  C   UNL d   1      57.484  49.598  50.074  0.00  0.00     0.035 A 
ATOM     12  C   UNL d   1      60.820  49.687  53.204  0.00  0.00     0.104 C 
ATOM     13  N   UNL d   1      61.323  49.707  53.852  0.00  0.00    -0.191 NA
ATOM     14  C   UNL d   1      56.857  49.659  51.599  0.00  0.00     0.084 A 
ATOM     15  N   UNL d   1      61.456  49.632  51.854  0.00  0.00    -0.128 N 
ATOM     16  O   UNL d   1      57.865  49.699  52.896  0.00  0.00    -0.266 OA
ATOM     17  C   UNL d   1      56.358  49.639  50.939  0.00  0.00     0.019 A 
ATOM     18  C   UNL d   1      56.671  49.609  50.177  0.00  0.00     0.005 A 
ATOM     19  C   UNL d   1      57.797  49.568  49.312  0.00  0.00     0.003 C 
ENDROOT
BRANCH   5  20
ATOM     20  C   UNL d   1      60.426  49.586  50.378  0.00  0.00     0.067 C 
ATOM     21  C   UNL d   1      59.901  49.707  49.751  0.00  0.00     0.019 C 
BRANCH  20  22
ATOM     22  C   UNL d   1      61.223  49.444  50.175  0.00  0.00     0.018 C 
ATOM     23  C   UNL d   1      61.553  49.507  49.416  0.00  0.00     0.002 C 
ENDBRANCH  20  22
ENDBRANCH   5  20
TORSDOF 2
ENDMDL
