MODEL 1
REMARK VINA RESULT:      -2.4      0.000      0.000
REMARK  6 active torsions:
REMARK  status: ('A' for Active; 'I' for Inactive)
REMARK    1  A    between atoms: O_8  and  C_1 
REMARK    2  A    between atoms: C_2  and  C_3 
REMARK    3  A    between atoms: C_3  and  O_8 
REMARK    4  A    between atoms: C_4  and  S_17 
REMARK    5  A    between atoms: C_23  and  C_14 
REMARK    6  A    between atoms: S_17  and  C_23 
ROOT
ATOM      1  C   UNL d   1      32.430  17.966 -23.991  0.00  0.00     0.167 A 
ATOM      2  C   UNL d   1      32.970  18.534 -24.262  0.00  0.00     0.222 A 
ATOM      3  C   UNL d   1      33.237  19.112 -23.728  0.00  0.00     0.069 A 
ATOM      4  C   UNL d   1      32.164  17.975 -23.210  0.00  0.00     0.151 A 
ATOM      5  C   UNL d   1      32.971  19.120 -22.947  0.00  0.00     0.110 A 
ATOM      6  O   UNL d   1      32.436  18.551 -22.692  0.00  0.00    -0.302 OA
ATOM      7  O   UNL d   1      33.233  18.526 -25.035  0.00  0.00    -0.284 OA
ENDROOT
BRANCH   5   8
ATOM      8  C   UNL d   1      33.241  19.696 -22.426  0.00  0.00     0.063 C 
BRANCH   8   9
ATOM      9  S   UNL d   1      32.608  20.223 -22.348  0.00  0.00    -0.046 SA
BRANCH   9  10
ATOM     10  C   UNL d   1      32.703  20.920 -21.929  0.00  0.00     0.194 A 
ATOM     11  N   UNL d   1      32.641  20.915 -21.109  0.00  0.00    -0.221 NA
ATOM     12  C   UNL d   1      32.736  21.607 -20.692  0.00  0.00     0.085 A 
ATOM     13  C   UNL d   1      32.673  21.601 -19.872  0.00  0.00     0.021 C 
ATOM     14  C   UNL d   1      32.894  22.315 -21.087  0.00  0.00     0.038 A 
ATOM     15  C   UNL d   1      32.954  22.306 -21.911  0.00  0.00     0.085 A 
ATOM     16  N   UNL d   1      32.858  21.609 -22.322  0.00  0.00    -0.221 NA
ATOM     17  C   UNL d   1      33.112  23.014 -22.306  0.00  0.00     0.021 C 
ENDBRANCH   9  10
ENDBRANCH   8   9
ENDBRANCH   5   8
BRANCH   1  18
ATOM     18  O   UNL d   1      32.047  17.321 -24.343  0.00  0.00    -0.266 OA
BRANCH  18  19
ATOM     19  C   UNL d   1      31.261  17.385 -24.579  0.00  0.00     0.323 C 
ATOM     20  O   UNL d   1      30.933  18.117 -24.695  0.00  0.00    -0.257 OA
BRANCH  19  21
ATOM     21  C   UNL d   1      30.797  16.706 -24.699  0.00  0.00     0.164 A 
ATOM     22  O   UNL d   1      29.987  16.682 -24.625  0.00  0.00    -0.295 OA
ATOM     23  C   UNL d   1      29.763  15.909 -24.792  0.00  0.00     0.134 A 
ATOM     24 BR   UNL d   1      28.990  15.635 -24.782  0.00  0.00    -0.022 Br
ATOM     25  C   UNL d   1      30.416  15.482 -24.961  0.00  0.00     0.034 A 
ATOM     26  C   UNL d   1      31.059  15.979 -24.903  0.00  0.00     0.033 A 
ENDBRANCH  19  21
ENDBRANCH  18  19
ENDBRANCH   1  18
TORSDOF 6
ENDMDL
MODEL 2
REMARK VINA RESULT:      -0.9      3.726      6.473
REMARK  6 active torsions:
REMARK  status: ('A' for Active; 'I' for Inactive)
REMARK    1  A    between atoms: O_8  and  C_1 
REMARK    2  A    between atoms: C_2  and  C_3 
REMARK    3  A    between atoms: C_3  and  O_8 
REMARK    4  A    between atoms: C_4  and  S_17 
REMARK    5  A    between atoms: C_23  and  C_14 
REMARK    6  A    between atoms: S_17  and  C_23 
ROOT
ATOM      1  C   UNL d   1      32.494  22.573 -20.629  0.00  0.00     0.167 A 
ATOM      2  C   UNL d   1      31.893  22.573 -21.200  0.00  0.00     0.222 A 
ATOM      3  C   UNL d   1      31.982  22.088 -21.867  0.00  0.00     0.069 A 
ATOM      4  C   UNL d   1      33.165  22.102 -20.722  0.00  0.00     0.151 A 
ATOM      5  C   UNL d   1      32.653  21.617 -21.960  0.00  0.00     0.110 A 
ATOM      6  O   UNL d   1      33.241  21.627 -21.386  0.00  0.00    -0.302 OA
ATOM      7  O   UNL d   1      31.228  23.040 -21.108  0.00  0.00    -0.284 OA
ENDROOT
BRANCH   5   8
ATOM      8  C   UNL d   1      32.732  21.139 -22.625  0.00  0.00     0.063 C 
BRANCH   8   9
ATOM      9  S   UNL d   1      33.140  20.471 -22.357  0.00  0.00    -0.046 SA
BRANCH   9  10
ATOM     10  C   UNL d   1      33.139  19.784 -22.802  0.00  0.00     0.194 A 
ATOM     11  N   UNL d   1      33.118  19.054 -22.424  0.00  0.00    -0.221 NA
ATOM     12  C   UNL d   1      33.118  18.370 -22.865  0.00  0.00     0.085 A 
ATOM     13  C   UNL d   1      33.097  17.640 -22.487  0.00  0.00     0.021 C 
ATOM     14  C   UNL d   1      33.139  18.405 -23.690  0.00  0.00     0.038 A 
ATOM     15  C   UNL d   1      33.160  19.144 -24.057  0.00  0.00     0.085 A 
ATOM     16  N   UNL d   1      33.160  19.825 -23.608  0.00  0.00    -0.221 NA
ATOM     17  C   UNL d   1      33.181  19.179 -24.882  0.00  0.00     0.021 C 
ENDBRANCH   9  10
ENDBRANCH   8   9
ENDBRANCH   5   8
BRANCH   1  18
ATOM     18  O   UNL d   1      32.605  22.970 -19.909  0.00  0.00    -0.266 OA
BRANCH  18  19
ATOM     19  C   UNL d   1      32.879  22.560 -19.249  0.00  0.00     0.323 C 
ATOM     20  O   UNL d   1      33.196  21.820 -19.337  0.00  0.00    -0.257 OA
BRANCH  19  21
ATOM     21  C   UNL d   1      32.834  22.898 -18.491  0.00  0.00     0.164 A 
ATOM     22  O   UNL d   1      33.156  22.570 -17.820  0.00  0.00    -0.295 OA
ATOM     23  C   UNL d   1      32.981  23.085 -17.204  0.00  0.00     0.134 A 
ATOM     24 BR   UNL d   1      33.202  22.970 -16.423  0.00  0.00    -0.022 Br
ATOM     25  C   UNL d   1      32.567  23.702 -17.495  0.00  0.00     0.034 A 
ATOM     26  C   UNL d   1      32.476  23.585 -18.295  0.00  0.00     0.033 A 
ENDBRANCH  19  21
ENDBRANCH  18  19
ENDBRANCH   1  18
TORSDOF 6
ENDMDL
MODEL 3
REMARK VINA RESULT:       0.6      2.719      5.477
REMARK  6 active torsions:
REMARK  status: ('A' for Active; 'I' for Inactive)
REMARK    1  A    between atoms: O_8  and  C_1 
REMARK    2  A    between atoms: C_2  and  C_3 
REMARK    3  A    between atoms: C_3  and  O_8 
REMARK    4  A    between atoms: C_4  and  S_17 
REMARK    5  A    between atoms: C_23  and  C_14 
REMARK    6  A    between atoms: S_17  and  C_23 
ROOT
ATOM      1  C   UNL d   1      32.794  18.428 -23.455  0.00  0.00     0.167 A 
ATOM      2  C   UNL d   1      32.730  17.651 -23.171  0.00  0.00     0.222 A 
ATOM      3  C   UNL d   1      32.206  17.133 -23.555  0.00  0.00     0.069 A 
ATOM      4  C   UNL d   1      32.349  18.679 -24.103  0.00  0.00     0.151 A 
ATOM      5  C   UNL d   1      31.762  17.385 -24.202  0.00  0.00     0.110 A 
ATOM      6  O   UNL d   1      31.836  18.157 -24.473  0.00  0.00    -0.302 OA
ATOM      7  O   UNL d   1      33.170  17.402 -22.530  0.00  0.00    -0.284 OA
ENDROOT
BRANCH   5   8
ATOM      8  C   UNL d   1      31.246  16.864 -24.575  0.00  0.00     0.063 C 
BRANCH   8   9
ATOM      9  S   UNL d   1      30.492  17.112 -24.344  0.00  0.00    -0.046 SA
BRANCH   9  10
ATOM     10  C   UNL d   1      29.919  16.560 -24.149  0.00  0.00     0.194 A 
ATOM     11  N   UNL d   1      29.870  16.281 -23.377  0.00  0.00    -0.221 NA
ATOM     12  C   UNL d   1      29.302  15.732 -23.181  0.00  0.00     0.085 A 
ATOM     13  C   UNL d   1      29.253  15.453 -22.409  0.00  0.00     0.021 C 
ATOM     14  C   UNL d   1      28.775  15.454 -23.753  0.00  0.00     0.038 A 
ATOM     15  C   UNL d   1      28.835  15.743 -24.524  0.00  0.00     0.085 A 
ATOM     16  N   UNL d   1      29.407  16.292 -24.713  0.00  0.00    -0.221 NA
ATOM     17  C   UNL d   1      28.308  15.464 -25.096  0.00  0.00     0.021 C 
ENDBRANCH   9  10
ENDBRANCH   8   9
ENDBRANCH   5   8
BRANCH   1  18
ATOM     18  O   UNL d   1      33.241  19.088 -23.229  0.00  0.00    -0.266 OA
BRANCH  18  19
ATOM     19  C   UNL d   1      32.903  19.840 -23.239  0.00  0.00     0.323 C 
ATOM     20  O   UNL d   1      32.475  20.081 -23.883  0.00  0.00    -0.257 OA
BRANCH  19  21
ATOM     21  C   UNL d   1      32.996  20.354 -22.593  0.00  0.00     0.164 A 
ATOM     22  O   UNL d   1      33.046  20.115 -21.817  0.00  0.00    -0.295 OA
ATOM     23  C   UNL d   1      33.134  20.800 -21.369  0.00  0.00     0.134 A 
ATOM     24 BR   UNL d   1      33.206  20.817 -20.553  0.00  0.00    -0.022 Br
ATOM     25  C   UNL d   1      33.137  21.429 -21.861  0.00  0.00     0.034 A 
ATOM     26  C   UNL d   1      33.051  21.151 -22.621  0.00  0.00     0.033 A 
ENDBRANCH  19  21
ENDBRANCH  18  19
ENDBRANCH   1  18
TORSDOF 6
ENDMDL
