MODEL 1
REMARK VINA RESULT:      52.2      0.000      0.000
REMARK  2 active torsions:
REMARK  status: ('A' for Active; 'I' for Inactive)
REMARK    1  A    between atoms: C_9  and  N_1 
REMARK    2  A    between atoms: C_2  and  C_10 
ROOT
ATOM      1  C   UNL d   1      14.746  15.067  -1.722  0.00  0.00     0.070 A 
ATOM      2  C   UNL d   1      14.120  14.059  -2.896  0.00  0.00     0.024 A 
ATOM      3  C   UNL d   1      14.663  14.266  -1.573  0.00  0.00     0.018 A 
ATOM      4  C   UNL d   1      14.528  15.390  -2.441  0.00  0.00     0.018 A 
ATOM      5  C   UNL d   1      14.345  13.754  -2.170  0.00  0.00     0.004 A 
ATOM      6  C   UNL d   1      14.212  14.881  -3.034  0.00  0.00     0.004 A 
ENDROOT
BRANCH   2   7
ATOM      7  C   UNL d   1      13.861  13.643  -3.382  0.00  0.00     0.111 A 
ATOM      8  N   UNL d   1      13.834  13.851  -4.271  0.00  0.00    -0.239 NA
ATOM      9  C   UNL d   1      13.470  13.167  -4.631  0.00  0.00     0.088 A 
ATOM     10  C   UNL d   1      13.317  13.061  -5.381  0.00  0.00     0.020 A 
ATOM     11  C   UNL d   1      13.291  12.605  -4.053  0.00  0.00     0.049 A 
ATOM     12  C   UNL d   1      12.947  12.326  -5.610  0.00  0.00     0.002 A 
ATOM     13  C   UNL d   1      12.773  11.779  -5.049  0.00  0.00     0.001 A 
ATOM     14  C   UNL d   1      12.936  11.895  -4.254  0.00  0.00     0.008 A 
ATOM     15  S   UNL d   1      13.565  12.961  -3.254  0.00  0.00    -0.066 SA
ENDBRANCH   2   7
BRANCH   1  16
ATOM     16  N   UNL d   1      15.060  15.571  -1.135  0.00  0.00    -0.242 N 
ATOM     17  C   UNL d   1      15.170  16.373  -1.286  0.00  0.00     0.267 A 
ATOM     18  C   UNL d   1      15.484  16.711  -0.602  0.00  0.00     0.066 A 
ATOM     19  O   UNL d   1      15.001  16.813  -2.009  0.00  0.00    -0.267 OA
ATOM     20  C   UNL d   1      15.563  16.096  -0.027  0.00  0.00     0.066 A 
ATOM     21  C   UNL d   1      15.291  15.387  -0.383  0.00  0.00     0.267 A 
ATOM     22  O   UNL d   1      15.271  14.652  -0.016  0.00  0.00    -0.267 OA
ENDBRANCH   1  16
TORSDOF 2
ENDMDL
