MODEL 1
REMARK VINA RESULT:      43.3      0.000      0.000
REMARK  3 active torsions:
REMARK  status: ('A' for Active; 'I' for Inactive)
REMARK       I    between atoms: C_6  and  N_9 
REMARK    1  A    between atoms: C_7  and  C_6 
REMARK    2  A    between atoms: N_9  and  C_17 
REMARK    3  A    between atoms: C_17  and  C_16 
ROOT
ATOM      1  N   UNL d   1     -54.969-100.468 -43.984  0.00  0.00    -0.304 N 
ATOM      2  C   UNL d   1     -54.925-101.048 -44.565  0.00  0.00     0.064 A 
ATOM      3  C   UNL d   1     -54.960-100.838 -43.250  0.00  0.00     0.064 A 
ATOM      4  C   UNL d   1     -54.911-101.650 -43.382  0.00  0.00     0.018 A 
ATOM      5  C   UNL d   1     -54.890-101.777 -44.189  0.00  0.00     0.019 A 
ATOM      6  C   UNL d   1     -54.991-100.539 -42.484  0.00  0.00     0.018 A 
ATOM      7  C   UNL d   1     -54.892-102.173 -42.734  0.00  0.00     0.003 A 
ATOM      8  C   UNL d   1     -54.923-101.875 -41.965  0.00  0.00     0.019 A 
ATOM      9  C   UNL d   1     -54.972-101.054 -41.839  0.00  0.00     0.003 A 
ATOM     10  C   UNL d   1     -55.013 -99.655 -44.112  0.00  0.00     0.099 C 
ATOM     11  C   UNL d   1     -54.918-100.923 -45.379  0.00  0.00     0.019 C 
ENDROOT
BRANCH   8  12
ATOM     12  C   UNL d   1     -54.904-102.390 -41.323  0.00  0.00     0.102 C 
BRANCH  12  13
ATOM     13  N   UNL d   1     -54.749-102.111 -40.572  0.00  0.00    -0.206 NA
ATOM     14  C   UNL d   1     -55.201-102.349 -39.933  0.00  0.00     0.285 C 
ATOM     15  O   UNL d   1     -55.822-102.878 -40.048  0.00  0.00    -0.265 OA
BRANCH  14  16
ATOM     16  C   UNL d   1     -55.045-102.068 -39.173  0.00  0.00     0.087 A 
ATOM     17  S   UNL d   1     -54.833-101.297 -38.967  0.00  0.00    -0.082 SA
ATOM     18  C   UNL d   1     -54.733-101.273 -38.152  0.00  0.00     0.036 A 
ATOM     19  C   UNL d   1     -54.882-102.027 -37.841  0.00  0.00     0.008 A 
ATOM     20  C   UNL d   1     -55.074-102.516 -38.477  0.00  0.00     0.012 A 
ENDBRANCH  14  16
ENDBRANCH  12  13
ENDBRANCH   8  12
TORSDOF 3
ENDMDL
