MODEL 1
REMARK VINA RESULT:     -10.3      0.000      0.000
REMARK  4 active torsions:
REMARK  status: ('A' for Active; 'I' for Inactive)
REMARK    1  A    between atoms: S_4  and  C_1 
REMARK    2  A    between atoms: N_7  and  C_3 
REMARK    3  A    between atoms: C_11  and  S_4 
REMARK    4  A    between atoms: C_8  and  C_6 
ROOT
ATOM      1  C   UNL d   1      52.994  31.951  53.536  0.00  0.00     0.210 A 
ATOM      2  N   UNL d   1      52.739  31.183  53.398  0.00  0.00    -0.205 NA
ATOM      3  C   UNL d   1      53.704  31.915  53.954  0.00  0.00     0.199 A 
ATOM      4  O   UNL d   1      53.883  31.120  54.072  0.00  0.00    -0.268 OA
ATOM      5  C   UNL d   1      53.290  30.669  53.731  0.00  0.00     0.208 A 
ENDROOT
BRANCH   1   6
ATOM      6  S   UNL d   1      52.554  32.594  53.266  0.00  0.00     0.230 S 
ATOM      7  O   UNL d   1      52.673  32.894  52.511  0.00  0.00    -0.215 OA
ATOM      8  O   UNL d   1      51.986  32.941  53.762  0.00  0.00    -0.215 OA
BRANCH   6   9
ATOM      9  C   UNL d   1      52.110  33.235  53.005  0.00  0.00     0.090 A 
ATOM     10  C   UNL d   1      51.469  33.494  53.447  0.00  0.00     0.011 A 
ATOM     11  C   UNL d   1      51.016  34.140  53.192  0.00  0.00     0.001 A 
ATOM     12  C   UNL d   1      51.214  34.523  52.486  0.00  0.00     0.000 A 
ATOM     13  C   UNL d   1      51.862  34.262  52.039  0.00  0.00     0.001 A 
ATOM     14  C   UNL d   1      52.309  33.619  52.300  0.00  0.00     0.011 A 
ENDBRANCH   6   9
ENDBRANCH   1   6
BRANCH   3  15
ATOM     15  N   UNL d   1      54.155  32.557  54.208  0.00  0.00    -0.283 N 
ATOM     16  C   UNL d   1      54.015  32.816  54.863  0.00  0.00     0.082 A 
ATOM     17  C   UNL d   1      54.333  33.456  55.340  0.00  0.00     0.019 A 
ATOM     18  C   UNL d   1      54.861  33.955  55.231  0.00  0.00     0.002 A 
ATOM     19  C   UNL d   1      55.335  34.032  54.541  0.00  0.00     0.002 A 
ATOM     20  C   UNL d   1      55.275  33.518  53.822  0.00  0.00     0.019 A 
ATOM     21  C   UNL d   1      54.732  32.844  53.676  0.00  0.00     0.082 A 
ENDBRANCH   3  15
BRANCH   5  22
ATOM     22  C   UNL d   1      53.036  29.905  53.594  0.00  0.00     0.141 A 
ATOM     23  O   UNL d   1      52.580  29.435  53.101  0.00  0.00    -0.302 OA
ATOM     24  C   UNL d   1      52.621  28.659  53.371  0.00  0.00     0.123 A 
ATOM     25  C   UNL d   1      53.108  28.654  54.038  0.00  0.00     0.029 A 
ATOM     26  C   UNL d   1      53.364  29.422  54.175  0.00  0.00     0.030 A 
ENDBRANCH   5  22
TORSDOF 4
ENDMDL
MODEL 2
REMARK VINA RESULT:      -9.7      1.126      3.496
REMARK  4 active torsions:
REMARK  status: ('A' for Active; 'I' for Inactive)
REMARK    1  A    between atoms: S_4  and  C_1 
REMARK    2  A    between atoms: N_7  and  C_3 
REMARK    3  A    between atoms: C_11  and  S_4 
REMARK    4  A    between atoms: C_8  and  C_6 
ROOT
ATOM      1  C   UNL d   1      52.341  32.713  53.067  0.00  0.00     0.210 A 
ATOM      2  N   UNL d   1      51.665  32.978  52.684  0.00  0.00    -0.205 NA
ATOM      3  C   UNL d   1      52.733  33.369  53.379  0.00  0.00     0.199 A 
ATOM      4  O   UNL d   1      52.294  34.037  53.185  0.00  0.00    -0.268 OA
ATOM      5  C   UNL d   1      51.637  33.798  52.758  0.00  0.00     0.208 A 
ENDROOT
BRANCH   1   6
ATOM      6  S   UNL d   1      52.523  31.909  53.089  0.00  0.00     0.230 S 
ATOM      7  O   UNL d   1      52.990  31.571  52.504  0.00  0.00    -0.215 OA
ATOM      8  O   UNL d   1      52.233  31.438  53.707  0.00  0.00    -0.215 OA
BRANCH   6   9
ATOM      9  C   UNL d   1      52.700  31.106  53.118  0.00  0.00     0.090 A 
ATOM     10  C   UNL d   1      52.386  30.642  53.718  0.00  0.00     0.011 A 
ATOM     11  C   UNL d   1      52.559  29.832  53.756  0.00  0.00     0.001 A 
ATOM     12  C   UNL d   1      53.051  29.493  53.184  0.00  0.00     0.000 A 
ATOM     13  C   UNL d   1      53.368  29.961  52.578  0.00  0.00     0.001 A 
ATOM     14  C   UNL d   1      53.192  30.768  52.546  0.00  0.00     0.011 A 
ENDBRANCH   6   9
ENDBRANCH   1   6
BRANCH   3  15
ATOM     15  N   UNL d   1      53.438  33.358  53.808  0.00  0.00    -0.283 N 
ATOM     16  C   UNL d   1      53.385  33.353  54.524  0.00  0.00     0.082 A 
ATOM     17  C   UNL d   1      53.949  33.342  55.172  0.00  0.00     0.019 A 
ATOM     18  C   UNL d   1      54.683  33.334  55.203  0.00  0.00     0.002 A 
ATOM     19  C   UNL d   1      55.208  33.334  54.546  0.00  0.00     0.002 A 
ATOM     20  C   UNL d   1      54.959  33.344  53.696  0.00  0.00     0.019 A 
ATOM     21  C   UNL d   1      54.146  33.355  53.365  0.00  0.00     0.082 A 
ENDBRANCH   3  15
BRANCH   5  22
ATOM     22  C   UNL d   1      50.964  34.061  52.376  0.00  0.00     0.141 A 
ATOM     23  O   UNL d   1      50.577  34.085  51.654  0.00  0.00    -0.302 OA
ATOM     24  C   UNL d   1      49.867  34.490  51.754  0.00  0.00     0.123 A 
ATOM     25  C   UNL d   1      49.820  34.717  52.547  0.00  0.00     0.029 A 
ATOM     26  C   UNL d   1      50.496  34.452  52.930  0.00  0.00     0.030 A 
ENDBRANCH   5  22
TORSDOF 4
ENDMDL
MODEL 3
REMARK VINA RESULT:      -9.3      0.919      2.807
REMARK  4 active torsions:
REMARK  status: ('A' for Active; 'I' for Inactive)
REMARK    1  A    between atoms: S_4  and  C_1 
REMARK    2  A    between atoms: N_7  and  C_3 
REMARK    3  A    between atoms: C_11  and  S_4 
REMARK    4  A    between atoms: C_8  and  C_6 
ROOT
ATOM      1  C   UNL d   1      53.389  32.019  53.832  0.00  0.00     0.210 A 
ATOM      2  N   UNL d   1      53.512  31.210  53.897  0.00  0.00    -0.205 NA
ATOM      3  C   UNL d   1      52.699  32.140  53.395  0.00  0.00     0.199 A 
ATOM      4  O   UNL d   1      52.400  31.401  53.193  0.00  0.00    -0.268 OA
ATOM      5  C   UNL d   1      52.899  30.829  53.501  0.00  0.00     0.208 A 
ENDROOT
BRANCH   1   6
ATOM      6  S   UNL d   1      53.916  32.552  54.176  0.00  0.00     0.230 S 
ATOM      7  O   UNL d   1      54.561  32.833  53.753  0.00  0.00    -0.215 OA
ATOM      8  O   UNL d   1      53.794  32.807  54.956  0.00  0.00    -0.215 OA
BRANCH   6   9
ATOM      9  C   UNL d   1      54.437  33.084  54.526  0.00  0.00     0.090 A 
ATOM     10  C   UNL d   1      54.324  33.309  55.307  0.00  0.00     0.011 A 
ATOM     11  C   UNL d   1      54.844  33.844  55.669  0.00  0.00     0.001 A 
ATOM     12  C   UNL d   1      55.479  34.151  55.237  0.00  0.00     0.000 A 
ATOM     13  C   UNL d   1      55.593  33.924  54.448  0.00  0.00     0.001 A 
ATOM     14  C   UNL d   1      55.072  33.390  54.094  0.00  0.00     0.011 A 
ENDBRANCH   6   9
ENDBRANCH   1   6
BRANCH   3  15
ATOM     15  N   UNL d   1      52.369  32.870  53.197  0.00  0.00    -0.283 N 
ATOM     16  C   UNL d   1      52.585  33.171  52.582  0.00  0.00     0.082 A 
ATOM     17  C   UNL d   1      52.397  33.899  52.167  0.00  0.00     0.019 A 
ATOM     18  C   UNL d   1      51.946  34.461  52.310  0.00  0.00     0.002 A 
ATOM     19  C   UNL d   1      51.451  34.540  52.984  0.00  0.00     0.002 A 
ATOM     20  C   UNL d   1      51.389  33.951  53.643  0.00  0.00     0.019 A 
ATOM     21  C   UNL d   1      51.812  33.187  53.734  0.00  0.00     0.082 A 
ENDBRANCH   3  15
BRANCH   5  22
ATOM     22  C   UNL d   1      53.021  30.023  53.565  0.00  0.00     0.141 A 
ATOM     23  O   UNL d   1      53.505  29.450  53.896  0.00  0.00    -0.302 OA
ATOM     24  C   UNL d   1      53.221  28.711  53.670  0.00  0.00     0.123 A 
ATOM     25  C   UNL d   1      52.556  28.833  53.197  0.00  0.00     0.029 A 
ATOM     26  C   UNL d   1      52.433  29.643  53.132  0.00  0.00     0.030 A 
ENDBRANCH   5  22
TORSDOF 4
ENDMDL
MODEL 4
REMARK VINA RESULT:      -9.1      1.222      3.861
REMARK  4 active torsions:
REMARK  status: ('A' for Active; 'I' for Inactive)
REMARK    1  A    between atoms: S_4  and  C_1 
REMARK    2  A    between atoms: N_7  and  C_3 
REMARK    3  A    between atoms: C_11  and  S_4 
REMARK    4  A    between atoms: C_8  and  C_6 
ROOT
ATOM      1  C   UNL d   1      52.506  32.994  53.570  0.00  0.00     0.210 A 
ATOM      2  N   UNL d   1      51.960  33.595  53.452  0.00  0.00    -0.205 NA
ATOM      3  C   UNL d   1      52.190  32.296  53.264  0.00  0.00     0.199 A 
ATOM      4  O   UNL d   1      51.447  32.472  52.958  0.00  0.00    -0.268 OA
ATOM      5  C   UNL d   1      51.305  33.271  53.072  0.00  0.00     0.208 A 
ENDROOT
BRANCH   1   6
ATOM      6  S   UNL d   1      53.226  33.149  53.941  0.00  0.00     0.230 S 
ATOM      7  O   UNL d   1      53.892  33.334  53.499  0.00  0.00    -0.215 OA
ATOM      8  O   UNL d   1      53.278  33.117  54.769  0.00  0.00    -0.215 OA
BRANCH   6   9
ATOM      9  C   UNL d   1      53.941  33.302  54.319  0.00  0.00     0.090 A 
ATOM     10  C   UNL d   1      53.978  33.290  55.139  0.00  0.00     0.011 A 
ATOM     11  C   UNL d   1      54.693  33.443  55.529  0.00  0.00     0.001 A 
ATOM     12  C   UNL d   1      55.372  33.609  55.086  0.00  0.00     0.000 A 
ATOM     13  C   UNL d   1      55.334  33.621  54.258  0.00  0.00     0.001 A 
ATOM     14  C   UNL d   1      54.618  33.468  53.876  0.00  0.00     0.011 A 
ENDBRANCH   6   9
ENDBRANCH   1   6
BRANCH   3  15
ATOM     15  N   UNL d   1      52.552  31.555  53.265  0.00  0.00    -0.283 N 
ATOM     16  C   UNL d   1      52.438  31.135  53.836  0.00  0.00     0.082 A 
ATOM     17  C   UNL d   1      52.692  30.348  54.069  0.00  0.00     0.019 A 
ATOM     18  C   UNL d   1      53.118  29.840  53.752  0.00  0.00     0.002 A 
ATOM     19  C   UNL d   1      53.501  29.908  53.007  0.00  0.00     0.002 A 
ATOM     20  C   UNL d   1      53.456  30.613  52.474  0.00  0.00     0.019 A 
ATOM     21  C   UNL d   1      53.019  31.364  52.598  0.00  0.00     0.082 A 
ENDBRANCH   3  15
BRANCH   5  22
ATOM     22  C   UNL d   1      50.761  33.869  52.955  0.00  0.00     0.141 A 
ATOM     23  O   UNL d   1      50.369  34.491  53.317  0.00  0.00    -0.302 OA
ATOM     24  C   UNL d   1      49.875  34.845  52.762  0.00  0.00     0.123 A 
ATOM     25  C   UNL d   1      49.965  34.435  52.052  0.00  0.00     0.029 A 
ATOM     26  C   UNL d   1      50.511  33.833  52.170  0.00  0.00     0.030 A 
ENDBRANCH   5  22
TORSDOF 4
ENDMDL
