MODEL 1
REMARK VINA RESULT:      94.9      0.000      0.000
REMARK  4 active torsions:
REMARK  status: ('A' for Active; 'I' for Inactive)
REMARK    1  A    between atoms: N_2  and  S_1 
REMARK    2  A    between atoms: C_3  and  S_1 
REMARK    3  A    between atoms: C_18  and  N_6 
REMARK    4  A    between atoms: C_19  and  C_18 
ROOT
ATOM      1  N   UNL d   1      60.817  47.663  50.440  0.00  0.00    -0.226 N 
ATOM      2  N   UNL d   1      59.933  49.017  50.824  0.00  0.00    -0.300 N 
ATOM      3  C   UNL d   1      61.072  48.417  50.178  0.00  0.00     0.111 A 
ATOM      4  C   UNL d   1      60.137  47.607  50.880  0.00  0.00     0.111 A 
ATOM      5  C   UNL d   1      59.693  48.287  51.073  0.00  0.00     0.100 A 
ATOM      6  C   UNL d   1      60.628  49.096  50.371  0.00  0.00     0.100 A 
ENDROOT
BRANCH   1   7
ATOM      7  S   UNL d   1      61.255  46.991  50.249  0.00  0.00     0.272 S 
ATOM      8  O   UNL d   1      60.969  46.611  50.928  0.00  0.00    -0.200 OA
ATOM      9  O   UNL d   1      61.543  47.372  49.565  0.00  0.00    -0.200 OA
BRANCH   7  10
ATOM     10  C   UNL d   1      61.696  46.315  50.057  0.00  0.00     0.106 A 
ATOM     11  C   UNL d   1      61.520  45.597  50.388  0.00  0.00     0.040 A 
ATOM     12  C   UNL d   1      61.950  44.939  50.201  0.00  0.00     0.123 A 
ATOM     13  O   UNL d   1      61.752  44.205  50.555  0.00  0.00    -0.301 OA
ATOM     14  C   UNL d   1      62.564  44.984  49.678  0.00  0.00     0.123 A 
ATOM     15  C   UNL d   1      62.193  43.530  50.363  0.00  0.00     0.149 A 
ATOM     16  C   UNL d   1      62.829  43.591  49.818  0.00  0.00     0.149 A 
ATOM     17  O   UNL d   1      63.005  44.308  49.486  0.00  0.00    -0.301 OA
ATOM     18  C   UNL d   1      62.763  45.686  49.332  0.00  0.00     0.028 A 
ATOM     19  C   UNL d   1      62.330  46.373  49.514  0.00  0.00     0.015 A 
ENDBRANCH   7  10
ENDBRANCH   1   7
BRANCH   2  20
ATOM     20  C   UNL d   1      59.490  49.696  51.017  0.00  0.00     0.080 C 
BRANCH  20  21
ATOM     21  C   UNL d   1      58.686  49.698  50.938  0.00  0.00     0.018 A 
ATOM     22  C   UNL d   1      58.340  49.696  50.175  0.00  0.00     0.002 A 
ATOM     23  C   UNL d   1      57.535  49.699  50.095  0.00  0.00     0.000 A 
ATOM     24  C   UNL d   1      57.048  49.702  50.761  0.00  0.00     0.000 A 
ATOM     25  C   UNL d   1      57.362  49.704  51.509  0.00  0.00     0.000 A 
ATOM     26  C   UNL d   1      58.198  49.702  51.603  0.00  0.00     0.002 A 
ENDBRANCH  20  21
ENDBRANCH   2  20
TORSDOF 4
ENDMDL
