MODEL 1
REMARK VINA RESULT:      -8.4      0.000      0.000
REMARK  5 active torsions:
REMARK  status: ('A' for Active; 'I' for Inactive)
REMARK    1  A    between atoms: C_2  and  S_1 
REMARK    2  A    between atoms: N_4  and  S_1 
REMARK    3  A    between atoms: C_10  and  N_4 
REMARK    4  A    between atoms: C_14  and  C_5 
REMARK    5  A    between atoms: C_13  and  C_10 
ROOT
ATOM      1  S   UNL d   1      52.172  32.860  53.070  0.00  0.00     0.285 S 
ATOM      2  O   UNL d   1      51.771  32.658  53.750  0.00  0.00    -0.198 OA
ATOM      3  O   UNL d   1      52.581  33.065  52.379  0.00  0.00    -0.198 OA
ENDROOT
BRANCH   1   4
ATOM      4  C   UNL d   1      52.868  32.551  53.389  0.00  0.00     0.105 A 
ATOM      5  C   UNL d   1      53.360  33.029  53.847  0.00  0.00     0.013 A 
ATOM      6  C   UNL d   1      54.055  32.720  54.165  0.00  0.00     0.001 A 
ATOM      7  C   UNL d   1      54.258  31.933  54.028  0.00  0.00     0.000 A 
ATOM      8  C   UNL d   1      53.767  31.463  53.574  0.00  0.00     0.001 A 
ATOM      9  C   UNL d   1      53.073  31.771  53.255  0.00  0.00     0.012 A 
ATOM     10  C   UNL d   1      52.580  31.293  52.798  0.00  0.00     0.001 C 
BRANCH   6  11
ATOM     11  C   UNL d   1      54.548  33.203  54.625  0.00  0.00     0.000 C 
ATOM     12  C   UNL d   1      55.162  33.622  54.266  0.00  0.00     0.000 C 
ATOM     13  C   UNL d   1      54.427  33.263  55.439  0.00  0.00     0.000 C 
ENDBRANCH   6  11
ENDBRANCH   1   4
BRANCH   1  14
ATOM     14  N   UNL d   1      51.477  33.169  52.751  0.00  0.00    -0.155 NA
BRANCH  14  15
ATOM     15  C   UNL d   1      51.343  33.982  52.767  0.00  0.00     0.131 C 
BRANCH  15  16
ATOM     16  C   UNL d   1      50.605  34.282  52.552  0.00  0.00     0.101 A 
ATOM     17  N   UNL d   1      50.140  34.675  53.109  0.00  0.00    -0.242 NA
ATOM     18  C   UNL d   1      49.402  34.975  52.894  0.00  0.00     0.099 A 
ATOM     19  C   UNL d   1      49.129  34.882  52.122  0.00  0.00     0.021 A 
ATOM     20  C   UNL d   1      49.593  34.488  51.560  0.00  0.00     0.003 A 
ATOM     21  C   UNL d   1      50.331  34.188  51.775  0.00  0.00     0.021 A 
ENDBRANCH  15  16
ENDBRANCH  14  15
ENDBRANCH   1  14
TORSDOF 5
ENDMDL
MODEL 2
REMARK VINA RESULT:      -7.9      1.621      4.217
REMARK  5 active torsions:
REMARK  status: ('A' for Active; 'I' for Inactive)
REMARK    1  A    between atoms: C_2  and  S_1 
REMARK    2  A    between atoms: N_4  and  S_1 
REMARK    3  A    between atoms: C_10  and  N_4 
REMARK    4  A    between atoms: C_14  and  C_5 
REMARK    5  A    between atoms: C_13  and  C_10 
ROOT
ATOM      1  S   UNL d   1      53.077  32.648  53.601  0.00  0.00     0.285 S 
ATOM      2  O   UNL d   1      52.709  32.642  54.328  0.00  0.00    -0.198 OA
ATOM      3  O   UNL d   1      53.452  32.655  52.862  0.00  0.00    -0.198 OA
ENDROOT
BRANCH   1   4
ATOM      4  C   UNL d   1      52.776  33.402  53.455  0.00  0.00     0.105 A 
ATOM      5  C   UNL d   1      52.072  33.491  53.034  0.00  0.00     0.013 A 
ATOM      6  C   UNL d   1      51.770  34.243  52.888  0.00  0.00     0.001 A 
ATOM      7  C   UNL d   1      52.172  34.909  53.163  0.00  0.00     0.000 A 
ATOM      8  C   UNL d   1      52.869  34.817  53.579  0.00  0.00     0.001 A 
ATOM      9  C   UNL d   1      53.170  34.065  53.725  0.00  0.00     0.012 A 
ATOM     10  C   UNL d   1      53.874  33.976  54.146  0.00  0.00     0.001 C 
BRANCH   6  11
ATOM     11  C   UNL d   1      51.062  34.330  52.465  0.00  0.00     0.000 C 
ATOM     12  C   UNL d   1      50.351  34.431  52.870  0.00  0.00     0.000 C 
ATOM     13  C   UNL d   1      51.069  34.315  51.640  0.00  0.00     0.000 C 
ENDBRANCH   6  11
ENDBRANCH   1   4
BRANCH   1  14
ATOM     14  N   UNL d   1      53.379  31.895  53.747  0.00  0.00    -0.155 NA
BRANCH  14  15
ATOM     15  C   UNL d   1      53.225  31.280  53.221  0.00  0.00     0.131 C 
BRANCH  15  16
ATOM     16  C   UNL d   1      53.202  30.501  53.491  0.00  0.00     0.101 A 
ATOM     17  N   UNL d   1      53.733  30.249  54.071  0.00  0.00    -0.242 NA
ATOM     18  C   UNL d   1      53.710  29.470  54.341  0.00  0.00     0.099 A 
ATOM     19  C   UNL d   1      53.157  28.943  54.033  0.00  0.00     0.021 A 
ATOM     20  C   UNL d   1      52.622  29.192  53.451  0.00  0.00     0.003 A 
ATOM     21  C   UNL d   1      52.645  29.971  53.180  0.00  0.00     0.021 A 
ENDBRANCH  15  16
ENDBRANCH  14  15
ENDBRANCH   1  14
TORSDOF 5
ENDMDL
