MODEL 1
REMARK VINA RESULT:      67.7      0.000      0.000
REMARK  10 active torsions:
REMARK  status: ('A' for Active; 'I' for Inactive)
REMARK    1  A    between atoms: C_9  and  C_1 
REMARK    2  A    between atoms: C_11  and  C_2 
REMARK    3  A    between atoms: S_12  and  C_3 
REMARK    4  A    between atoms: C_16  and  C_4 
REMARK    5  A    between atoms: C_7  and  N_8 
REMARK       I    between atoms: N_8  and  C_15 
REMARK    6  A    between atoms: O_26  and  C_9 
REMARK    7  A    between atoms: C_21  and  S_12 
REMARK    8  A    between atoms: C_15  and  C_21 
REMARK    9  A    between atoms: C_24  and  C_32 
REMARK   10  A    between atoms: C_32  and  O_26 
ROOT
ATOM      1  C   UNL d   1      14.365  15.164  -3.052  0.00  0.00     0.081 A 
ATOM      2  C   UNL d   1      14.336  15.385  -4.470  0.00  0.00     0.045 A 
ATOM      3  C   UNL d   1      14.665  16.181  -4.339  0.00  0.00     0.112 A 
ATOM      4  C   UNL d   1      14.197  14.907  -3.826  0.00  0.00     0.010 A 
ATOM      5  C   UNL d   1      14.676  15.916  -2.927  0.00  0.00     0.087 A 
ATOM      6  N   UNL d   1      14.820  16.411  -3.577  0.00  0.00    -0.239 NA
ATOM      7  C   UNL d   1      14.849  16.187  -2.143  0.00  0.00     0.021 C 
ENDROOT
BRANCH   3   8
ATOM      8  S   UNL d   1      14.836  16.739  -4.977  0.00  0.00    -0.062 SA
BRANCH   8   9
ATOM      9  C   UNL d   1      15.001  17.522  -4.791  0.00  0.00     0.099 C 
BRANCH   9  10
ATOM     10  C   UNL d   1      14.697  18.104  -5.243  0.00  0.00     0.288 C 
ATOM     11  N   UNL d   1      14.854  18.887  -5.051  0.00  0.00    -0.182 NA
ATOM     12  O   UNL d   1      14.236  17.945  -5.888  0.00  0.00    -0.265 OA
BRANCH  11  13
ATOM     13  C   UNL d   1      14.553  19.478  -5.499  0.00  0.00     0.197 A 
ATOM     14  N   UNL d   1      14.740  20.244  -5.325  0.00  0.00    -0.219 NA
ATOM     15  C   UNL d   1      14.349  20.724  -5.881  0.00  0.00     0.108 A 
ATOM     16  C   UNL d   1      13.929  20.247  -6.388  0.00  0.00     0.059 A 
ATOM     17  S   UNL d   1      14.052  19.466  -6.155  0.00  0.00    -0.046 SA
ENDBRANCH  11  13
ENDBRANCH   9  10
ENDBRANCH   8   9
ENDBRANCH   3   8
BRANCH   2  18
ATOM     18  C   UNL d   1      14.157  15.099  -5.249  0.00  0.00     0.124 C 
ATOM     19  N   UNL d   1      14.710  15.150  -5.854  0.00  0.00    -0.146 N 
ENDBRANCH   2  18
BRANCH   4  20
ATOM     20  C   UNL d   1      13.892  14.169  -3.949  0.00  0.00     0.000 A 
ATOM     21  C   UNL d   1      14.388  13.508  -3.948  0.00  0.00     0.001 A 
ATOM     22  C   UNL d   1      14.083  12.771  -4.070  0.00  0.00     0.011 A 
ATOM     23  C   UNL d   1      13.272  12.672  -4.197  0.00  0.00     0.058 A 
ATOM     24  C   UNL d   1      12.769  13.336  -4.198  0.00  0.00     0.011 A 
ATOM     25 CL   UNL d   1      12.958  11.912  -4.323  0.00  0.00    -0.082 Cl
ATOM     26  C   UNL d   1      13.080  14.087  -4.074  0.00  0.00     0.001 A 
ENDBRANCH   4  20
BRANCH   1  27
ATOM     27  C   UNL d   1      14.208  14.639  -2.400  0.00  0.00     0.302 C 
ATOM     28  O   UNL d   1      13.441  14.402  -2.219  0.00  0.00    -0.259 OA
BRANCH  27  29
ATOM     29  O   UNL d   1      14.845  14.369  -1.947  0.00  0.00    -0.271 OA
BRANCH  29  30
ATOM     30  C   UNL d   1      14.713  13.970  -1.257  0.00  0.00     0.126 C 
BRANCH  30  31
ATOM     31  C   UNL d   1      15.354  13.646  -0.834  0.00  0.00     0.027 C 
ATOM     32  C   UNL d   1      15.276  13.483  -0.047  0.00  0.00     0.002 C 
ENDBRANCH  30  31
ENDBRANCH  29  30
ENDBRANCH  27  29
ENDBRANCH   1  27
TORSDOF 10
ENDMDL
MODEL 2
REMARK VINA RESULT:      69.8      1.343      2.772
REMARK  10 active torsions:
REMARK  status: ('A' for Active; 'I' for Inactive)
REMARK    1  A    between atoms: C_9  and  C_1 
REMARK    2  A    between atoms: C_11  and  C_2 
REMARK    3  A    between atoms: S_12  and  C_3 
REMARK    4  A    between atoms: C_16  and  C_4 
REMARK    5  A    between atoms: C_7  and  N_8 
REMARK       I    between atoms: N_8  and  C_15 
REMARK    6  A    between atoms: O_26  and  C_9 
REMARK    7  A    between atoms: C_21  and  S_12 
REMARK    8  A    between atoms: C_15  and  C_21 
REMARK    9  A    between atoms: C_24  and  C_32 
REMARK   10  A    between atoms: C_32  and  O_26 
ROOT
ATOM      1  C   UNL d   1      13.762  13.934  -3.408  0.00  0.00     0.081 A 
ATOM      2  C   UNL d   1      14.469  15.033  -2.812  0.00  0.00     0.045 A 
ATOM      3  C   UNL d   1      14.251  15.525  -3.497  0.00  0.00     0.112 A 
ATOM      4  C   UNL d   1      14.218  14.258  -2.791  0.00  0.00     0.010 A 
ATOM      5  C   UNL d   1      13.556  14.399  -4.055  0.00  0.00     0.087 A 
ATOM      6  N   UNL d   1      13.807  15.189  -4.086  0.00  0.00    -0.239 NA
ATOM      7  C   UNL d   1      13.093  14.079  -4.688  0.00  0.00     0.021 C 
ENDROOT
BRANCH   3   8
ATOM      8  S   UNL d   1      14.484  16.354  -3.583  0.00  0.00    -0.062 SA
BRANCH   8   9
ATOM      9  C   UNL d   1      14.929  16.579  -4.235  0.00  0.00     0.099 C 
BRANCH   9  10
ATOM     10  C   UNL d   1      14.662  17.163  -4.708  0.00  0.00     0.288 C 
ATOM     11  N   UNL d   1      15.035  17.895  -4.692  0.00  0.00    -0.182 NA
ATOM     12  O   UNL d   1      14.033  17.055  -5.204  0.00  0.00    -0.265 OA
BRANCH  11  13
ATOM     13  C   UNL d   1      14.774  18.488  -5.163  0.00  0.00     0.197 A 
ATOM     14  N   UNL d   1      15.059  19.235  -5.059  0.00  0.00    -0.219 NA
ATOM     15  C   UNL d   1      14.689  19.722  -5.623  0.00  0.00     0.108 A 
ATOM     16  C   UNL d   1      14.182  19.266  -6.066  0.00  0.00     0.059 A 
ATOM     17  S   UNL d   1      14.229  18.493  -5.784  0.00  0.00    -0.046 SA
ENDBRANCH  11  13
ENDBRANCH   9  10
ENDBRANCH   8   9
ENDBRANCH   3   8
BRANCH   2  18
ATOM     18  C   UNL d   1      14.932  15.339  -2.171  0.00  0.00     0.124 C 
ATOM     19  N   UNL d   1      14.751  16.062  -1.827  0.00  0.00    -0.146 N 
ENDBRANCH   2  18
BRANCH   4  20
ATOM     20  C   UNL d   1      14.419  13.801  -2.155  0.00  0.00     0.000 A 
ATOM     21  C   UNL d   1      13.921  13.760  -1.498  0.00  0.00     0.001 A 
ATOM     22  C   UNL d   1      14.122  13.304  -0.863  0.00  0.00     0.011 A 
ATOM     23  C   UNL d   1      14.828  12.875  -0.867  0.00  0.00     0.058 A 
ATOM     24  C   UNL d   1      15.334  12.914  -1.528  0.00  0.00     0.011 A 
ATOM     25 CL   UNL d   1      15.036  12.405  -0.212  0.00  0.00    -0.082 Cl
ATOM     26  C   UNL d   1      15.128  13.379  -2.175  0.00  0.00     0.001 A 
ENDBRANCH   4  20
BRANCH   1  27
ATOM     27  C   UNL d   1      13.516  13.120  -3.355  0.00  0.00     0.302 C 
ATOM     28  O   UNL d   1      13.779  12.635  -2.745  0.00  0.00    -0.259 OA
BRANCH  27  29
ATOM     29  O   UNL d   1      13.003  12.823  -3.931  0.00  0.00    -0.271 OA
BRANCH  29  30
ATOM     30  C   UNL d   1      13.210  12.171  -4.362  0.00  0.00     0.126 C 
BRANCH  30  31
ATOM     31  C   UNL d   1      12.769  11.962  -5.037  0.00  0.00     0.027 C 
ATOM     32  C   UNL d   1      13.148  11.782  -5.727  0.00  0.00     0.002 C 
ENDBRANCH  30  31
ENDBRANCH  29  30
ENDBRANCH  27  29
ENDBRANCH   1  27
TORSDOF 10
ENDMDL
