MODEL 1
REMARK VINA RESULT:      -5.3      0.000      0.000
REMARK  1 active torsions:
REMARK  status: ('A' for Active; 'I' for Inactive)
REMARK    1  A    between atoms: C_2  and  S_1 
ROOT
ATOM      1  C   UNL d   1     -41.619-122.495 -53.750  0.00  0.00     0.107 A 
ATOM      2  C   UNL d   1     -41.272-122.873 -54.396  0.00  0.00     0.014 A 
ATOM      3  C   UNL d   1     -42.202-121.936 -53.859  0.00  0.00     0.014 A 
ATOM      4  C   UNL d   1     -42.114-122.111 -55.263  0.00  0.00     0.058 A 
ATOM      5  C   UNL d   1     -42.453-121.741 -54.626  0.00  0.00     0.012 A 
ATOM      6  C   UNL d   1     -41.516-122.685 -55.162  0.00  0.00     0.012 A 
ATOM      7 CL   UNL d   1     -42.374-121.906 -56.018  0.00  0.00    -0.082 Cl
ENDROOT
BRANCH   1   8
ATOM      8  S   UNL d   1     -41.369-122.689 -52.988  0.00  0.00     0.302 S 
ATOM      9  O   UNL d   1     -41.618-123.466 -53.113  0.00  0.00    -0.197 OA
ATOM     10  O   UNL d   1     -41.123-121.924 -52.864  0.00  0.00    -0.197 OA
ATOM     11  N   UNL d   1     -41.123-122.890 -52.231  0.00  0.00    -0.043 N 
ENDBRANCH   1   8
TORSDOF 1
ENDMDL
MODEL 2
REMARK VINA RESULT:      -4.3      2.190      2.627
REMARK  1 active torsions:
REMARK  status: ('A' for Active; 'I' for Inactive)
REMARK    1  A    between atoms: C_2  and  S_1 
ROOT
ATOM      1  C   UNL d   1     -41.537-122.782 -53.706  0.00  0.00     0.107 A 
ATOM      2  C   UNL d   1     -41.419-123.580 -53.533  0.00  0.00     0.014 A 
ATOM      3  C   UNL d   1     -41.520-122.222 -53.113  0.00  0.00     0.014 A 
ATOM      4  C   UNL d   1     -41.267-123.237 -52.156  0.00  0.00     0.058 A 
ATOM      5  C   UNL d   1     -41.383-122.453 -52.327  0.00  0.00     0.012 A 
ATOM      6  C   UNL d   1     -41.282-123.817 -52.755  0.00  0.00     0.012 A 
ATOM      7 CL   UNL d   1     -41.132-123.449 -51.370  0.00  0.00    -0.082 Cl
ENDROOT
BRANCH   1   8
ATOM      8  S   UNL d   1     -41.672-122.554 -54.487  0.00  0.00     0.302 S 
ATOM      9  O   UNL d   1     -41.141-121.930 -54.388  0.00  0.00    -0.197 OA
ATOM     10  O   UNL d   1     -42.196-123.168 -54.585  0.00  0.00    -0.197 OA
ATOM     11  N   UNL d   1     -41.802-122.320 -55.263  0.00  0.00    -0.043 N 
ENDBRANCH   1   8
TORSDOF 1
ENDMDL
MODEL 3
REMARK VINA RESULT:      -3.9      2.219      2.435
REMARK  1 active torsions:
REMARK  status: ('A' for Active; 'I' for Inactive)
REMARK    1  A    between atoms: C_2  and  S_1 
ROOT
ATOM      1  C   UNL d   1     -41.791-122.456 -54.411  0.00  0.00     0.107 A 
ATOM      2  C   UNL d   1     -41.634-123.260 -54.501  0.00  0.00     0.014 A 
ATOM      3  C   UNL d   1     -41.726-122.099 -53.680  0.00  0.00     0.014 A 
ATOM      4  C   UNL d   1     -41.346-123.337 -53.105  0.00  0.00     0.058 A 
ATOM      5  C   UNL d   1     -41.500-122.546 -53.018  0.00  0.00     0.012 A 
ATOM      6  C   UNL d   1     -41.409-123.711 -53.847  0.00  0.00     0.012 A 
ATOM      7 CL   UNL d   1     -41.122-123.767 -52.437  0.00  0.00    -0.082 Cl
ENDROOT
BRANCH   1   8
ATOM      8  S   UNL d   1     -42.016-122.012 -55.069  0.00  0.00     0.302 S 
ATOM      9  O   UNL d   1     -42.804-122.079 -54.835  0.00  0.00    -0.197 OA
ATOM     10  O   UNL d   1     -41.239-121.945 -55.300  0.00  0.00    -0.197 OA
ATOM     11  N   UNL d   1     -42.247-121.571 -55.722  0.00  0.00    -0.043 N 
ENDBRANCH   1   8
TORSDOF 1
ENDMDL
MODEL 4
REMARK VINA RESULT:      -3.8      1.568      1.968
REMARK  1 active torsions:
REMARK  status: ('A' for Active; 'I' for Inactive)
REMARK    1  A    between atoms: C_2  and  S_1 
ROOT
ATOM      1  C   UNL d   1     -41.413-122.609 -52.129  0.00  0.00     0.107 A 
ATOM      2  C   UNL d   1     -41.215-123.376 -52.356  0.00  0.00     0.014 A 
ATOM      3  C   UNL d   1     -41.528-122.026 -52.688  0.00  0.00     0.014 A 
ATOM      4  C   UNL d   1     -41.251-122.957 -53.720  0.00  0.00     0.058 A 
ATOM      5  C   UNL d   1     -41.445-122.203 -53.495  0.00  0.00     0.012 A 
ATOM      6  C   UNL d   1     -41.131-123.560 -53.156  0.00  0.00     0.012 A 
ATOM      7 CL   UNL d   1     -41.173-123.116 -54.526  0.00  0.00    -0.082 Cl
ENDROOT
BRANCH   1   8
ATOM      8  S   UNL d   1     -41.495-122.434 -51.327  0.00  0.00     0.302 S 
ATOM      9  O   UNL d   1     -41.122-121.709 -51.455  0.00  0.00    -0.197 OA
ATOM     10  O   UNL d   1     -41.862-123.148 -51.199  0.00  0.00    -0.197 OA
ATOM     11  N   UNL d   1     -41.573-122.252 -50.530  0.00  0.00    -0.043 N 
ENDBRANCH   1   8
TORSDOF 1
ENDMDL
MODEL 5
REMARK VINA RESULT:      -3.7      3.749      4.227
REMARK  1 active torsions:
REMARK  status: ('A' for Active; 'I' for Inactive)
REMARK    1  A    between atoms: C_2  and  S_1 
ROOT
ATOM      1  C   UNL d   1     -41.683-122.555 -50.770  0.00  0.00     0.107 A 
ATOM      2  C   UNL d   1     -41.139-123.037 -50.380  0.00  0.00     0.014 A 
ATOM      3  C   UNL d   1     -42.401-122.377 -50.427  0.00  0.00     0.014 A 
ATOM      4  C   UNL d   1     -42.056-123.155 -49.293  0.00  0.00     0.058 A 
ATOM      5  C   UNL d   1     -42.590-122.681 -49.678  0.00  0.00     0.012 A 
ATOM      6  C   UNL d   1     -41.319-123.343 -49.636  0.00  0.00     0.012 A 
ATOM      7 CL   UNL d   1     -42.259-123.449 -48.549  0.00  0.00    -0.082 Cl
ENDROOT
BRANCH   1   8
ATOM      8  S   UNL d   1     -41.495-122.253 -51.514  0.00  0.00     0.302 S 
ATOM      9  O   UNL d   1     -41.872-122.899 -51.863  0.00  0.00    -0.197 OA
ATOM     10  O   UNL d   1     -41.123-121.617 -51.172  0.00  0.00    -0.197 OA
ATOM     11  N   UNL d   1     -41.311-121.959 -52.259  0.00  0.00    -0.043 N 
ENDBRANCH   1   8
TORSDOF 1
ENDMDL
MODEL 6
REMARK VINA RESULT:      -3.6      3.542      3.878
REMARK  1 active torsions:
REMARK  status: ('A' for Active; 'I' for Inactive)
REMARK    1  A    between atoms: C_2  and  S_1 
ROOT
ATOM      1  C   UNL d   1     -42.237-122.909 -50.071  0.00  0.00     0.107 A 
ATOM      2  C   UNL d   1     -41.847-123.516 -50.470  0.00  0.00     0.014 A 
ATOM      3  C   UNL d   1     -42.256-122.154 -50.378  0.00  0.00     0.014 A 
ATOM      4  C   UNL d   1     -41.495-122.585 -51.493  0.00  0.00     0.058 A 
ATOM      5  C   UNL d   1     -41.879-121.990 -51.099  0.00  0.00     0.012 A 
ATOM      6  C   UNL d   1     -41.470-123.361 -51.188  0.00  0.00     0.012 A 
ATOM      7 CL   UNL d   1     -41.126-122.405 -52.209  0.00  0.00    -0.082 Cl
ENDROOT
BRANCH   1   8
ATOM      8  S   UNL d   1     -42.611-123.073 -49.354  0.00  0.00     0.302 S 
ATOM      9  O   UNL d   1     -43.334-123.112 -49.749  0.00  0.00    -0.197 OA
ATOM     10  O   UNL d   1     -41.899-123.035 -48.963  0.00  0.00    -0.197 OA
ATOM     11  N   UNL d   1     -42.991-123.236 -48.644  0.00  0.00    -0.043 N 
ENDBRANCH   1   8
TORSDOF 1
ENDMDL
MODEL 7
REMARK VINA RESULT:      -3.5      4.200      4.735
REMARK  1 active torsions:
REMARK  status: ('A' for Active; 'I' for Inactive)
REMARK    1  A    between atoms: C_2  and  S_1 
ROOT
ATOM      1  C   UNL d   1     -41.824-122.766 -50.251  0.00  0.00     0.107 A 
ATOM      2  C   UNL d   1     -42.608-122.598 -50.057  0.00  0.00     0.014 A 
ATOM      3  C   UNL d   1     -41.323-123.102 -49.703  0.00  0.00     0.014 A 
ATOM      4  C   UNL d   1     -42.369-123.113 -48.747  0.00  0.00     0.058 A 
ATOM      5  C   UNL d   1     -41.599-123.278 -48.940  0.00  0.00     0.012 A 
ATOM      6  C   UNL d   1     -42.890-122.770 -49.301  0.00  0.00     0.012 A 
ATOM      7 CL   UNL d   1     -42.628-123.294 -47.985  0.00  0.00    -0.082 Cl
ENDROOT
BRANCH   1   8
ATOM      8  S   UNL d   1     -41.550-122.591 -51.010  0.00  0.00     0.302 S 
ATOM      9  O   UNL d   1     -41.480-123.398 -51.162  0.00  0.00    -0.197 OA
ATOM     10  O   UNL d   1     -41.619-121.794 -50.860  0.00  0.00    -0.197 OA
ATOM     11  N   UNL d   1     -41.276-122.424 -51.766  0.00  0.00    -0.043 N 
ENDBRANCH   1   8
TORSDOF 1
ENDMDL
