MODEL 1
REMARK VINA RESULT:      58.1      0.000      0.000
REMARK  4 active torsions:
REMARK  status: ('A' for Active; 'I' for Inactive)
REMARK    1  A    between atoms: C_3  and  C_1 
REMARK    2  A    between atoms: N_2  and  C_9 
REMARK    3  A    between atoms: N_6  and  C_3 
REMARK    4  A    between atoms: C_10  and  C_5 
ROOT
ATOM      1  C   UNL d   1     -51.132  26.430  34.712  0.00  0.00     0.126 A 
ATOM      2  O   UNL d   1     -51.554  26.250  35.406  0.00  0.00    -0.305 OA
ATOM      3  C   UNL d   1     -51.141  26.589  36.031  0.00  0.00     0.100 A 
ATOM      4  C   UNL d   1     -50.496  26.861  34.932  0.00  0.00     0.029 A 
ATOM      5  C   UNL d   1     -50.490  26.964  35.726  0.00  0.00     0.027 A 
ENDROOT
BRANCH   3   6
ATOM      6  C   UNL d   1     -51.282  26.602  36.849  0.00  0.00     0.024 A 
ATOM      7  C   UNL d   1     -51.870  26.100  37.175  0.00  0.00     0.025 A 
ATOM      8  C   UNL d   1     -52.011  26.113  37.993  0.00  0.00     0.127 A 
ATOM      9  C   UNL d   1     -51.572  26.619  38.482  0.00  0.00     0.024 A 
ATOM     10  C   UNL d   1     -51.000  27.105  38.154  0.00  0.00     0.002 A 
ATOM     11  C   UNL d   1     -50.860  27.093  37.341  0.00  0.00     0.002 A 
BRANCH   8  12
ATOM     12  N   UNL d   1     -52.581  25.626  38.310  0.00  0.00    -0.114 N 
ATOM     13  O   UNL d   1     -53.394  25.697  38.141  0.00  0.00    -0.532 OA
ATOM     14  O   UNL d   1     -52.435  25.013  38.827  0.00  0.00    -0.532 OA
ENDBRANCH   8  12
ENDBRANCH   3   6
BRANCH   1  15
ATOM     15  C   UNL d   1     -51.306  26.222  33.922  0.00  0.00     0.143 C 
ATOM     16  S   UNL d   1     -51.331  26.782  33.329  0.00  0.00    -0.057 SA
BRANCH  15  17
ATOM     17  N   UNL d   1     -51.458  25.433  33.714  0.00  0.00    -0.290 N 
ATOM     18  C   UNL d   1     -52.227  25.183  33.716  0.00  0.00     0.108 A 
ATOM     19  C   UNL d   1     -52.372  24.394  33.507  0.00  0.00     0.142 A 
ATOM     20  O   UNL d   1     -51.777  23.905  33.313  0.00  0.00    -0.300 OA
ATOM     21  C   UNL d   1     -51.019  24.134  33.307  0.00  0.00     0.142 A 
ATOM     22  C   UNL d   1     -50.846  24.942  33.519  0.00  0.00     0.108 A 
ENDBRANCH  15  17
ENDBRANCH   1  15
TORSDOF 4
ENDMDL
