MODEL 1
REMARK VINA RESULT:      25.4      0.000      0.000
REMARK  3 active torsions:
REMARK  status: ('A' for Active; 'I' for Inactive)
REMARK    1  A    between atoms: N_6  and  C_1 
REMARK    2  A    between atoms: C_7  and  N_2 
REMARK    3  A    between atoms: C_8  and  N_6 
ROOT
ATOM      1  C   UNL d   1     -57.660 -98.823 -44.292  0.00  0.00     0.735 A 
ATOM      2  N   UNL d   1     -58.471 -98.808 -44.458  0.00  0.00    -0.139 N 
ATOM      3  N   UNL d   1     -57.559 -98.816 -43.469  0.00  0.00    -0.059 NA
ATOM      4  C   UNL d   1     -58.875 -98.790 -43.739  0.00  0.00     0.100 A 
ATOM      5  C   UNL d   1     -58.307 -98.796 -43.130  0.00  0.00     0.116 A 
ATOM      6  C   UNL d   1     -59.678 -98.770 -43.554  0.00  0.00     0.020 A 
ATOM      7  C   UNL d   1     -58.558 -98.781 -42.342  0.00  0.00     0.021 A 
ATOM      8  C   UNL d   1     -59.920 -98.756 -42.770  0.00  0.00     0.002 A 
ATOM      9  C   UNL d   1     -59.360 -98.761 -42.157  0.00  0.00     0.002 A 
ENDROOT
BRANCH   1  10
ATOM     10  N   UNL d   1     -57.052 -98.843 -44.848  0.00  0.00    -0.061 NA
BRANCH  10  11
ATOM     11  C   UNL d   1     -56.342 -99.218 -44.676  0.00  0.00     0.100 A 
ATOM     12  C   UNL d   1     -55.649 -98.778 -44.664  0.00  0.00     0.020 A 
ATOM     13  C   UNL d   1     -54.930 -99.144 -44.492  0.00  0.00     0.002 A 
ATOM     14  C   UNL d   1     -54.908 -99.960 -44.329  0.00  0.00     0.000 A 
ATOM     15  C   UNL d   1     -55.609-100.396 -44.342  0.00  0.00     0.002 A 
ATOM     16  C   UNL d   1     -56.319-100.027 -44.514  0.00  0.00     0.020 A 
ENDBRANCH  10  11
ENDBRANCH   1  10
BRANCH   2  17
ATOM     17  C   UNL d   1     -58.811 -98.809 -45.207  0.00  0.00     0.082 C 
ATOM     18  C   UNL d   1     -58.329 -98.775 -45.880  0.00  0.00     0.020 C 
ATOM     19  C   UNL d   1     -59.629 -98.843 -45.295  0.00  0.00     0.020 C 
ENDBRANCH   2  17
TORSDOF 3
ENDMDL
