MODEL 1
REMARK VINA RESULT:      -5.0      0.000      0.000
REMARK  3 active torsions:
REMARK  status: ('A' for Active; 'I' for Inactive)
REMARK    1  A    between atoms: C_2  and  C_1 
REMARK    2  A    between atoms: N_12  and  C_6 
REMARK    3  A    between atoms: C_15  and  N_12 
ROOT
ATOM      1  C   UNL d   1      58.058   0.243  30.997  0.00  0.00     0.082 A 
ATOM      2  C   UNL d   1      58.650   0.532  31.500  0.00  0.00     0.302 A 
ATOM      3  C   UNL d   1      57.287   0.098  31.286  0.00  0.00     0.009 A 
ATOM      4  O   UNL d   1      58.474   0.678  32.300  0.00  0.00    -0.273 OA
ATOM      5  C   UNL d   1      57.130   0.250  32.086  0.00  0.00     0.025 A 
ATOM      6  C   UNL d   1      57.720   0.537  32.587  0.00  0.00     0.103 A 
ATOM      7  O   UNL d   1      59.405   0.673  31.215  0.00  0.00    -0.259 OA
ATOM      8  C   UNL d   1      56.370   0.109  32.378  0.00  0.00     0.026 A 
ATOM      9  C   UNL d   1      57.540   0.682  33.384  0.00  0.00     0.027 A 
ATOM     10  C   UNL d   1      56.199   0.254  33.166  0.00  0.00     0.094 A 
ATOM     11  C   UNL d   1      56.786   0.541  33.671  0.00  0.00     0.026 A 
ATOM     12  O   UNL d   1      55.449   0.114  33.454  0.00  0.00    -0.328 OA
ATOM     13  C   UNL d   1      54.685  -0.031  33.733  0.00  0.00     0.181 C 
ENDROOT
BRANCH   1  14
ATOM     14  C   UNL d   1      58.230   0.098  30.209  0.00  0.00     0.095 A 
ATOM     15  N   UNL d   1      58.225  -0.632  29.843  0.00  0.00    -0.221 NA
ATOM     16  C   UNL d   1      58.429  -0.521  29.058  0.00  0.00     0.194 A 
ATOM     17  S   UNL d   1      58.561   0.285  28.934  0.00  0.00    -0.046 SA
ATOM     18  C   UNL d   1      58.437   0.670  29.652  0.00  0.00     0.058 A 
BRANCH  16  19
ATOM     19  N   UNL d   1      58.492  -1.102  28.487  0.00  0.00    -0.221 NA
BRANCH  19  20
ATOM     20  C   UNL d   1      59.041  -1.702  28.579  0.00  0.00     0.087 A 
ATOM     21  C   UNL d   1      58.790  -2.465  28.769  0.00  0.00     0.061 A 
ATOM     22  C   UNL d   1      59.338  -3.065  28.861  0.00  0.00     0.197 A 
ATOM     23  O   UNL d   1      59.085  -3.823  29.050  0.00  0.00    -0.286 OA
ATOM     24  C   UNL d   1      60.146  -2.906  28.762  0.00  0.00     0.042 A 
ATOM     25  C   UNL d   1      60.393  -2.151  28.574  0.00  0.00     0.005 A 
ATOM     26  C   UNL d   1      59.845  -1.542  28.480  0.00  0.00     0.019 A 
ENDBRANCH  19  20
ENDBRANCH  16  19
ENDBRANCH   1  14
TORSDOF 3
ENDMDL
MODEL 2
REMARK VINA RESULT:      -4.6      1.219      5.013
REMARK  3 active torsions:
REMARK  status: ('A' for Active; 'I' for Inactive)
REMARK    1  A    between atoms: C_2  and  C_1 
REMARK    2  A    between atoms: N_12  and  C_6 
REMARK    3  A    between atoms: C_15  and  N_12 
ROOT
ATOM      1  C   UNL d   1      58.624  -0.569  30.062  0.00  0.00     0.082 A 
ATOM      2  C   UNL d   1      59.297  -0.199  29.750  0.00  0.00     0.302 A 
ATOM      3  C   UNL d   1      58.465  -1.373  29.897  0.00  0.00     0.009 A 
ATOM      4  O   UNL d   1      59.820  -0.634  29.270  0.00  0.00    -0.273 OA
ATOM      5  C   UNL d   1      58.997  -1.790  29.416  0.00  0.00     0.025 A 
ATOM      6  C   UNL d   1      59.667  -1.422  29.107  0.00  0.00     0.103 A 
ATOM      7  O   UNL d   1      59.450   0.589  29.912  0.00  0.00    -0.259 OA
ATOM      8  C   UNL d   1      58.847  -2.586  29.250  0.00  0.00     0.026 A 
ATOM      9  C   UNL d   1      60.186  -1.859  28.628  0.00  0.00     0.027 A 
ATOM     10  C   UNL d   1      59.363  -3.011  28.777  0.00  0.00     0.094 A 
ATOM     11  C   UNL d   1      60.034  -2.647  28.465  0.00  0.00     0.026 A 
ATOM     12  O   UNL d   1      59.213  -3.797  28.613  0.00  0.00    -0.328 OA
ATOM     13  C   UNL d   1      59.051  -4.591  28.455  0.00  0.00     0.181 C 
ENDROOT
BRANCH   1  14
ATOM     14  C   UNL d   1      58.108  -0.143  30.535  0.00  0.00     0.095 A 
ATOM     15  N   UNL d   1      58.083  -0.157  31.351  0.00  0.00    -0.221 NA
ATOM     16  C   UNL d   1      57.487   0.350  31.593  0.00  0.00     0.194 A 
ATOM     17  S   UNL d   1      57.139   0.682  30.922  0.00  0.00    -0.046 SA
ATOM     18  C   UNL d   1      57.526   0.375  30.263  0.00  0.00     0.058 A 
BRANCH  16  19
ATOM     19  N   UNL d   1      57.268   0.506  32.364  0.00  0.00    -0.221 NA
BRANCH  19  20
ATOM     20  C   UNL d   1      56.612   0.135  32.682  0.00  0.00     0.087 A 
ATOM     21  C   UNL d   1      56.027   0.582  33.055  0.00  0.00     0.061 A 
ATOM     22  C   UNL d   1      55.370   0.212  33.374  0.00  0.00     0.197 A 
ATOM     23  O   UNL d   1      54.790   0.659  33.744  0.00  0.00    -0.286 OA
ATOM     24  C   UNL d   1      55.293  -0.611  33.321  0.00  0.00     0.042 A 
ATOM     25  C   UNL d   1      55.873  -1.053  32.952  0.00  0.00     0.005 A 
ATOM     26  C   UNL d   1      56.537  -0.685  32.629  0.00  0.00     0.019 A 
ENDBRANCH  19  20
ENDBRANCH  16  19
ENDBRANCH   1  14
TORSDOF 3
ENDMDL
MODEL 3
REMARK VINA RESULT:      -3.2      1.428      2.200
REMARK  3 active torsions:
REMARK  status: ('A' for Active; 'I' for Inactive)
REMARK    1  A    between atoms: C_2  and  C_1 
REMARK    2  A    between atoms: N_12  and  C_6 
REMARK    3  A    between atoms: C_15  and  N_12 
ROOT
ATOM      1  C   UNL d   1      56.857   0.088  32.572  0.00  0.00     0.082 A 
ATOM      2  C   UNL d   1      57.384   0.213  33.199  0.00  0.00     0.302 A 
ATOM      3  C   UNL d   1      56.031   0.143  32.692  0.00  0.00     0.009 A 
ATOM      4  O   UNL d   1      57.088   0.393  33.956  0.00  0.00    -0.273 OA
ATOM      5  C   UNL d   1      55.755   0.324  33.453  0.00  0.00     0.025 A 
ATOM      6  C   UNL d   1      56.280   0.447  34.077  0.00  0.00     0.103 A 
ATOM      7  O   UNL d   1      58.193   0.159  33.079  0.00  0.00    -0.259 OA
ATOM      8  C   UNL d   1      54.940   0.379  33.579  0.00  0.00     0.026 A 
ATOM      9  C   UNL d   1      55.980   0.627  34.830  0.00  0.00     0.027 A 
ATOM     10  C   UNL d   1      54.650   0.557  34.325  0.00  0.00     0.094 A 
ATOM     11  C   UNL d   1      55.172   0.682  34.952  0.00  0.00     0.026 A 
ATOM     12  O   UNL d   1      53.846   0.612  34.449  0.00  0.00    -0.328 OA
ATOM     13  C   UNL d   1      53.029   0.664  34.561  0.00  0.00     0.181 C 
ENDROOT
BRANCH   1  14
ATOM     14  C   UNL d   1      57.147  -0.090  31.827  0.00  0.00     0.095 A 
ATOM     15  N   UNL d   1      57.450   0.446  31.290  0.00  0.00    -0.221 NA
ATOM     16  C   UNL d   1      57.675   0.031  30.620  0.00  0.00     0.194 A 
ATOM     17  S   UNL d   1      57.509  -0.769  30.742  0.00  0.00    -0.046 SA
ATOM     18  C   UNL d   1      57.181  -0.843  31.494  0.00  0.00     0.058 A 
BRANCH  16  19
ATOM     19  N   UNL d   1      58.006   0.346  29.943  0.00  0.00    -0.221 NA
BRANCH  19  20
ATOM     20  C   UNL d   1      58.769   0.143  29.732  0.00  0.00     0.087 A 
ATOM     21  C   UNL d   1      58.902  -0.510  29.245  0.00  0.00     0.061 A 
ATOM     22  C   UNL d   1      59.665  -0.714  29.033  0.00  0.00     0.197 A 
ATOM     23  O   UNL d   1      59.794  -1.364  28.549  0.00  0.00    -0.286 OA
ATOM     24  C   UNL d   1      60.305  -0.265  29.309  0.00  0.00     0.042 A 
ATOM     25  C   UNL d   1      60.173   0.381  29.791  0.00  0.00     0.005 A 
ATOM     26  C   UNL d   1      59.405   0.592  30.008  0.00  0.00     0.019 A 
ENDBRANCH  19  20
ENDBRANCH  16  19
ENDBRANCH   1  14
TORSDOF 3
ENDMDL
MODEL 4
REMARK VINA RESULT:      -2.9      1.490      5.114
REMARK  3 active torsions:
REMARK  status: ('A' for Active; 'I' for Inactive)
REMARK    1  A    between atoms: C_2  and  C_1 
REMARK    2  A    between atoms: N_12  and  C_6 
REMARK    3  A    between atoms: C_15  and  N_12 
ROOT
ATOM      1  C   UNL d   1      58.180  -0.373  30.270  0.00  0.00     0.082 A 
ATOM      2  C   UNL d   1      58.206  -0.017  29.522  0.00  0.00     0.302 A 
ATOM      3  C   UNL d   1      58.604  -1.079  30.420  0.00  0.00     0.009 A 
ATOM      4  O   UNL d   1      58.658  -0.364  28.916  0.00  0.00    -0.273 OA
ATOM      5  C   UNL d   1      59.048  -1.411  29.803  0.00  0.00     0.025 A 
ATOM      6  C   UNL d   1      59.074  -1.055  29.059  0.00  0.00     0.103 A 
ATOM      7  O   UNL d   1      57.791   0.675  29.377  0.00  0.00    -0.259 OA
ATOM      8  C   UNL d   1      59.469  -2.108  29.945  0.00  0.00     0.026 A 
ATOM      9  C   UNL d   1      59.525  -1.406  28.457  0.00  0.00     0.027 A 
ATOM     10  C   UNL d   1      59.913  -2.449  29.346  0.00  0.00     0.094 A 
ATOM     11  C   UNL d   1      59.941  -2.097  28.600  0.00  0.00     0.026 A 
ATOM     12  O   UNL d   1      60.328  -3.137  29.486  0.00  0.00    -0.328 OA
ATOM     13  C   UNL d   1      60.744  -3.834  29.641  0.00  0.00     0.181 C 
ENDROOT
BRANCH   1  14
ATOM     14  C   UNL d   1      57.737  -0.032  30.868  0.00  0.00     0.095 A 
ATOM     15  N   UNL d   1      56.934  -0.129  30.984  0.00  0.00    -0.221 NA
ATOM     16  C   UNL d   1      56.721   0.310  31.642  0.00  0.00     0.194 A 
ATOM     17  S   UNL d   1      57.396   0.682  31.937  0.00  0.00    -0.046 SA
ATOM     18  C   UNL d   1      58.029   0.469  31.454  0.00  0.00     0.058 A 
BRANCH  16  19
ATOM     19  N   UNL d   1      55.970   0.373  31.959  0.00  0.00    -0.221 NA
BRANCH  19  20
ATOM     20  C   UNL d   1      55.800   0.014  32.674  0.00  0.00     0.087 A 
ATOM     21  C   UNL d   1      55.579   0.473  33.323  0.00  0.00     0.061 A 
ATOM     22  C   UNL d   1      55.408   0.115  34.039  0.00  0.00     0.197 A 
ATOM     23  O   UNL d   1      55.188   0.574  34.682  0.00  0.00    -0.286 OA
ATOM     24  C   UNL d   1      55.459  -0.709  34.111  0.00  0.00     0.042 A 
ATOM     25  C   UNL d   1      55.678  -1.163  33.468  0.00  0.00     0.005 A 
ATOM     26  C   UNL d   1      55.851  -0.807  32.744  0.00  0.00     0.019 A 
ENDBRANCH  19  20
ENDBRANCH  16  19
ENDBRANCH   1  14
TORSDOF 3
ENDMDL
