MODEL 1
REMARK VINA RESULT:      18.8      0.000      0.000
REMARK  4 active torsions:
REMARK  status: ('A' for Active; 'I' for Inactive)
REMARK    1  A    between atoms: N_7  and  C_3 
REMARK       I    between atoms: C_8  and  N_7 
REMARK    2  A    between atoms: C_14  and  C_8 
REMARK    3  A    between atoms: C_15  and  C_14 
REMARK    4  A    between atoms: C_16  and  C_14 
ROOT
ATOM      1  C   UNL d   1     -58.682 -98.780 -44.829  0.00  0.00     0.343 A 
ATOM      2  N   UNL d   1     -57.871 -98.771 -44.921  0.00  0.00    -0.241 N 
ATOM      3  C   UNL d   1     -57.380 -98.769 -44.263  0.00  0.00     0.159 A 
ATOM      4  N   UNL d   1     -59.010 -98.788 -44.073  0.00  0.00    -0.224 N 
ATOM      5  C   UNL d   1     -57.709 -98.777 -43.508  0.00  0.00     0.099 A 
ATOM      6  C   UNL d   1     -58.531 -98.786 -43.402  0.00  0.00     0.271 A 
ATOM      7  O   UNL d   1     -59.174 -98.782 -45.492  0.00  0.00    -0.245 OA
ATOM      8  O   UNL d   1     -58.856 -98.794 -42.654  0.00  0.00    -0.266 OA
ATOM      9  C   UNL d   1     -57.542 -98.763 -45.677  0.00  0.00     0.105 C 
ATOM     10  C   UNL d   1     -59.831 -98.797 -43.981  0.00  0.00     0.107 C 
ENDROOT
BRANCH   3  11
ATOM     11  N   UNL d   1     -56.560 -98.759 -44.355  0.00  0.00    -0.190 NA
ATOM     12  C   UNL d   1     -56.121 -99.438 -44.204  0.00  0.00     0.280 C 
ATOM     13  O   UNL d   1     -56.499-100.128 -43.961  0.00  0.00    -0.265 OA
BRANCH  12  14
ATOM     14  C   UNL d   1     -55.304 -99.426 -44.297  0.00  0.00     0.058 C 
BRANCH  14  15
ATOM     15  C   UNL d   1     -54.844-100.075 -44.049  0.00  0.00     0.005 C 
ATOM     16  C   UNL d   1     -54.759-100.731 -44.548  0.00  0.00     0.000 C 
ENDBRANCH  14  15
BRANCH  14  17
ATOM     17  C   UNL d   1     -54.940 -98.795 -44.624  0.00  0.00     0.005 C 
ATOM     18  C   UNL d   1     -54.783 -98.762 -45.437  0.00  0.00     0.000 C 
ENDBRANCH  14  17
ENDBRANCH  12  14
ENDBRANCH   3  11
TORSDOF 4
ENDMDL
MODEL 2
REMARK VINA RESULT:      20.4      0.699      1.507
REMARK  4 active torsions:
REMARK  status: ('A' for Active; 'I' for Inactive)
REMARK    1  A    between atoms: N_7  and  C_3 
REMARK       I    between atoms: C_8  and  N_7 
REMARK    2  A    between atoms: C_14  and  C_8 
REMARK    3  A    between atoms: C_15  and  C_14 
REMARK    4  A    between atoms: C_16  and  C_14 
ROOT
ATOM      1  C   UNL d   1     -58.531 -98.757 -44.096  0.00  0.00     0.343 A 
ATOM      2  N   UNL d   1     -57.719 -98.756 -44.006  0.00  0.00    -0.241 N 
ATOM      3  C   UNL d   1     -57.231 -98.756 -44.666  0.00  0.00     0.159 A 
ATOM      4  N   UNL d   1     -58.862 -98.756 -44.850  0.00  0.00    -0.224 N 
ATOM      5  C   UNL d   1     -57.562 -98.755 -45.420  0.00  0.00     0.099 A 
ATOM      6  C   UNL d   1     -58.385 -98.756 -45.524  0.00  0.00     0.271 A 
ATOM      7  O   UNL d   1     -59.021 -98.757 -43.431  0.00  0.00    -0.245 OA
ATOM      8  O   UNL d   1     -58.712 -98.755 -46.270  0.00  0.00    -0.266 OA
ATOM      9  C   UNL d   1     -57.389 -98.757 -43.251  0.00  0.00     0.105 C 
ATOM     10  C   UNL d   1     -59.683 -98.757 -44.940  0.00  0.00     0.107 C 
ENDROOT
BRANCH   3  11
ATOM     11  N   UNL d   1     -56.410 -98.755 -44.576  0.00  0.00    -0.190 NA
ATOM     12  C   UNL d   1     -55.987 -99.455 -44.662  0.00  0.00     0.280 C 
ATOM     13  O   UNL d   1     -56.381-100.157 -44.837  0.00  0.00    -0.265 OA
BRANCH  12  14
ATOM     14  C   UNL d   1     -55.169 -99.452 -44.572  0.00  0.00     0.058 C 
BRANCH  14  15
ATOM     15  C   UNL d   1     -54.714-100.091 -44.852  0.00  0.00     0.005 C 
ATOM     16  C   UNL d   1     -54.721-100.810 -44.439  0.00  0.00     0.000 C 
ENDBRANCH  14  15
BRANCH  14  17
ATOM     17  C   UNL d   1     -54.801 -98.839 -44.216  0.00  0.00     0.005 C 
ATOM     18  C   UNL d   1     -54.713 -98.808 -43.393  0.00  0.00     0.000 C 
ENDBRANCH  14  17
ENDBRANCH  12  14
ENDBRANCH   3  11
TORSDOF 4
ENDMDL
