MODEL 1
REMARK VINA RESULT:      47.6      0.000      0.000
REMARK  3 active torsions:
REMARK  status: ('A' for Active; 'I' for Inactive)
REMARK    1  A    between atoms: N_2  and  C_1 
REMARK       I    between atoms: C_5  and  N_2 
REMARK    2  A    between atoms: C_8  and  C_5 
REMARK    3  A    between atoms: O_17  and  C_13 
ROOT
ATOM      1  N   UNL d   1      13.914  13.482  -3.237  0.00  0.00    -0.184 NA
ATOM      2  C   UNL d   1      13.894  14.306  -3.297  0.00  0.00     0.281 C 
ATOM      3  O   UNL d   1      14.038  14.754  -2.618  0.00  0.00    -0.265 OA
ENDROOT
BRANCH   1   4
ATOM      4  C   UNL d   1      14.078  13.136  -2.501  0.00  0.00     0.182 A 
ATOM      5  N   UNL d   1      13.759  12.432  -2.169  0.00  0.00    -0.283 N 
ATOM      6  C   UNL d   1      14.132  12.356  -1.406  0.00  0.00     0.072 A 
ATOM      7  C   UNL d   1      13.224  11.952  -2.506  0.00  0.00     0.101 C 
ATOM      8  C   UNL d   1      14.060  11.779  -0.796  0.00  0.00     0.018 A 
ATOM      9  C   UNL d   1      14.625  12.976  -1.322  0.00  0.00     0.048 A 
ATOM     10  C   UNL d   1      14.519  11.865  -0.090  0.00  0.00     0.002 A 
ATOM     11  C   UNL d   1      15.016  12.498  -0.014  0.00  0.00     0.001 A 
ATOM     12  C   UNL d   1      15.089  13.071  -0.618  0.00  0.00     0.008 A 
ATOM     13  S   UNL d   1      14.605  13.451  -1.967  0.00  0.00    -0.048 SA
ENDBRANCH   1   4
BRANCH   2  14
ATOM     14  C   UNL d   1      13.739  14.693  -3.990  0.00  0.00     0.058 A 
ATOM     15  C   UNL d   1      13.101  14.469  -4.441  0.00  0.00     0.007 A 
ATOM     16  C   UNL d   1      12.947  14.867  -5.148  0.00  0.00     0.024 A 
ATOM     17  C   UNL d   1      13.430  15.479  -5.389  0.00  0.00     0.094 A 
ATOM     18  C   UNL d   1      14.068  15.703  -4.936  0.00  0.00     0.024 A 
ATOM     19  C   UNL d   1      14.246  15.312  -4.212  0.00  0.00     0.007 A 
BRANCH  17  20
ATOM     20  O   UNL d   1      13.268  15.874  -6.101  0.00  0.00    -0.328 OA
ATOM     21  C   UNL d   1      12.844  16.639  -6.193  0.00  0.00     0.181 C 
ENDBRANCH  17  20
ENDBRANCH   2  14
TORSDOF 3
ENDMDL
