MODEL 1
REMARK VINA RESULT:      25.6      0.000      0.000
REMARK  2 active torsions:
REMARK  status: ('A' for Active; 'I' for Inactive)
REMARK    1  A    between atoms: N_9  and  C_2 
REMARK    2  A    between atoms: C_11  and  N_9 
ROOT
ATOM      1  C   UNL d   1     -50.429  26.389  33.621  0.00  0.00     0.154 A 
ATOM      2  C   UNL d   1     -50.890  25.740  33.421  0.00  0.00     0.185 A 
ATOM      3  C   UNL d   1     -49.612  26.305  33.707  0.00  0.00     0.186 A 
ATOM      4  N   UNL d   1     -50.622  27.177  33.767  0.00  0.00    -0.218 NA
ATOM      5  N   UNL d   1     -49.303  27.042  33.907  0.00  0.00    -0.203 NA
ATOM      6  N   UNL d   1     -50.537  25.003  33.306  0.00  0.00    -0.203 NA
ATOM      7  N   UNL d   1     -49.258  25.573  33.594  0.00  0.00    -0.203 NA
ATOM      8  C   UNL d   1     -49.920  27.577  33.944  0.00  0.00     0.201 A 
ATOM      9  C   UNL d   1     -49.721  24.920  33.393  0.00  0.00     0.202 A 
ENDROOT
BRANCH   2  10
ATOM     10  N   UNL d   1     -51.707  25.824  33.334  0.00  0.00    -0.225 NA
BRANCH  10  11
ATOM     11  C   UNL d   1     -52.197  25.167  33.385  0.00  0.00     0.083 A 
ATOM     12  C   UNL d   1     -51.873  24.414  33.481  0.00  0.00     0.021 A 
ATOM     13  C   UNL d   1     -52.360  23.760  33.532  0.00  0.00     0.031 A 
ATOM     14  C   UNL d   1     -53.187  23.850  33.488  0.00  0.00     0.140 A 
ATOM     15  C   UNL d   1     -53.511  24.603  33.392  0.00  0.00     0.031 A 
ATOM     16  F   UNL d   1     -53.687  23.190  33.539  0.00  0.00    -0.204 F 
ATOM     17  C   UNL d   1     -53.016  25.262  33.341  0.00  0.00     0.021 A 
ENDBRANCH  10  11
ENDBRANCH   2  10
TORSDOF 2
ENDMDL
