MODEL 1
REMARK VINA RESULT:      61.6      0.000      0.000
REMARK  3 active torsions:
REMARK  status: ('A' for Active; 'I' for Inactive)
REMARK    1  A    between atoms: C_4  and  C_1 
REMARK       I    between atoms: N_7  and  C_4 
REMARK    2  A    between atoms: C_9  and  N_7 
REMARK    3  A    between atoms: N_8  and  C_11 
ROOT
ATOM      1  C   UNL d   1     -51.809  24.387  33.809  0.00  0.00     0.263 C 
ATOM      2  N   UNL d   1     -51.332  24.954  33.453  0.00  0.00    -0.210 NA
ATOM      3  O   UNL d   1     -51.472  23.737  34.194  0.00  0.00    -0.270 OA
ENDROOT
BRANCH   1   4
ATOM      4  C   UNL d   1     -52.583  24.651  33.670  0.00  0.00     0.113 A 
ATOM      5  C   UNL d   1     -53.770  25.387  33.481  0.00  0.00     0.025 A 
ATOM      6  C   UNL d   1     -53.235  24.845  33.551  0.00  0.00     0.074 A 
ATOM      7  C   UNL d   1     -53.944  26.199  33.506  0.00  0.00     0.002 C 
ATOM      8  C   UNL d   1     -54.566  25.231  33.307  0.00  0.00     0.002 C 
ATOM      9  C   UNL d   1     -53.990  24.556  33.375  0.00  0.00     0.012 C 
ATOM     10  C   UNL d   1     -52.577  25.100  33.705  0.00  0.00    -0.023 A 
ATOM     11  C   UNL d   1     -53.273  24.000  33.481  0.00  0.00     0.172 A 
ATOM     12  C   UNL d   1     -51.900  25.039  33.839  0.00  0.00    -0.018 A 
ATOM     13  C   UNL d   1     -52.658  23.908  33.600  0.00  0.00     0.024 A 
ATOM     14  O   UNL d   1     -53.897  23.481  33.315  0.00  0.00    -0.291 OA
ENDBRANCH   1   4
BRANCH   2  15
ATOM     15  C   UNL d   1     -50.505  24.870  33.483  0.00  0.00     0.100 A 
ATOM     16  C   UNL d   1     -50.042  25.520  33.688  0.00  0.00     0.082 A 
ATOM     17  C   UNL d   1     -49.224  25.436  33.717  0.00  0.00     0.019 A 
ATOM     18  C   UNL d   1     -48.867  24.706  33.542  0.00  0.00     0.002 A 
ATOM     19  C   UNL d   1     -49.342  24.063  33.338  0.00  0.00     0.002 A 
ATOM     20  C   UNL d   1     -50.159  24.144  33.308  0.00  0.00     0.021 A 
BRANCH  16  21
ATOM     21  N   UNL d   1     -50.397  26.245  33.862  0.00  0.00    -0.302 N 
ATOM     22  C   UNL d   1     -50.666  26.792  33.306  0.00  0.00     0.080 A 
ATOM     23  C   UNL d   1     -50.984  27.441  33.718  0.00  0.00     0.021 A 
ATOM     24  C   UNL d   1     -50.908  27.286  34.526  0.00  0.00     0.021 A 
ATOM     25  C   UNL d   1     -50.545  26.546  34.618  0.00  0.00     0.080 A 
ENDBRANCH  16  21
ENDBRANCH   2  15
TORSDOF 3
ENDMDL
