MODEL 1
REMARK VINA RESULT:      19.9      0.000      0.000
REMARK  5 active torsions:
REMARK  status: ('A' for Active; 'I' for Inactive)
REMARK    1  A    between atoms: N_2  and  S_1 
REMARK    2  A    between atoms: C_6  and  S_1 
REMARK    3  A    between atoms: C_5  and  N_2 
REMARK    4  A    between atoms: C_3  and  C_8 
REMARK    5  A    between atoms: C_7  and  C_4 
ROOT
ATOM      1  S   UNL d   1      13.842  12.467  -2.531  0.00  0.00     0.285 S 
ATOM      2  O   UNL d   1      13.417  11.780  -2.441  0.00  0.00    -0.198 OA
ATOM      3  O   UNL d   1      14.274  13.164  -2.623  0.00  0.00    -0.198 OA
ENDROOT
BRANCH   1   4
ATOM      4  N   UNL d   1      13.693  12.454  -3.337  0.00  0.00    -0.158 NA
BRANCH   4   5
ATOM      5  C   UNL d   1      13.446  13.132  -3.735  0.00  0.00     0.100 A 
ATOM      6  C   UNL d   1      13.238  13.105  -4.495  0.00  0.00     0.083 A 
ATOM      7  C   UNL d   1      12.990  13.784  -4.893  0.00  0.00     0.008 A 
ATOM      8  C   UNL d   1      12.960  14.529  -4.471  0.00  0.00     0.000 A 
ATOM      9  C   UNL d   1      13.168  14.556  -3.711  0.00  0.00     0.002 A 
ATOM     10  C   UNL d   1      13.423  13.842  -3.313  0.00  0.00     0.020 A 
BRANCH   6  11
ATOM     11  C   UNL d   1      13.261  12.396  -4.917  0.00  0.00     0.212 C 
ATOM     12  O   UNL d   1      13.756  12.305  -5.563  0.00  0.00    -0.644 OA
ATOM     13  O   UNL d   1      12.770  11.781  -4.667  0.00  0.00    -0.644 OA
ENDBRANCH   6  11
ENDBRANCH   4   5
ENDBRANCH   1   4
BRANCH   1  14
ATOM     14  C   UNL d   1      13.992  12.481  -1.719  0.00  0.00     0.105 A 
ATOM     15  C   UNL d   1      14.595  12.948  -1.407  0.00  0.00     0.017 A 
ATOM     16  C   UNL d   1      14.740  12.962  -0.625  0.00  0.00     0.072 A 
ATOM     17  C   UNL d   1      14.291  12.508  -0.103  0.00  0.00     0.004 A 
ATOM     18  C   UNL d   1      13.687  12.040  -0.415  0.00  0.00     0.001 A 
ATOM     19  C   UNL d   1      13.543  12.027  -1.197  0.00  0.00     0.013 A 
BRANCH  16  20
ATOM     20  C   UNL d   1      15.369  13.453  -0.318  0.00  0.00     0.419 C 
ATOM     21  F   UNL d   1      15.966  13.951  -0.015  0.00  0.00    -0.166 F 
ATOM     22  F   UNL d   1      14.812  14.087  -0.186  0.00  0.00    -0.166 F 
ATOM     23  F   UNL d   1      15.895  12.831  -0.451  0.00  0.00    -0.166 F 
ENDBRANCH  16  20
ENDBRANCH   1  14
TORSDOF 5
ENDMDL
MODEL 2
REMARK VINA RESULT:      22.5      2.322      4.180
REMARK  5 active torsions:
REMARK  status: ('A' for Active; 'I' for Inactive)
REMARK    1  A    between atoms: N_2  and  S_1 
REMARK    2  A    between atoms: C_6  and  S_1 
REMARK    3  A    between atoms: C_5  and  N_2 
REMARK    4  A    between atoms: C_3  and  C_8 
REMARK    5  A    between atoms: C_7  and  C_4 
ROOT
ATOM      1  S   UNL d   1      13.546  12.172  -2.430  0.00  0.00     0.285 S 
ATOM      2  O   UNL d   1      14.306  12.458  -2.467  0.00  0.00    -0.198 OA
ATOM      3  O   UNL d   1      12.775  11.882  -2.393  0.00  0.00    -0.198 OA
ENDROOT
BRANCH   1   4
ATOM      4  N   UNL d   1      13.727  11.779  -1.735  0.00  0.00    -0.158 NA
BRANCH   4   5
ATOM      5  C   UNL d   1      14.396  11.980  -1.295  0.00  0.00     0.100 A 
ATOM      6  C   UNL d   1      14.329  12.281  -0.569  0.00  0.00     0.083 A 
ATOM      7  C   UNL d   1      14.999  12.482  -0.129  0.00  0.00     0.008 A 
ATOM      8  C   UNL d   1      15.775  12.360  -0.470  0.00  0.00     0.000 A 
ATOM      9  C   UNL d   1      15.841  12.059  -1.196  0.00  0.00     0.002 A 
ATOM     10  C   UNL d   1      15.137  11.857  -1.638  0.00  0.00     0.020 A 
BRANCH   6  11
ATOM     11  C   UNL d   1      13.589  12.404  -0.226  0.00  0.00     0.212 C 
ATOM     12  O   UNL d   1      13.077  11.779  -0.091  0.00  0.00    -0.644 OA
ATOM     13  O   UNL d   1      13.380  13.176  -0.024  0.00  0.00    -0.644 OA
ENDBRANCH   6  11
ENDBRANCH   4   5
ENDBRANCH   1   4
BRANCH   1  14
ATOM     14  C   UNL d   1      13.363  12.568  -3.132  0.00  0.00     0.105 A 
ATOM     15  C   UNL d   1      13.529  12.231  -3.865  0.00  0.00     0.017 A 
ATOM     16  C   UNL d   1      13.352  12.613  -4.541  0.00  0.00     0.072 A 
ATOM     17  C   UNL d   1      12.999  13.357  -4.527  0.00  0.00     0.004 A 
ATOM     18  C   UNL d   1      12.833  13.695  -3.794  0.00  0.00     0.001 A 
ATOM     19  C   UNL d   1      13.010  13.313  -3.118  0.00  0.00     0.013 A 
BRANCH  16  20
ATOM     20  C   UNL d   1      13.531  12.247  -5.294  0.00  0.00     0.419 C 
ATOM     21  F   UNL d   1      13.687  11.907  -6.039  0.00  0.00    -0.166 F 
ATOM     22  F   UNL d   1      12.944  12.740  -5.674  0.00  0.00    -0.166 F 
ATOM     23  F   UNL d   1      14.094  11.779  -4.913  0.00  0.00    -0.166 F 
ENDBRANCH  16  20
ENDBRANCH   1  14
TORSDOF 5
ENDMDL
