MODEL 1
REMARK VINA RESULT:      -3.4      0.000      0.000
REMARK  8 active torsions:
REMARK  status: ('A' for Active; 'I' for Inactive)
REMARK    1  A    between atoms: N_6  and  C_1 
REMARK       I    between atoms: C_2  and  N_3 
REMARK    2  A    between atoms: C_7  and  C_2 
REMARK    3  A    between atoms: N_3  and  C_4 
REMARK    4  A    between atoms: C_4  and  N_6 
REMARK    5  A    between atoms: C_10  and  C_8 
REMARK    6  A    between atoms: C_12  and  C_10 
REMARK    7  A    between atoms: O_18  and  C_12 
REMARK    8  A    between atoms: C_21  and  O_18 
ROOT
ATOM      1  C   UNL d   1      58.340   0.210  29.859  0.00  0.00     0.277 C 
ATOM      2  S   UNL d   1      58.034   0.646  29.228  0.00  0.00    -0.023 SA
ENDROOT
BRANCH   1   3
ATOM      3  N   UNL d   1      58.934  -0.345  29.715  0.00  0.00    -0.168 NA
ATOM      4  C   UNL d   1      58.880  -0.855  29.070  0.00  0.00     0.282 C 
ATOM      5  O   UNL d   1      58.236  -0.816  28.563  0.00  0.00    -0.265 OA
BRANCH   4   6
ATOM      6  C   UNL d   1      59.481  -1.411  28.932  0.00  0.00     0.064 A 
ATOM      7  C   UNL d   1      59.313  -2.213  28.979  0.00  0.00     0.039 A 
ATOM      8 BR   UNL d   1      58.557  -2.470  29.162  0.00  0.00    -0.049 Br
ATOM      9  C   UNL d   1      59.915  -2.760  28.840  0.00  0.00     0.007 A 
ATOM     10  C   UNL d   1      60.683  -2.506  28.655  0.00  0.00     0.001 A 
ATOM     11  C   UNL d   1      60.838  -1.692  28.610  0.00  0.00     0.000 A 
ATOM     12  C   UNL d   1      60.239  -1.145  28.749  0.00  0.00     0.005 A 
ENDBRANCH   4   6
ENDBRANCH   1   3
BRANCH   1  13
ATOM     13  N   UNL d   1      58.056   0.330  30.620  0.00  0.00    -0.347 NA
BRANCH  13  14
ATOM     14  C   UNL d   1      57.772   0.452  31.387  0.00  0.00     0.248 A 
ATOM     15  N   UNL d   1      56.974   0.469  31.615  0.00  0.00    -0.210 NA
ATOM     16  C   UNL d   1      56.950   0.606  32.429  0.00  0.00     0.096 A 
ATOM     17  C   UNL d   1      57.731   0.672  32.705  0.00  0.00     0.059 A 
ATOM     18  S   UNL d   1      58.229   0.576  32.059  0.00  0.00    -0.033 SA
BRANCH  16  19
ATOM     19  C   UNL d   1      56.273   0.665  32.890  0.00  0.00     0.088 C 
BRANCH  19  20
ATOM     20  C   UNL d   1      55.888  -0.011  33.166  0.00  0.00     0.302 C 
ATOM     21  O   UNL d   1      56.309  -0.717  33.229  0.00  0.00    -0.259 OA
BRANCH  20  22
ATOM     22  O   UNL d   1      55.096   0.017  33.377  0.00  0.00    -0.271 OA
BRANCH  22  23
ATOM     23  C   UNL d   1      54.877   0.346  34.105  0.00  0.00     0.126 C 
ATOM     24  C   UNL d   1      54.083   0.361  34.319  0.00  0.00     0.029 C 
ENDBRANCH  22  23
ENDBRANCH  20  22
ENDBRANCH  19  20
ENDBRANCH  16  19
ENDBRANCH  13  14
ENDBRANCH   1  13
TORSDOF 8
ENDMDL
MODEL 2
REMARK VINA RESULT:      -2.5      1.718      5.620
REMARK  8 active torsions:
REMARK  status: ('A' for Active; 'I' for Inactive)
REMARK    1  A    between atoms: N_6  and  C_1 
REMARK       I    between atoms: C_2  and  N_3 
REMARK    2  A    between atoms: C_7  and  C_2 
REMARK    3  A    between atoms: N_3  and  C_4 
REMARK    4  A    between atoms: C_4  and  N_6 
REMARK    5  A    between atoms: C_10  and  C_8 
REMARK    6  A    between atoms: C_12  and  C_10 
REMARK    7  A    between atoms: O_18  and  C_12 
REMARK    8  A    between atoms: C_21  and  O_18 
ROOT
ATOM      1  C   UNL d   1      57.669   0.573  32.310  0.00  0.00     0.277 C 
ATOM      2  S   UNL d   1      58.277   0.682  32.859  0.00  0.00    -0.023 SA
ENDROOT
BRANCH   1   3
ATOM      3  N   UNL d   1      56.885   0.660  32.555  0.00  0.00    -0.168 NA
ATOM      4  C   UNL d   1      56.613   0.271  33.228  0.00  0.00     0.282 C 
ATOM      5  O   UNL d   1      57.117  -0.208  33.663  0.00  0.00    -0.265 OA
BRANCH   4   6
ATOM      6  C   UNL d   1      55.823   0.364  33.467  0.00  0.00     0.064 A 
ATOM      7  C   UNL d   1      55.655   0.568  34.244  0.00  0.00     0.039 A 
ATOM      8 BR   UNL d   1      56.258   0.681  34.786  0.00  0.00    -0.049 Br
ATOM      9  C   UNL d   1      54.867   0.658  34.476  0.00  0.00     0.007 A 
ATOM     10  C   UNL d   1      54.250   0.545  33.931  0.00  0.00     0.001 A 
ATOM     11  C   UNL d   1      54.437   0.338  33.149  0.00  0.00     0.000 A 
ATOM     12  C   UNL d   1      55.221   0.248  32.917  0.00  0.00     0.005 A 
ENDBRANCH   4   6
ENDBRANCH   1   3
BRANCH   1  13
ATOM     13  N   UNL d   1      57.845   0.380  31.532  0.00  0.00    -0.347 NA
BRANCH  13  14
ATOM     14  C   UNL d   1      58.021   0.184  30.748  0.00  0.00     0.248 A 
ATOM     15  N   UNL d   1      57.877  -0.548  30.383  0.00  0.00    -0.210 NA
ATOM     16  C   UNL d   1      58.142  -0.494  29.603  0.00  0.00     0.096 A 
ATOM     17  C   UNL d   1      58.449   0.268  29.485  0.00  0.00     0.059 A 
ATOM     18  S   UNL d   1      58.371   0.678  30.193  0.00  0.00    -0.033 SA
BRANCH  16  19
ATOM     19  C   UNL d   1      58.108  -1.090  29.039  0.00  0.00     0.088 C 
BRANCH  19  20
ATOM     20  C   UNL d   1      58.771  -1.551  28.872  0.00  0.00     0.302 C 
ATOM     21  O   UNL d   1      59.440  -1.195  28.546  0.00  0.00    -0.259 OA
BRANCH  20  22
ATOM     22  O   UNL d   1      58.768  -2.357  29.027  0.00  0.00    -0.271 OA
BRANCH  22  23
ATOM     23  C   UNL d   1      59.347  -2.842  28.687  0.00  0.00     0.126 C 
ATOM     24  C   UNL d   1      59.389  -3.634  28.906  0.00  0.00     0.029 C 
ENDBRANCH  22  23
ENDBRANCH  20  22
ENDBRANCH  19  20
ENDBRANCH  16  19
ENDBRANCH  13  14
ENDBRANCH   1  13
TORSDOF 8
ENDMDL
