MODEL 1
REMARK VINA RESULT:      46.6      0.000      0.000
REMARK  2 active torsions:
REMARK  status: ('A' for Active; 'I' for Inactive)
REMARK    1  A    between atoms: C_2  and  C_1 
REMARK       I    between atoms: N_7  and  C_2 
REMARK    2  A    between atoms: C_9  and  N_7 
ROOT
ATOM      1  C   UNL d   1      60.638  49.498  52.016  0.00  0.00     0.280 C 
ATOM      2  N   UNL d   1      59.853  49.685  52.179  0.00  0.00    -0.208 NA
ATOM      3  O   UNL d   1      61.212  49.613  52.599  0.00  0.00    -0.265 OA
ENDROOT
BRANCH   1   4
ATOM      4  C   UNL d   1      60.848  49.199  51.277  0.00  0.00     0.065 A 
ATOM      5  C   UNL d   1      60.968  48.402  51.095  0.00  0.00     0.011 A 
ATOM      6  C   UNL d   1      61.167  48.361  50.300  0.00  0.00     0.030 A 
ATOM      7  C   UNL d   1      60.923  47.720  51.547  0.00  0.00     0.001 A 
ATOM      8  C   UNL d   1      61.323  47.626  49.949  0.00  0.00     0.006 A 
ATOM      9  S   UNL d   1      61.169  49.125  49.991  0.00  0.00    -0.086 SA
ATOM     10  C   UNL d   1      61.279  46.955  50.392  0.00  0.00     0.001 A 
ATOM     11  C   UNL d   1      61.079  46.990  51.195  0.00  0.00     0.000 A 
ATOM     12  C   UNL d   1      60.970  49.641  50.606  0.00  0.00     0.040 A 
ENDBRANCH   1   4
BRANCH   2  13
ATOM     13  C   UNL d   1      59.271  49.571  51.593  0.00  0.00     0.085 A 
ATOM     14  C   UNL d   1      59.453  49.705  50.803  0.00  0.00     0.019 A 
ATOM     15  C   UNL d   1      58.873  49.591  50.221  0.00  0.00     0.002 A 
ATOM     16  C   UNL d   1      58.115  49.343  50.432  0.00  0.00     0.000 A 
ATOM     17  C   UNL d   1      57.940  49.210  51.233  0.00  0.00     0.002 A 
ATOM     18  C   UNL d   1      57.545  49.233  49.839  0.00  0.00     0.000 C 
ATOM     19  C   UNL d   1      58.516  49.323  51.812  0.00  0.00     0.019 A 
ENDBRANCH   2  13
TORSDOF 2
ENDMDL
