MODEL 1
REMARK VINA RESULT:      29.5      0.000      0.000
REMARK  5 active torsions:
REMARK  status: ('A' for Active; 'I' for Inactive)
REMARK    1  A    between atoms: C_6  and  C_1 
REMARK    2  A    between atoms: C_8  and  N_3 
REMARK    3  A    between atoms: C_7  and  C_6 
REMARK    4  A    between atoms: C_9  and  C_7 
REMARK    5  A    between atoms: C_14  and  C_8 
ROOT
ATOM      1  C   UNL d   1      13.261  12.314  -3.236  0.00  0.00     0.148 A 
ATOM      2  N   UNL d   1      12.981  11.779  -3.923  0.00  0.00    -0.227 NA
ATOM      3  N   UNL d   1      13.474  13.119  -3.609  0.00  0.00    -0.289 N 
ATOM      4  C   UNL d   1      13.329  13.089  -4.517  0.00  0.00     0.083 A 
ATOM      5  C   UNL d   1      13.019  12.244  -4.715  0.00  0.00     0.099 A 
ATOM      6  C   UNL d   1      13.436  13.710  -5.185  0.00  0.00     0.019 A 
ATOM      7  C   UNL d   1      12.823  12.039  -5.576  0.00  0.00     0.021 A 
ATOM      8  C   UNL d   1      13.233  13.480  -6.039  0.00  0.00     0.002 A 
ATOM      9  C   UNL d   1      12.923  12.636  -6.237  0.00  0.00     0.002 A 
ENDROOT
BRANCH   1  10
ATOM     10  C   UNL d   1      13.428  12.485  -2.492  0.00  0.00     0.037 C 
BRANCH  10  11
ATOM     11  C   UNL d   1      13.641  11.934  -1.934  0.00  0.00     0.003 C 
BRANCH  11  12
ATOM     12  C   UNL d   1      14.140  12.096  -1.312  0.00  0.00     0.000 A 
ATOM     13  C   UNL d   1      14.924  11.883  -1.331  0.00  0.00     0.000 A 
ATOM     14  C   UNL d   1      15.422  12.045  -0.710  0.00  0.00     0.000 A 
ATOM     15  C   UNL d   1      15.126  12.434  -0.045  0.00  0.00     0.000 A 
ATOM     16  C   UNL d   1      14.337  12.652  -0.017  0.00  0.00     0.000 A 
ATOM     17  C   UNL d   1      13.843  12.485  -0.647  0.00  0.00     0.000 A 
ENDBRANCH  11  12
ENDBRANCH  10  11
ENDBRANCH   1  10
BRANCH   3  18
ATOM     18  C   UNL d   1      13.679  13.850  -3.864  0.00  0.00     0.082 C 
BRANCH  18  19
ATOM     19  C   UNL d   1      13.615  14.486  -3.337  0.00  0.00     0.019 C 
ATOM     20  C   UNL d   1      13.975  15.202  -3.522  0.00  0.00     0.002 C 
ENDBRANCH  18  19
ENDBRANCH   3  18
TORSDOF 5
ENDMDL
