MODEL 1
REMARK VINA RESULT:      -8.4      0.000      0.000
REMARK  1 active torsions:
REMARK  status: ('A' for Active; 'I' for Inactive)
REMARK    1  A    between atoms: C_11  and  C_4 
ROOT
ATOM      1  N   UNL d   1     -48.693  13.683  23.242  0.00  0.00    -0.242 NA
ATOM      2  C   UNL d   1     -47.950  13.357  23.170  0.00  0.00     0.099 A 
ATOM      3  N   UNL d   1     -47.478  14.522  22.509  0.00  0.00    -0.241 NA
ATOM      4  C   UNL d   1     -48.825  14.428  22.947  0.00  0.00     0.101 A 
ATOM      5  C   UNL d   1     -47.342  13.777  22.803  0.00  0.00     0.099 A 
ATOM      6  C   UNL d   1     -47.814  12.606  23.466  0.00  0.00     0.021 A 
ATOM      7  C   UNL d   1     -47.053  12.257  23.399  0.00  0.00     0.002 A 
ATOM      8  C   UNL d   1     -46.445  12.677  23.032  0.00  0.00     0.002 A 
ATOM      9  C   UNL d   1     -46.599  13.445  22.733  0.00  0.00     0.021 A 
ATOM     10  C   UNL d   1     -48.217  14.848  22.580  0.00  0.00     0.118 A 
ATOM     11  C   UNL d   1     -46.904  11.492  23.698  0.00  0.00     0.000 C 
ATOM     12  C   UNL d   1     -45.690  12.331  22.965  0.00  0.00     0.000 C 
ENDROOT
BRANCH   4  13
ATOM     13  C   UNL d   1     -49.569  14.756  23.018  0.00  0.00     0.019 A 
ATOM     14  C   UNL d   1     -50.171  14.532  22.509  0.00  0.00     0.002 A 
ATOM     15  C   UNL d   1     -50.951  14.867  22.573  0.00  0.00     0.000 A 
ATOM     16  C   UNL d   1     -51.064  15.427  23.174  0.00  0.00     0.000 A 
ATOM     17  C   UNL d   1     -50.462  15.651  23.683  0.00  0.00     0.000 A 
ATOM     18  C   UNL d   1     -49.720  15.324  23.613  0.00  0.00     0.002 A 
ENDBRANCH   4  13
TORSDOF 1
ENDMDL
MODEL 2
REMARK VINA RESULT:      -8.0      0.862      1.651
REMARK  1 active torsions:
REMARK  status: ('A' for Active; 'I' for Inactive)
REMARK    1  A    between atoms: C_11  and  C_4 
ROOT
ATOM      1  N   UNL d   1     -48.536  13.455  22.799  0.00  0.00    -0.242 NA
ATOM      2  C   UNL d   1     -47.959  12.926  23.024  0.00  0.00     0.099 A 
ATOM      3  N   UNL d   1     -48.940  12.048  23.556  0.00  0.00    -0.241 NA
ATOM      4  C   UNL d   1     -49.313  13.278  22.954  0.00  0.00     0.101 A 
ATOM      5  C   UNL d   1     -48.161  12.222  23.403  0.00  0.00     0.099 A 
ATOM      6  C   UNL d   1     -47.175  13.102  22.869  0.00  0.00     0.021 A 
ATOM      7  C   UNL d   1     -46.569  12.566  23.095  0.00  0.00     0.002 A 
ATOM      8  C   UNL d   1     -46.772  11.861  23.474  0.00  0.00     0.002 A 
ATOM      9  C   UNL d   1     -47.579  11.695  23.626  0.00  0.00     0.021 A 
ATOM     10  C   UNL d   1     -49.515  12.574  23.333  0.00  0.00     0.118 A 
ATOM     11  C   UNL d   1     -45.766  12.736  22.941  0.00  0.00     0.000 C 
ATOM     12  C   UNL d   1     -46.170  11.329  23.698  0.00  0.00     0.000 C 
ENDROOT
BRANCH   4  13
ATOM     13  C   UNL d   1     -49.892  13.807  22.730  0.00  0.00     0.019 A 
ATOM     14  C   UNL d   1     -50.028  14.486  23.170  0.00  0.00     0.002 A 
ATOM     15  C   UNL d   1     -50.628  15.045  22.946  0.00  0.00     0.000 A 
ATOM     16  C   UNL d   1     -51.064  14.866  22.265  0.00  0.00     0.000 A 
ATOM     17  C   UNL d   1     -50.929  14.188  21.824  0.00  0.00     0.000 A 
ATOM     18  C   UNL d   1     -50.352  13.659  22.047  0.00  0.00     0.002 A 
ENDBRANCH   4  13
TORSDOF 1
ENDMDL
MODEL 3
REMARK VINA RESULT:      -8.0      0.736      3.964
REMARK  1 active torsions:
REMARK  status: ('A' for Active; 'I' for Inactive)
REMARK    1  A    between atoms: C_11  and  C_4 
ROOT
ATOM      1  N   UNL d   1     -48.080  13.973  22.968  0.00  0.00    -0.242 NA
ATOM      2  C   UNL d   1     -48.816  14.288  22.818  0.00  0.00     0.099 A 
ATOM      3  N   UNL d   1     -48.996  13.401  21.723  0.00  0.00    -0.241 NA
ATOM      4  C   UNL d   1     -47.805  13.374  22.494  0.00  0.00     0.101 A 
ATOM      5  C   UNL d   1     -49.275  14.001  22.195  0.00  0.00     0.099 A 
ATOM      6  C   UNL d   1     -49.096  14.891  23.294  0.00  0.00     0.021 A 
ATOM      7  C   UNL d   1     -49.853  15.225  23.151  0.00  0.00     0.002 A 
ATOM      8  C   UNL d   1     -50.312  14.939  22.528  0.00  0.00     0.002 A 
ATOM      9  C   UNL d   1     -50.012  14.320  22.049  0.00  0.00     0.021 A 
ATOM     10  C   UNL d   1     -48.264  13.087  21.871  0.00  0.00     0.118 A 
ATOM     11  C   UNL d   1     -50.148  15.842  23.631  0.00  0.00     0.000 C 
ATOM     12  C   UNL d   1     -51.064  15.270  22.386  0.00  0.00     0.000 C 
ENDROOT
BRANCH   4  13
ATOM     13  C   UNL d   1     -47.068  13.058  22.643  0.00  0.00     0.019 A 
ATOM     14  C   UNL d   1     -46.985  12.419  23.150  0.00  0.00     0.002 A 
ATOM     15  C   UNL d   1     -46.221  12.080  23.313  0.00  0.00     0.000 A 
ATOM     16  C   UNL d   1     -45.573  12.430  22.934  0.00  0.00     0.000 A 
ATOM     17  C   UNL d   1     -45.656  13.069  22.427  0.00  0.00     0.000 A 
ATOM     18  C   UNL d   1     -46.391  13.385  22.277  0.00  0.00     0.002 A 
ENDBRANCH   4  13
TORSDOF 1
ENDMDL
MODEL 4
REMARK VINA RESULT:      -7.2      1.505      2.151
REMARK  1 active torsions:
REMARK  status: ('A' for Active; 'I' for Inactive)
REMARK    1  A    between atoms: C_11  and  C_4 
ROOT
ATOM      1  N   UNL d   1     -48.266  12.584  22.690  0.00  0.00    -0.242 NA
ATOM      2  C   UNL d   1     -47.576  12.231  22.942  0.00  0.00     0.099 A 
ATOM      3  N   UNL d   1     -48.315  11.280  23.696  0.00  0.00    -0.241 NA
ATOM      4  C   UNL d   1     -48.976  12.283  22.942  0.00  0.00     0.101 A 
ATOM      5  C   UNL d   1     -47.601  11.579  23.446  0.00  0.00     0.099 A 
ATOM      6  C   UNL d   1     -46.859  12.532  22.691  0.00  0.00     0.021 A 
ATOM      7  C   UNL d   1     -46.140  12.178  22.943  0.00  0.00     0.002 A 
ATOM      8  C   UNL d   1     -46.165  11.525  23.447  0.00  0.00     0.002 A 
ATOM      9  C   UNL d   1     -46.908  11.228  23.697  0.00  0.00     0.021 A 
ATOM     10  C   UNL d   1     -49.001  11.631  23.446  0.00  0.00     0.118 A 
ATOM     11  C   UNL d   1     -45.403  12.478  22.691  0.00  0.00     0.000 C 
ATOM     12  C   UNL d   1     -45.452  11.174  23.698  0.00  0.00     0.000 C 
ENDROOT
BRANCH   4  13
ATOM     13  C   UNL d   1     -49.668  12.636  22.689  0.00  0.00     0.019 A 
ATOM     14  C   UNL d   1     -49.990  12.443  21.960  0.00  0.00     0.002 A 
ATOM     15  C   UNL d   1     -50.709  12.804  21.685  0.00  0.00     0.000 A 
ATOM     16  C   UNL d   1     -51.063  13.356  22.192  0.00  0.00     0.000 A 
ATOM     17  C   UNL d   1     -50.741  13.549  22.921  0.00  0.00     0.000 A 
ATOM     18  C   UNL d   1     -50.052  13.198  23.174  0.00  0.00     0.002 A 
ENDBRANCH   4  13
TORSDOF 1
ENDMDL
MODEL 5
REMARK VINA RESULT:      -6.0      1.474      4.423
REMARK  1 active torsions:
REMARK  status: ('A' for Active; 'I' for Inactive)
REMARK    1  A    between atoms: C_11  and  C_4 
ROOT
ATOM      1  N   UNL d   1     -47.216  11.591  23.423  0.00  0.00    -0.242 NA
ATOM      2  C   UNL d   1     -47.907  12.023  23.405  0.00  0.00     0.099 A 
ATOM      3  N   UNL d   1     -47.183  13.207  23.101  0.00  0.00    -0.241 NA
ATOM      4  C   UNL d   1     -46.512  11.969  23.281  0.00  0.00     0.101 A 
ATOM      5  C   UNL d   1     -47.890  12.832  23.243  0.00  0.00     0.099 A 
ATOM      6  C   UNL d   1     -48.618  11.645  23.548  0.00  0.00     0.021 A 
ATOM      7  C   UNL d   1     -49.337  12.078  23.532  0.00  0.00     0.002 A 
ATOM      8  C   UNL d   1     -49.320  12.886  23.371  0.00  0.00     0.002 A 
ATOM      9  C   UNL d   1     -48.585  13.260  23.225  0.00  0.00     0.021 A 
ATOM     10  C   UNL d   1     -46.496  12.778  23.119  0.00  0.00     0.118 A 
ATOM     11  C   UNL d   1     -50.068  11.700  23.677  0.00  0.00     0.000 C 
ATOM     12  C   UNL d   1     -50.035  13.316  23.355  0.00  0.00     0.000 C 
ENDROOT
BRANCH   4  13
ATOM     13  C   UNL d   1     -45.820  11.537  23.299  0.00  0.00     0.019 A 
ATOM     14  C   UNL d   1     -45.140  11.829  22.945  0.00  0.00     0.002 A 
ATOM     15  C   UNL d   1     -44.412  11.388  22.958  0.00  0.00     0.000 A 
ATOM     16  C   UNL d   1     -44.430  10.655  23.344  0.00  0.00     0.000 A 
ATOM     17  C   UNL d   1     -45.110  10.364  23.698  0.00  0.00     0.000 A 
ATOM     18  C   UNL d   1     -45.801  10.794  23.680  0.00  0.00     0.002 A 
ENDBRANCH   4  13
TORSDOF 1
ENDMDL
MODEL 6
REMARK VINA RESULT:      -6.0      8.655      9.565
REMARK  1 active torsions:
REMARK  status: ('A' for Active; 'I' for Inactive)
REMARK    1  A    between atoms: C_11  and  C_4 
ROOT
ATOM      1  N   UNL d   1     -39.391  14.412  19.679  0.00  0.00    -0.242 NA
ATOM      2  C   UNL d   1     -39.315  14.221  20.467  0.00  0.00     0.099 A 
ATOM      3  N   UNL d   1     -40.508  14.929  20.774  0.00  0.00    -0.241 NA
ATOM      4  C   UNL d   1     -40.024  14.860  19.442  0.00  0.00     0.101 A 
ATOM      5  C   UNL d   1     -39.874  14.480  21.015  0.00  0.00     0.099 A 
ATOM      6  C   UNL d   1     -38.678  13.769  20.709  0.00  0.00     0.021 A 
ATOM      7  C   UNL d   1     -38.588  13.565  21.518  0.00  0.00     0.002 A 
ATOM      8  C   UNL d   1     -39.147  13.824  22.067  0.00  0.00     0.002 A 
ATOM      9  C   UNL d   1     -39.795  14.286  21.804  0.00  0.00     0.021 A 
ATOM     10  C   UNL d   1     -40.584  15.119  19.990  0.00  0.00     0.118 A 
ATOM     11  C   UNL d   1     -37.940  13.104  21.775  0.00  0.00     0.000 C 
ATOM     12  C   UNL d   1     -39.057  13.622  22.871  0.00  0.00     0.000 C 
ENDROOT
BRANCH   4  13
ATOM     13  C   UNL d   1     -40.101  15.052  18.652  0.00  0.00     0.019 A 
ATOM     14  C   UNL d   1     -39.722  15.712  18.347  0.00  0.00     0.002 A 
ATOM     15  C   UNL d   1     -39.794  15.922  17.525  0.00  0.00     0.000 A 
ATOM     16  C   UNL d   1     -40.264  15.426  17.057  0.00  0.00     0.000 A 
ATOM     17  C   UNL d   1     -40.643  14.766  17.362  0.00  0.00     0.000 A 
ATOM     18  C   UNL d   1     -40.568  14.574  18.149  0.00  0.00     0.002 A 
ENDBRANCH   4  13
TORSDOF 1
ENDMDL
MODEL 7
REMARK VINA RESULT:      -5.9      8.667      9.644
REMARK  1 active torsions:
REMARK  status: ('A' for Active; 'I' for Inactive)
REMARK    1  A    between atoms: C_11  and  C_4 
ROOT
ATOM      1  N   UNL d   1     -39.715  14.713  19.771  0.00  0.00    -0.242 NA
ATOM      2  C   UNL d   1     -40.047  14.974  19.075  0.00  0.00     0.099 A 
ATOM      3  N   UNL d   1     -40.835  15.922  19.782  0.00  0.00    -0.241 NA
ATOM      4  C   UNL d   1     -39.944  15.058  20.470  0.00  0.00     0.101 A 
ATOM      5  C   UNL d   1     -40.608  15.579  19.081  0.00  0.00     0.099 A 
ATOM      6  C   UNL d   1     -39.819  14.629  18.370  0.00  0.00     0.021 A 
ATOM      7  C   UNL d   1     -40.154  14.889  17.645  0.00  0.00     0.002 A 
ATOM      8  C   UNL d   1     -40.715  15.494  17.650  0.00  0.00     0.002 A 
ATOM      9  C   UNL d   1     -40.939  15.838  18.381  0.00  0.00     0.021 A 
ATOM     10  C   UNL d   1     -40.504  15.663  20.476  0.00  0.00     0.118 A 
ATOM     11  C   UNL d   1     -39.927  14.542  16.919  0.00  0.00     0.000 C 
ATOM     12  C   UNL d   1     -41.047  15.751  16.930  0.00  0.00     0.000 C 
ENDROOT
BRANCH   4  13
ATOM     13  C   UNL d   1     -39.611  14.797  21.168  0.00  0.00     0.019 A 
ATOM     14  C   UNL d   1     -39.780  14.047  21.454  0.00  0.00     0.002 A 
ATOM     15  C   UNL d   1     -39.439  13.763  22.180  0.00  0.00     0.000 A 
ATOM     16  C   UNL d   1     -38.932  14.284  22.578  0.00  0.00     0.000 A 
ATOM     17  C   UNL d   1     -38.763  15.034  22.292  0.00  0.00     0.000 A 
ATOM     18  C   UNL d   1     -39.094  15.295  21.597  0.00  0.00     0.002 A 
ENDBRANCH   4  13
TORSDOF 1
ENDMDL
MODEL 8
REMARK VINA RESULT:      -5.5      1.204      2.418
REMARK  1 active torsions:
REMARK  status: ('A' for Active; 'I' for Inactive)
REMARK    1  A    between atoms: C_11  and  C_4 
ROOT
ATOM      1  N   UNL d   1     -46.607  13.400  22.536  0.00  0.00    -0.242 NA
ATOM      2  C   UNL d   1     -45.949  12.924  22.600  0.00  0.00     0.099 A 
ATOM      3  N   UNL d   1     -46.592  12.134  23.590  0.00  0.00    -0.241 NA
ATOM      4  C   UNL d   1     -47.254  13.241  23.000  0.00  0.00     0.101 A 
ATOM      5  C   UNL d   1     -45.942  12.290  23.128  0.00  0.00     0.099 A 
ATOM      6  C   UNL d   1     -45.295  13.082  22.135  0.00  0.00     0.021 A 
ATOM      7  C   UNL d   1     -44.611  12.599  22.190  0.00  0.00     0.002 A 
ATOM      8  C   UNL d   1     -44.603  11.965  22.718  0.00  0.00     0.002 A 
ATOM      9  C   UNL d   1     -45.280  11.815  23.189  0.00  0.00     0.021 A 
ATOM     10  C   UNL d   1     -47.246  12.607  23.527  0.00  0.00     0.118 A 
ATOM     11  C   UNL d   1     -43.938  12.752  21.719  0.00  0.00     0.000 C 
ATOM     12  C   UNL d   1     -43.923  11.485  22.773  0.00  0.00     0.000 C 
ENDROOT
BRANCH   4  13
ATOM     13  C   UNL d   1     -47.913  13.718  22.936  0.00  0.00     0.019 A 
ATOM     14  C   UNL d   1     -47.843  14.533  22.990  0.00  0.00     0.002 A 
ATOM     15  C   UNL d   1     -48.523  15.041  22.925  0.00  0.00     0.000 A 
ATOM     16  C   UNL d   1     -49.253  14.667  22.806  0.00  0.00     0.000 A 
ATOM     17  C   UNL d   1     -49.323  13.852  22.753  0.00  0.00     0.000 A 
ATOM     18  C   UNL d   1     -48.667  13.375  22.816  0.00  0.00     0.002 A 
ENDBRANCH   4  13
TORSDOF 1
ENDMDL
