MODEL 1
REMARK VINA RESULT:      16.8      0.000      0.000
REMARK  3 active torsions:
REMARK  status: ('A' for Active; 'I' for Inactive)
REMARK    1  A    between atoms: S_11  and  C_4 
REMARK    2  A    between atoms: C_14  and  S_11 
REMARK    3  A    between atoms: O_15  and  C_12 
ROOT
ATOM      1  N   UNL d   1      15.316  16.606  -0.993  0.00  0.00    -0.195 NA
ATOM      2  C   UNL d   1      15.173  15.903  -0.576  0.00  0.00     0.086 C 
ATOM      3  C   UNL d   1      15.020  15.203  -0.152  0.00  0.00     0.168 C 
ENDROOT
BRANCH   3   4
ATOM      4  S   UNL d   1      15.487  14.511  -0.287  0.00  0.00    -0.078 SA
BRANCH   4   5
ATOM      5  C   UNL d   1      15.121  13.815  -0.617  0.00  0.00     0.108 A 
ATOM      6  N   UNL d   1      14.834  13.831  -1.390  0.00  0.00    -0.239 NA
ATOM      7  C   UNL d   1      14.487  13.154  -1.690  0.00  0.00     0.084 A 
ATOM      8  C   UNL d   1      14.425  12.481  -1.238  0.00  0.00     0.018 A 
ATOM      9  C   UNL d   1      14.201  13.170  -2.463  0.00  0.00     0.043 A 
ATOM     10  C   UNL d   1      14.708  12.453  -0.466  0.00  0.00     0.004 A 
ATOM     11  C   UNL d   1      14.074  11.793  -1.539  0.00  0.00     0.004 A 
ATOM     12  C   UNL d   1      15.059  13.142  -0.165  0.00  0.00     0.025 A 
ATOM     13  C   UNL d   1      14.645  11.779  -0.014  0.00  0.00     0.000 C 
ATOM     14  C   UNL d   1      13.783  11.812  -2.324  0.00  0.00     0.024 A 
ATOM     15  C   UNL d   1      13.845  12.485  -2.776  0.00  0.00     0.096 A 
BRANCH  15  16
ATOM     16  O   UNL d   1      13.557  12.499  -3.552  0.00  0.00    -0.328 OA
ATOM     17  C   UNL d   1      13.282  11.791  -3.896  0.00  0.00     0.181 C 
ENDBRANCH  15  16
ENDBRANCH   4   5
ENDBRANCH   3   4
TORSDOF 3
ENDMDL
