MODEL 1
REMARK VINA RESULT:      -7.6      0.000      0.000
REMARK  4 active torsions:
REMARK  status: ('A' for Active; 'I' for Inactive)
REMARK       I    between atoms: C_3  and  N_1 
REMARK    1  A    between atoms: C_7  and  C_3 
REMARK    2  A    between atoms: C_8  and  C_4 
REMARK    3  A    between atoms: C_9  and  C_5 
REMARK    4  A    between atoms: O_25  and  C_18 
ROOT
ATOM      1  N   UNL d   1     -46.901  13.338  22.961  0.00  0.00    -0.195 N 
ATOM      2  N   UNL d   1     -46.164  12.995  23.144  0.00  0.00    -0.163 NA
ATOM      3  C   UNL d   1     -47.059  14.155  22.986  0.00  0.00     0.282 C 
ATOM      4  C   UNL d   1     -47.438  12.754  22.756  0.00  0.00     0.088 A 
ATOM      5  C   UNL d   1     -46.245  12.184  23.050  0.00  0.00     0.103 A 
ATOM      6  C   UNL d   1     -47.031  12.036  22.811  0.00  0.00     0.040 A 
ATOM      7  O   UNL d   1     -46.473  14.688  23.201  0.00  0.00    -0.265 OA
ENDROOT
BRANCH   3   8
ATOM      8  C   UNL d   1     -47.831  14.426  22.787  0.00  0.00     0.077 A 
ATOM      9  C   UNL d   1     -48.421  14.451  23.352  0.00  0.00     0.104 A 
ATOM     10  N   UNL d   1     -49.170  14.714  23.157  0.00  0.00    -0.242 NA
ATOM     11  C   UNL d   1     -49.320  14.956  22.375  0.00  0.00     0.099 A 
ATOM     12  C   UNL d   1     -48.730  14.932  21.808  0.00  0.00     0.021 A 
ATOM     13  C   UNL d   1     -47.981  14.669  22.004  0.00  0.00     0.008 A 
ENDBRANCH   3   8
BRANCH   4  14
ATOM     14  C   UNL d   1     -48.226  12.858  22.537  0.00  0.00     0.018 A 
ATOM     15  C   UNL d   1     -48.816  12.863  23.113  0.00  0.00     0.004 A 
ATOM     16  C   UNL d   1     -49.605  12.967  22.895  0.00  0.00     0.024 A 
ATOM     17  C   UNL d   1     -49.804  13.066  22.100  0.00  0.00     0.094 A 
ATOM     18  C   UNL d   1     -49.214  13.060  21.528  0.00  0.00     0.024 A 
ATOM     19  C   UNL d   1     -48.425  12.956  21.747  0.00  0.00     0.004 A 
BRANCH  17  20
ATOM     20  O   UNL d   1     -50.592  13.170  21.882  0.00  0.00    -0.328 OA
ATOM     21  C   UNL d   1     -51.030  12.530  21.600  0.00  0.00     0.181 C 
ENDBRANCH  17  20
ENDBRANCH   4  14
BRANCH   5  22
ATOM     22  C   UNL d   1     -45.659  11.634  23.172  0.00  0.00     0.019 A 
ATOM     23  C   UNL d   1     -45.860  10.931  23.570  0.00  0.00     0.002 A 
ATOM     24  C   UNL d   1     -45.254  10.358  23.698  0.00  0.00     0.007 A 
ATOM     25  C   UNL d   1     -44.496  10.497  23.435  0.00  0.00     0.035 A 
ATOM     26  C   UNL d   1     -44.294  11.200  23.037  0.00  0.00     0.007 A 
ATOM     27 BR   UNL d   1     -43.916   9.925  23.569  0.00  0.00    -0.049 Br
ATOM     28  C   UNL d   1     -44.905  11.775  22.910  0.00  0.00     0.002 A 
ENDBRANCH   5  22
TORSDOF 4
ENDMDL
MODEL 2
REMARK VINA RESULT:      -7.3      8.284      9.390
REMARK  4 active torsions:
REMARK  status: ('A' for Active; 'I' for Inactive)
REMARK       I    between atoms: C_3  and  N_1 
REMARK    1  A    between atoms: C_7  and  C_3 
REMARK    2  A    between atoms: C_8  and  C_4 
REMARK    3  A    between atoms: C_9  and  C_5 
REMARK    4  A    between atoms: O_25  and  C_18 
ROOT
ATOM      1  N   UNL d   1     -39.919  14.901  19.717  0.00  0.00    -0.195 N 
ATOM      2  N   UNL d   1     -39.842  14.857  20.545  0.00  0.00    -0.163 NA
ATOM      3  C   UNL d   1     -40.547  15.278  19.321  0.00  0.00     0.282 C 
ATOM      4  C   UNL d   1     -39.288  14.520  19.357  0.00  0.00     0.088 A 
ATOM      5  C   UNL d   1     -39.152  14.442  20.702  0.00  0.00     0.103 A 
ATOM      6  C   UNL d   1     -38.811  14.235  19.969  0.00  0.00     0.040 A 
ATOM      7  O   UNL d   1     -41.149  15.642  19.744  0.00  0.00    -0.265 OA
ENDROOT
BRANCH   3   8
ATOM      8  C   UNL d   1     -40.554  15.280  18.479  0.00  0.00     0.077 A 
ATOM      9  C   UNL d   1     -40.910  14.672  18.065  0.00  0.00     0.104 A 
ATOM     10  N   UNL d   1     -40.917  14.676  17.248  0.00  0.00    -0.242 NA
ATOM     11  C   UNL d   1     -40.556  15.308  16.846  0.00  0.00     0.099 A 
ATOM     12  C   UNL d   1     -40.198  15.919  17.259  0.00  0.00     0.021 A 
ATOM     13  C   UNL d   1     -40.192  15.914  18.076  0.00  0.00     0.008 A 
ENDBRANCH   3   8
BRANCH   4  14
ATOM     14  C   UNL d   1     -39.154  14.437  18.547  0.00  0.00     0.018 A 
ATOM     15  C   UNL d   1     -38.732  15.015  18.138  0.00  0.00     0.004 A 
ATOM     16  C   UNL d   1     -38.598  14.932  17.329  0.00  0.00     0.024 A 
ATOM     17  C   UNL d   1     -38.884  14.271  16.928  0.00  0.00     0.094 A 
ATOM     18  C   UNL d   1     -39.304  13.696  17.338  0.00  0.00     0.024 A 
ATOM     19  C   UNL d   1     -39.439  13.779  18.148  0.00  0.00     0.004 A 
BRANCH  17  20
ATOM     20  O   UNL d   1     -38.750  14.187  16.118  0.00  0.00    -0.328 OA
ATOM     21  C   UNL d   1     -38.194  13.643  15.847  0.00  0.00     0.181 C 
ENDBRANCH  17  20
ENDBRANCH   4  14
BRANCH   5  22
ATOM     22  C   UNL d   1     -38.863  14.270  21.442  0.00  0.00     0.019 A 
ATOM     23  C   UNL d   1     -38.471  14.875  21.857  0.00  0.00     0.002 A 
ATOM     24  C   UNL d   1     -38.169  14.700  22.626  0.00  0.00     0.007 A 
ATOM     25  C   UNL d   1     -38.265  13.957  22.945  0.00  0.00     0.035 A 
ATOM     26  C   UNL d   1     -38.657  13.352  22.530  0.00  0.00     0.007 A 
ATOM     27 BR   UNL d   1     -37.963  13.805  23.698  0.00  0.00    -0.049 Br
ATOM     28  C   UNL d   1     -38.959  13.530  21.757  0.00  0.00     0.002 A 
ENDBRANCH   5  22
TORSDOF 4
ENDMDL
MODEL 3
REMARK VINA RESULT:      -7.1      1.215      1.649
REMARK  4 active torsions:
REMARK  status: ('A' for Active; 'I' for Inactive)
REMARK       I    between atoms: C_3  and  N_1 
REMARK    1  A    between atoms: C_7  and  C_3 
REMARK    2  A    between atoms: C_8  and  C_4 
REMARK    3  A    between atoms: C_9  and  C_5 
REMARK    4  A    between atoms: O_25  and  C_18 
ROOT
ATOM      1  N   UNL d   1     -47.516  14.093  22.523  0.00  0.00    -0.195 N 
ATOM      2  N   UNL d   1     -46.693  14.079  22.393  0.00  0.00    -0.163 NA
ATOM      3  C   UNL d   1     -47.980  14.785  22.535  0.00  0.00     0.282 C 
ATOM      4  C   UNL d   1     -47.794  13.330  22.637  0.00  0.00     0.088 A 
ATOM      5  C   UNL d   1     -46.456  13.295  22.426  0.00  0.00     0.103 A 
ATOM      6  C   UNL d   1     -47.136  12.833  22.577  0.00  0.00     0.040 A 
ATOM      7  O   UNL d   1     -47.636  15.520  22.413  0.00  0.00    -0.265 OA
ENDROOT
BRANCH   3   8
ATOM      8  C   UNL d   1     -48.808  14.717  22.673  0.00  0.00     0.077 A 
ATOM      9  C   UNL d   1     -49.319  14.543  22.060  0.00  0.00     0.104 A 
ATOM     10  N   UNL d   1     -50.121  14.477  22.195  0.00  0.00    -0.242 NA
ATOM     11  C   UNL d   1     -50.409  14.592  22.968  0.00  0.00     0.099 A 
ATOM     12  C   UNL d   1     -49.899  14.767  23.584  0.00  0.00     0.021 A 
ATOM     13  C   UNL d   1     -49.096  14.832  23.447  0.00  0.00     0.008 A 
ENDBRANCH   3   8
BRANCH   4  14
ATOM     14  C   UNL d   1     -48.573  13.101  22.782  0.00  0.00     0.018 A 
ATOM     15  C   UNL d   1     -49.071  12.913  22.153  0.00  0.00     0.004 A 
ATOM     16  C   UNL d   1     -49.850  12.684  22.298  0.00  0.00     0.024 A 
ATOM     17  C   UNL d   1     -50.131  12.643  23.073  0.00  0.00     0.094 A 
ATOM     18  C   UNL d   1     -49.633  12.831  23.698  0.00  0.00     0.024 A 
ATOM     19  C   UNL d   1     -48.853  13.061  23.553  0.00  0.00     0.004 A 
BRANCH  17  20
ATOM     20  O   UNL d   1     -50.910  12.414  23.218  0.00  0.00    -0.328 OA
ATOM     21  C   UNL d   1     -51.064  11.733  23.656  0.00  0.00     0.181 C 
ENDBRANCH  17  20
ENDBRANCH   4  14
BRANCH   5  22
ATOM     22  C   UNL d   1     -45.695  13.027  22.329  0.00  0.00     0.019 A 
ATOM     23  C   UNL d   1     -45.457  12.361  22.767  0.00  0.00     0.002 A 
ATOM     24  C   UNL d   1     -44.668  12.080  22.669  0.00  0.00     0.007 A 
ATOM     25  C   UNL d   1     -44.159  12.457  22.157  0.00  0.00     0.035 A 
ATOM     26  C   UNL d   1     -44.397  13.124  21.718  0.00  0.00     0.007 A 
ATOM     27 BR   UNL d   1     -43.390  12.168  22.073  0.00  0.00    -0.049 Br
ATOM     28  C   UNL d   1     -45.191  13.404  21.819  0.00  0.00     0.002 A 
ENDBRANCH   5  22
TORSDOF 4
ENDMDL
MODEL 4
REMARK VINA RESULT:      -6.6      1.343      2.147
REMARK  4 active torsions:
REMARK  status: ('A' for Active; 'I' for Inactive)
REMARK       I    between atoms: C_3  and  N_1 
REMARK    1  A    between atoms: C_7  and  C_3 
REMARK    2  A    between atoms: C_8  and  C_4 
REMARK    3  A    between atoms: C_9  and  C_5 
REMARK    4  A    between atoms: O_25  and  C_18 
ROOT
ATOM      1  N   UNL d   1     -48.510  11.799  23.154  0.00  0.00    -0.195 N 
ATOM      2  N   UNL d   1     -47.908  11.248  23.317  0.00  0.00    -0.163 NA
ATOM      3  C   UNL d   1     -49.325  11.630  23.181  0.00  0.00     0.282 C 
ATOM      4  C   UNL d   1     -48.180  12.526  22.965  0.00  0.00     0.088 A 
ATOM      5  C   UNL d   1     -47.192  11.638  23.228  0.00  0.00     0.103 A 
ATOM      6  C   UNL d   1     -47.361  12.426  23.011  0.00  0.00     0.040 A 
ATOM      7  O   UNL d   1     -49.589  10.878  23.378  0.00  0.00    -0.265 OA
ENDROOT
BRANCH   3   8
ATOM      8  C   UNL d   1     -49.875  12.242  23.002  0.00  0.00     0.077 A 
ATOM      9  C   UNL d   1     -50.096  12.389  22.229  0.00  0.00     0.104 A 
ATOM     10  N   UNL d   1     -50.630  12.983  22.057  0.00  0.00    -0.242 NA
ATOM     11  C   UNL d   1     -50.942  13.435  22.682  0.00  0.00     0.099 A 
ATOM     12  C   UNL d   1     -50.721  13.290  23.457  0.00  0.00     0.021 A 
ATOM     13  C   UNL d   1     -50.188  12.695  23.628  0.00  0.00     0.008 A 
ENDBRANCH   3   8
BRANCH   4  14
ATOM     14  C   UNL d   1     -48.582  13.218  22.768  0.00  0.00     0.018 A 
ATOM     15  C   UNL d   1     -48.845  13.726  23.362  0.00  0.00     0.004 A 
ATOM     16  C   UNL d   1     -49.247  14.418  23.165  0.00  0.00     0.024 A 
ATOM     17  C   UNL d   1     -49.387  14.604  22.374  0.00  0.00     0.094 A 
ATOM     18  C   UNL d   1     -49.124  14.097  21.784  0.00  0.00     0.024 A 
ATOM     19  C   UNL d   1     -48.722  13.404  21.981  0.00  0.00     0.004 A 
BRANCH  17  20
ATOM     20  O   UNL d   1     -49.789  15.297  22.177  0.00  0.00    -0.328 OA
ATOM     21  C   UNL d   1     -49.384  15.922  21.823  0.00  0.00     0.181 C 
ENDBRANCH  17  20
ENDBRANCH   4  14
BRANCH   5  22
ATOM     22  C   UNL d   1     -46.457  11.307  23.335  0.00  0.00     0.019 A 
ATOM     23  C   UNL d   1     -46.420  10.504  23.553  0.00  0.00     0.002 A 
ATOM     24  C   UNL d   1     -45.659  10.157  23.665  0.00  0.00     0.007 A 
ATOM     25  C   UNL d   1     -44.985  10.602  23.560  0.00  0.00     0.035 A 
ATOM     26  C   UNL d   1     -45.022  11.405  23.343  0.00  0.00     0.007 A 
ATOM     27 BR   UNL d   1     -44.250  10.245  23.674  0.00  0.00    -0.049 Br
ATOM     28  C   UNL d   1     -45.788  11.752  23.231  0.00  0.00     0.002 A 
ENDBRANCH   5  22
TORSDOF 4
ENDMDL
MODEL 5
REMARK VINA RESULT:      -6.5      7.683      9.603
REMARK  4 active torsions:
REMARK  status: ('A' for Active; 'I' for Inactive)
REMARK       I    between atoms: C_3  and  N_1 
REMARK    1  A    between atoms: C_7  and  C_3 
REMARK    2  A    between atoms: C_8  and  C_4 
REMARK    3  A    between atoms: C_9  and  C_5 
REMARK    4  A    between atoms: O_25  and  C_18 
ROOT
ATOM      1  N   UNL d   1     -40.106  14.357  18.778  0.00  0.00    -0.195 N 
ATOM      2  N   UNL d   1     -40.029  14.152  17.974  0.00  0.00    -0.163 NA
ATOM      3  C   UNL d   1     -40.813  14.297  19.214  0.00  0.00     0.282 C 
ATOM      4  C   UNL d   1     -39.388  14.623  19.068  0.00  0.00     0.088 A 
ATOM      5  C   UNL d   1     -39.250  14.293  17.762  0.00  0.00     0.103 A 
ATOM      6  C   UNL d   1     -38.855  14.583  18.437  0.00  0.00     0.040 A 
ATOM      7  O   UNL d   1     -41.500  14.021  18.860  0.00  0.00    -0.265 OA
ENDROOT
BRANCH   3   8
ATOM      8  C   UNL d   1     -40.811  14.524  20.025  0.00  0.00     0.077 A 
ATOM      9  C   UNL d   1     -40.580  13.996  20.604  0.00  0.00     0.104 A 
ATOM     10  N   UNL d   1     -40.578  14.217  21.390  0.00  0.00    -0.242 NA
ATOM     11  C   UNL d   1     -40.817  14.989  21.590  0.00  0.00     0.099 A 
ATOM     12  C   UNL d   1     -41.049  15.520  21.011  0.00  0.00     0.021 A 
ATOM     13  C   UNL d   1     -41.050  15.297  20.225  0.00  0.00     0.008 A 
ENDBRANCH   3   8
BRANCH   4  14
ATOM     14  C   UNL d   1     -39.225  14.879  19.835  0.00  0.00     0.018 A 
ATOM     15  C   UNL d   1     -38.946  14.345  20.397  0.00  0.00     0.004 A 
ATOM     16  C   UNL d   1     -38.783  14.601  21.164  0.00  0.00     0.024 A 
ATOM     17  C   UNL d   1     -38.900  15.391  21.369  0.00  0.00     0.094 A 
ATOM     18  C   UNL d   1     -39.179  15.921  20.807  0.00  0.00     0.024 A 
ATOM     19  C   UNL d   1     -39.341  15.665  20.040  0.00  0.00     0.004 A 
BRANCH  17  20
ATOM     20  O   UNL d   1     -38.738  15.648  22.136  0.00  0.00    -0.328 OA
ATOM     21  C   UNL d   1     -37.963  15.824  22.356  0.00  0.00     0.181 C 
ENDBRANCH  17  20
ENDBRANCH   4  14
BRANCH   5  22
ATOM     22  C   UNL d   1     -38.932  14.168  17.024  0.00  0.00     0.019 A 
ATOM     23  C   UNL d   1     -38.488  13.475  16.903  0.00  0.00     0.002 A 
ATOM     24  C   UNL d   1     -38.156  13.342  16.138  0.00  0.00     0.007 A 
ATOM     25  C   UNL d   1     -38.272  13.884  15.541  0.00  0.00     0.035 A 
ATOM     26  C   UNL d   1     -38.715  14.578  15.662  0.00  0.00     0.007 A 
ATOM     27 BR   UNL d   1     -37.940  13.737  14.800  0.00  0.00    -0.049 Br
ATOM     28  C   UNL d   1     -39.048  14.709  16.432  0.00  0.00     0.002 A 
ENDBRANCH   5  22
TORSDOF 4
ENDMDL
MODEL 6
REMARK VINA RESULT:      -5.4      8.953      9.709
REMARK  4 active torsions:
REMARK  status: ('A' for Active; 'I' for Inactive)
REMARK       I    between atoms: C_3  and  N_1 
REMARK    1  A    between atoms: C_7  and  C_3 
REMARK    2  A    between atoms: C_8  and  C_4 
REMARK    3  A    between atoms: C_9  and  C_5 
REMARK    4  A    between atoms: O_25  and  C_18 
ROOT
ATOM      1  N   UNL d   1     -38.706  14.177  19.260  0.00  0.00    -0.195 N 
ATOM      2  N   UNL d   1     -38.465  14.095  20.053  0.00  0.00    -0.163 NA
ATOM      3  C   UNL d   1     -38.462  13.679  18.638  0.00  0.00     0.282 C 
ATOM      4  C   UNL d   1     -39.216  14.815  19.188  0.00  0.00     0.088 A 
ATOM      5  C   UNL d   1     -38.830  14.693  20.480  0.00  0.00     0.103 A 
ATOM      6  C   UNL d   1     -39.293  15.136  19.946  0.00  0.00     0.040 A 
ATOM      7  O   UNL d   1     -37.948  13.056  18.780  0.00  0.00    -0.265 OA
ENDROOT
BRANCH   3   8
ATOM      8  C   UNL d   1     -38.751  13.826  17.861  0.00  0.00     0.077 A 
ATOM      9  C   UNL d   1     -39.471  13.523  17.621  0.00  0.00     0.104 A 
ATOM     10  N   UNL d   1     -39.750  13.667  16.867  0.00  0.00    -0.242 NA
ATOM     11  C   UNL d   1     -39.289  14.126  16.349  0.00  0.00     0.099 A 
ATOM     12  C   UNL d   1     -38.567  14.431  16.587  0.00  0.00     0.021 A 
ATOM     13  C   UNL d   1     -38.289  14.287  17.342  0.00  0.00     0.008 A 
ENDBRANCH   3   8
BRANCH   4  14
ATOM     14  C   UNL d   1     -39.580  15.085  18.498  0.00  0.00     0.018 A 
ATOM     15  C   UNL d   1     -40.349  14.848  18.319  0.00  0.00     0.004 A 
ATOM     16  C   UNL d   1     -40.713  15.118  17.630  0.00  0.00     0.024 A 
ATOM     17  C   UNL d   1     -40.309  15.626  17.120  0.00  0.00     0.094 A 
ATOM     18  C   UNL d   1     -39.543  15.860  17.302  0.00  0.00     0.024 A 
ATOM     19  C   UNL d   1     -39.178  15.590  17.991  0.00  0.00     0.004 A 
BRANCH  17  20
ATOM     20  O   UNL d   1     -40.673  15.896  16.431  0.00  0.00    -0.328 OA
ATOM     21  C   UNL d   1     -41.495  15.904  16.376  0.00  0.00     0.181 C 
ENDBRANCH  17  20
ENDBRANCH   4  14
BRANCH   5  22
ATOM     22  C   UNL d   1     -38.748  14.819  21.279  0.00  0.00     0.019 A 
ATOM     23  C   UNL d   1     -38.484  15.568  21.529  0.00  0.00     0.002 A 
ATOM     24  C   UNL d   1     -38.398  15.703  22.358  0.00  0.00     0.007 A 
ATOM     25  C   UNL d   1     -38.570  15.112  22.890  0.00  0.00     0.035 A 
ATOM     26  C   UNL d   1     -38.834  14.363  22.640  0.00  0.00     0.007 A 
ATOM     27 BR   UNL d   1     -38.479  15.263  23.696  0.00  0.00    -0.049 Br
ATOM     28  C   UNL d   1     -38.920  14.229  21.806  0.00  0.00     0.002 A 
ENDBRANCH   5  22
TORSDOF 4
ENDMDL
