MODEL 1
REMARK VINA RESULT:      -7.0      0.000      0.000
REMARK  4 active torsions:
REMARK  status: ('A' for Active; 'I' for Inactive)
REMARK    1  A    between atoms: C_6  and  C_1 
REMARK    2  A    between atoms: C_7  and  C_4 
REMARK    3  A    between atoms: O_10  and  C_6 
REMARK    4  A    between atoms: O_12  and  C_11 
ROOT
ATOM      1  C   UNL d   1     -46.713  13.347  22.720  0.00  0.00     0.173 A 
ATOM      2  N   UNL d   1     -47.029  14.039  23.045  0.00  0.00    -0.121 NA
ATOM      3  C   UNL d   1     -47.337  12.906  22.405  0.00  0.00     0.054 A 
ATOM      4  C   UNL d   1     -48.040  13.326  22.535  0.00  0.00     0.127 A 
ATOM      5  O   UNL d   1     -47.845  14.025  22.930  0.00  0.00    -0.211 OA
ENDROOT
BRANCH   4   6
ATOM      6  C   UNL d   1     -48.796  13.083  22.308  0.00  0.00     0.027 A 
ATOM      7  C   UNL d   1     -49.235  12.609  22.820  0.00  0.00     0.026 A 
ATOM      8  C   UNL d   1     -49.985  12.365  22.600  0.00  0.00     0.094 A 
ATOM      9  C   UNL d   1     -50.302  12.592  21.868  0.00  0.00     0.024 A 
ATOM     10  C   UNL d   1     -49.858  13.064  21.362  0.00  0.00     0.002 A 
ATOM     11  C   UNL d   1     -49.106  13.310  21.580  0.00  0.00     0.002 A 
BRANCH   8  12
ATOM     12  O   UNL d   1     -50.433  11.888  23.112  0.00  0.00    -0.328 OA
ATOM     13  C   UNL d   1     -51.059  12.216  23.543  0.00  0.00     0.181 C 
ENDBRANCH   8  12
ENDBRANCH   4   6
BRANCH   1  14
ATOM     14  C   UNL d   1     -45.915  13.125  22.707  0.00  0.00     0.316 C 
ATOM     15  O   UNL d   1     -45.619  12.605  23.271  0.00  0.00    -0.257 OA
BRANCH  14  16
ATOM     16  O   UNL d   1     -45.418  13.433  22.118  0.00  0.00    -0.294 OA
ATOM     17  C   UNL d   1     -44.676  13.091  21.986  0.00  0.00     0.185 C 
ENDBRANCH  14  16
ENDBRANCH   1  14
TORSDOF 4
ENDMDL
MODEL 2
REMARK VINA RESULT:      -6.8      1.727      2.121
REMARK  4 active torsions:
REMARK  status: ('A' for Active; 'I' for Inactive)
REMARK    1  A    between atoms: C_6  and  C_1 
REMARK    2  A    between atoms: C_7  and  C_4 
REMARK    3  A    between atoms: O_10  and  C_6 
REMARK    4  A    between atoms: O_12  and  C_11 
ROOT
ATOM      1  C   UNL d   1     -46.192  12.275  23.267  0.00  0.00     0.173 A 
ATOM      2  N   UNL d   1     -45.817  13.010  23.330  0.00  0.00    -0.121 NA
ATOM      3  C   UNL d   1     -46.958  12.404  22.986  0.00  0.00     0.054 A 
ATOM      4  C   UNL d   1     -47.058  13.219  22.874  0.00  0.00     0.127 A 
ATOM      5  O   UNL d   1     -46.350  13.590  23.088  0.00  0.00    -0.211 OA
ENDROOT
BRANCH   4   6
ATOM      6  C   UNL d   1     -47.743  13.588  22.599  0.00  0.00     0.027 A 
ATOM      7  C   UNL d   1     -47.985  14.295  22.948  0.00  0.00     0.026 A 
ATOM      8  C   UNL d   1     -48.664  14.665  22.679  0.00  0.00     0.094 A 
ATOM      9  C   UNL d   1     -49.107  14.333  22.060  0.00  0.00     0.024 A 
ATOM     10  C   UNL d   1     -48.859  13.628  21.718  0.00  0.00     0.002 A 
ATOM     11  C   UNL d   1     -48.179  13.254  21.985  0.00  0.00     0.002 A 
BRANCH   8  12
ATOM     12  O   UNL d   1     -48.913  15.378  23.026  0.00  0.00    -0.328 OA
ATOM     13  C   UNL d   1     -49.722  15.537  23.111  0.00  0.00     0.181 C 
ENDBRANCH   8  12
ENDBRANCH   4   6
BRANCH   1  14
ATOM     14  C   UNL d   1     -45.867  11.536  23.450  0.00  0.00     0.316 C 
ATOM     15  O   UNL d   1     -46.351  10.918  23.696  0.00  0.00    -0.257 OA
BRANCH  14  16
ATOM     16  O   UNL d   1     -45.047  11.425  23.384  0.00  0.00    -0.294 OA
ATOM     17  C   UNL d   1     -44.725  10.668  23.477  0.00  0.00     0.185 C 
ENDBRANCH  14  16
ENDBRANCH   1  14
TORSDOF 4
ENDMDL
MODEL 3
REMARK VINA RESULT:      -6.8      1.707      4.031
REMARK  4 active torsions:
REMARK  status: ('A' for Active; 'I' for Inactive)
REMARK    1  A    between atoms: C_6  and  C_1 
REMARK    2  A    between atoms: C_7  and  C_4 
REMARK    3  A    between atoms: O_10  and  C_6 
REMARK    4  A    between atoms: O_12  and  C_11 
ROOT
ATOM      1  C   UNL d   1     -49.315  14.541  22.663  0.00  0.00     0.173 A 
ATOM      2  N   UNL d   1     -49.390  14.061  21.992  0.00  0.00    -0.121 NA
ATOM      3  C   UNL d   1     -48.632  14.309  23.065  0.00  0.00     0.054 A 
ATOM      4  C   UNL d   1     -48.284  13.685  22.644  0.00  0.00     0.127 A 
ATOM      5  O   UNL d   1     -48.756  13.536  21.982  0.00  0.00    -0.211 OA
ENDROOT
BRANCH   4   6
ATOM      6  C   UNL d   1     -47.590  13.290  22.855  0.00  0.00     0.027 A 
ATOM      7  C   UNL d   1     -46.865  13.592  22.603  0.00  0.00     0.026 A 
ATOM      8  C   UNL d   1     -46.174  13.203  22.809  0.00  0.00     0.094 A 
ATOM      9  C   UNL d   1     -46.201  12.511  23.266  0.00  0.00     0.024 A 
ATOM     10  C   UNL d   1     -46.927  12.217  23.512  0.00  0.00     0.002 A 
ATOM     11  C   UNL d   1     -47.622  12.603  23.308  0.00  0.00     0.002 A 
BRANCH   8  12
ATOM     12  O   UNL d   1     -45.440  13.502  22.559  0.00  0.00    -0.328 OA
ATOM     13  C   UNL d   1     -45.011  13.109  21.971  0.00  0.00     0.181 C 
ENDBRANCH   8  12
ENDBRANCH   4   6
BRANCH   1  14
ATOM     14  C   UNL d   1     -49.827  15.148  22.898  0.00  0.00     0.316 C 
ATOM     15  O   UNL d   1     -49.711  15.917  22.629  0.00  0.00    -0.257 OA
BRANCH  14  16
ATOM     16  O   UNL d   1     -50.457  14.972  23.407  0.00  0.00    -0.294 OA
ATOM     17  C   UNL d   1     -50.935  15.583  23.697  0.00  0.00     0.185 C 
ENDBRANCH  14  16
ENDBRANCH   1  14
TORSDOF 4
ENDMDL
MODEL 4
REMARK VINA RESULT:      -6.6      1.407      4.060
REMARK  4 active torsions:
REMARK  status: ('A' for Active; 'I' for Inactive)
REMARK    1  A    between atoms: C_6  and  C_1 
REMARK    2  A    between atoms: C_7  and  C_4 
REMARK    3  A    between atoms: O_10  and  C_6 
REMARK    4  A    between atoms: O_12  and  C_11 
ROOT
ATOM      1  C   UNL d   1     -48.984  11.877  23.399  0.00  0.00     0.173 A 
ATOM      2  N   UNL d   1     -48.414  11.314  23.608  0.00  0.00    -0.121 NA
ATOM      3  C   UNL d   1     -48.589  12.556  23.146  0.00  0.00     0.054 A 
ATOM      4  C   UNL d   1     -47.774  12.414  23.197  0.00  0.00     0.127 A 
ATOM      5  O   UNL d   1     -47.671  11.646  23.483  0.00  0.00    -0.211 OA
ENDROOT
BRANCH   4   6
ATOM      6  C   UNL d   1     -47.177  12.950  22.997  0.00  0.00     0.027 A 
ATOM      7  C   UNL d   1     -46.415  12.666  22.860  0.00  0.00     0.026 A 
ATOM      8  C   UNL d   1     -45.820  13.193  22.661  0.00  0.00     0.094 A 
ATOM      9  C   UNL d   1     -45.980  14.004  22.598  0.00  0.00     0.024 A 
ATOM     10  C   UNL d   1     -46.742  14.278  22.736  0.00  0.00     0.002 A 
ATOM     11  C   UNL d   1     -47.342  13.754  22.936  0.00  0.00     0.002 A 
BRANCH   8  12
ATOM     12  O   UNL d   1     -45.050  12.914  22.521  0.00  0.00    -0.328 OA
ATOM     13  C   UNL d   1     -44.704  13.009  21.775  0.00  0.00     0.181 C 
ENDBRANCH   8  12
ENDBRANCH   4   6
BRANCH   1  14
ATOM     14  C   UNL d   1     -49.806  11.786  23.434  0.00  0.00     0.316 C 
ATOM     15  O   UNL d   1     -50.136  11.065  23.654  0.00  0.00    -0.257 OA
BRANCH  14  16
ATOM     16  O   UNL d   1     -50.294  12.430  23.246  0.00  0.00    -0.294 OA
ATOM     17  C   UNL d   1     -51.064  12.466  23.548  0.00  0.00     0.185 C 
ENDBRANCH  14  16
ENDBRANCH   1  14
TORSDOF 4
ENDMDL
MODEL 5
REMARK VINA RESULT:      -6.1      8.317      9.348
REMARK  4 active torsions:
REMARK  status: ('A' for Active; 'I' for Inactive)
REMARK    1  A    between atoms: C_6  and  C_1 
REMARK    2  A    between atoms: C_7  and  C_4 
REMARK    3  A    between atoms: O_10  and  C_6 
REMARK    4  A    between atoms: O_12  and  C_11 
ROOT
ATOM      1  C   UNL d   1     -40.727  14.865  17.713  0.00  0.00     0.173 A 
ATOM      2  N   UNL d   1     -40.676  14.040  17.677  0.00  0.00    -0.121 NA
ATOM      3  C   UNL d   1     -40.566  15.096  18.489  0.00  0.00     0.054 A 
ATOM      4  C   UNL d   1     -40.415  14.413  18.935  0.00  0.00     0.127 A 
ATOM      5  O   UNL d   1     -40.484  13.763  18.429  0.00  0.00    -0.211 OA
ENDROOT
BRANCH   4   6
ATOM      6  C   UNL d   1     -40.229  14.393  19.740  0.00  0.00     0.027 A 
ATOM      7  C   UNL d   1     -39.452  14.241  19.967  0.00  0.00     0.026 A 
ATOM      8  C   UNL d   1     -39.262  14.220  20.764  0.00  0.00     0.094 A 
ATOM      9  C   UNL d   1     -39.846  14.351  21.338  0.00  0.00     0.024 A 
ATOM     10  C   UNL d   1     -40.619  14.502  21.103  0.00  0.00     0.002 A 
ATOM     11  C   UNL d   1     -40.813  14.524  20.306  0.00  0.00     0.002 A 
BRANCH   8  12
ATOM     12  O   UNL d   1     -38.480  14.066  21.000  0.00  0.00    -0.328 OA
ATOM     13  C   UNL d   1     -38.323  13.465  21.547  0.00  0.00     0.181 C 
ENDBRANCH   8  12
ENDBRANCH   4   6
BRANCH   1  14
ATOM     14  C   UNL d   1     -40.907  15.378  17.088  0.00  0.00     0.316 C 
ATOM     15  O   UNL d   1     -40.317  15.836  16.744  0.00  0.00    -0.257 OA
BRANCH  14  16
ATOM     16  O   UNL d   1     -41.688  15.425  16.814  0.00  0.00    -0.294 OA
ATOM     17  C   UNL d   1     -41.872  15.922  16.178  0.00  0.00     0.185 C 
ENDBRANCH  14  16
ENDBRANCH   1  14
TORSDOF 4
ENDMDL
