MODEL 1
REMARK VINA RESULT:      -4.3      0.000      0.000
REMARK  5 active torsions:
REMARK  status: ('A' for Active; 'I' for Inactive)
REMARK    1  A    between atoms: C_7  and  S_1 
REMARK    2  A    between atoms: N_8  and  S_1 
REMARK    3  A    between atoms: S_2  and  N_4 
REMARK    4  A    between atoms: C_12  and  S_2 
REMARK    5  A    between atoms: N_4  and  C_3 
ROOT
ATOM      1  C   UNL d   1     -41.269-123.064 -51.001  0.00  0.00     0.206 A 
ATOM      2  N   UNL d   1     -41.123-123.694 -51.519  0.00  0.00    -0.220 NA
ATOM      3  S   UNL d   1     -41.501-122.413 -51.458  0.00  0.00    -0.046 SA
ATOM      4  C   UNL d   1     -41.622-122.614 -53.680  0.00  0.00     0.105 A 
ATOM      5  C   UNL d   1     -41.497-122.646 -52.254  0.00  0.00     0.051 A 
ATOM      6  C   UNL d   1     -41.263-123.435 -52.290  0.00  0.00     0.090 A 
ATOM      7  C   UNL d   1     -41.677-122.233 -52.951  0.00  0.00     0.021 A 
ATOM      8  C   UNL d   1     -41.386-123.413 -53.709  0.00  0.00     0.015 A 
ATOM      9  C   UNL d   1     -41.209-123.817 -53.020  0.00  0.00     0.020 A 
ENDROOT
BRANCH   1  10
ATOM     10  N   UNL d   1     -41.197-123.080 -50.179  0.00  0.00    -0.132 NA
BRANCH  10  11
ATOM     11  S   UNL d   1     -41.487-122.889 -49.433  0.00  0.00     0.287 S 
ATOM     12  O   UNL d   1     -41.211-122.119 -49.522  0.00  0.00    -0.198 OA
ATOM     13  O   UNL d   1     -41.679-123.686 -49.544  0.00  0.00    -0.198 OA
BRANCH  11  14
ATOM     14  C   UNL d   1     -41.878-123.110 -48.742  0.00  0.00     0.105 A 
ATOM     15  C   UNL d   1     -42.708-123.084 -48.717  0.00  0.00     0.015 A 
ATOM     16  C   UNL d   1     -43.110-123.303 -48.030  0.00  0.00     0.030 A 
ATOM     17  C   UNL d   1     -42.692-123.548 -47.366  0.00  0.00     0.140 A 
ATOM     18  C   UNL d   1     -41.865-123.575 -47.384  0.00  0.00     0.030 A 
ATOM     19  F   UNL d   1     -43.093-123.766 -46.680  0.00  0.00    -0.204 F 
ATOM     20  C   UNL d   1     -41.463-123.353 -48.079  0.00  0.00     0.015 A 
ENDBRANCH  11  14
ENDBRANCH  10  11
ENDBRANCH   1  10
BRANCH   4  21
ATOM     21  S   UNL d   1     -41.798-122.214 -54.370  0.00  0.00     0.271 S 
ATOM     22  O   UNL d   1     -41.336-121.352 -54.215  0.00  0.00    -0.200 OA
ATOM     23  O   UNL d   1     -42.299-123.064 -54.608  0.00  0.00    -0.200 OA
BRANCH  21  24
ATOM     24  N   UNL d   1     -42.087-121.991 -55.124  0.00  0.00    -0.229 N 
ATOM     25  C   UNL d   1     -41.666-121.590 -55.711  0.00  0.00     0.092 A 
ATOM     26  C   UNL d   1     -42.173-121.492 -56.355  0.00  0.00     0.021 A 
ATOM     27  C   UNL d   1     -42.903-121.828 -56.171  0.00  0.00     0.021 A 
ATOM     28  C   UNL d   1     -42.853-122.139 -55.407  0.00  0.00     0.092 A 
ENDBRANCH  21  24
ENDBRANCH   4  21
TORSDOF 5
ENDMDL
MODEL 2
REMARK VINA RESULT:      -2.5      2.218      6.087
REMARK  5 active torsions:
REMARK  status: ('A' for Active; 'I' for Inactive)
REMARK    1  A    between atoms: C_7  and  S_1 
REMARK    2  A    between atoms: N_8  and  S_1 
REMARK    3  A    between atoms: S_2  and  N_4 
REMARK    4  A    between atoms: C_12  and  S_2 
REMARK    5  A    between atoms: N_4  and  C_3 
ROOT
ATOM      1  C   UNL d   1     -41.494-122.642 -52.323  0.00  0.00     0.206 A 
ATOM      2  N   UNL d   1     -42.054-123.194 -52.063  0.00  0.00    -0.220 NA
ATOM      3  S   UNL d   1     -41.136-122.312 -51.653  0.00  0.00    -0.046 SA
ATOM      4  C   UNL d   1     -41.772-122.990 -49.620  0.00  0.00     0.105 A 
ATOM      5  C   UNL d   1     -41.477-122.664 -50.983  0.00  0.00     0.051 A 
ATOM      6  C   UNL d   1     -42.042-123.207 -51.237  0.00  0.00     0.090 A 
ATOM      7  C   UNL d   1     -41.341-122.554 -50.173  0.00  0.00     0.021 A 
ATOM      8  C   UNL d   1     -42.341-123.537 -49.885  0.00  0.00     0.015 A 
ATOM      9  C   UNL d   1     -42.474-123.643 -50.686  0.00  0.00     0.020 A 
ENDROOT
BRANCH   1  10
ATOM     10  N   UNL d   1     -41.323-122.453 -53.108  0.00  0.00    -0.132 NA
BRANCH  10  11
ATOM     11  S   UNL d   1     -41.481-122.016 -53.788  0.00  0.00     0.287 S 
ATOM     12  O   UNL d   1     -41.193-121.339 -53.421  0.00  0.00    -0.198 OA
ATOM     13  O   UNL d   1     -41.719-122.789 -53.965  0.00  0.00    -0.198 OA
BRANCH  11  14
ATOM     14  C   UNL d   1     -41.763-121.979 -54.562  0.00  0.00     0.105 A 
ATOM     15  C   UNL d   1     -42.553-122.183 -54.719  0.00  0.00     0.015 A 
ATOM     16  C   UNL d   1     -42.846-122.150 -55.489  0.00  0.00     0.030 A 
ATOM     17  C   UNL d   1     -42.358-121.914 -56.108  0.00  0.00     0.140 A 
ATOM     18  C   UNL d   1     -41.570-121.709 -55.959  0.00  0.00     0.030 A 
ATOM     19  F   UNL d   1     -42.651-121.880 -56.878  0.00  0.00    -0.204 F 
ATOM     20  C   UNL d   1     -41.279-121.744 -55.179  0.00  0.00     0.015 A 
ENDBRANCH  11  14
ENDBRANCH  10  11
ENDBRANCH   1  10
BRANCH   4  21
ATOM     21  S   UNL d   1     -41.642-122.886 -48.821  0.00  0.00     0.271 S 
ATOM     22  O   UNL d   1     -41.210-121.996 -48.809  0.00  0.00    -0.200 OA
ATOM     23  O   UNL d   1     -42.076-123.801 -48.743  0.00  0.00    -0.200 OA
BRANCH  21  24
ATOM     24  N   UNL d   1     -41.604-122.980 -47.990  0.00  0.00    -0.229 N 
ATOM     25  C   UNL d   1     -41.459-123.684 -47.581  0.00  0.00     0.092 A 
ATOM     26  C   UNL d   1     -41.474-123.510 -46.776  0.00  0.00     0.021 A 
ATOM     27  C   UNL d   1     -41.626-122.705 -46.681  0.00  0.00     0.021 A 
ATOM     28  C   UNL d   1     -41.708-122.373 -47.433  0.00  0.00     0.092 A 
ENDBRANCH  21  24
ENDBRANCH   4  21
TORSDOF 5
ENDMDL
