MODEL 1
REMARK VINA RESULT:      -9.7      0.000      0.000
REMARK  4 active torsions:
REMARK  status: ('A' for Active; 'I' for Inactive)
REMARK    1  A    between atoms: N_2  and  S_1 
REMARK    2  A    between atoms: C_3  and  S_1 
REMARK    3  A    between atoms: C_18  and  N_6 
REMARK    4  A    between atoms: C_19  and  C_18 
ROOT
ATOM      1  N   UNL d   1      51.452  33.800  52.812  0.00  0.00    -0.226 N 
ATOM      2  N   UNL d   1      52.915  33.108  53.190  0.00  0.00    -0.300 N 
ATOM      3  C   UNL d   1      51.484  33.002  53.063  0.00  0.00     0.111 A 
ATOM      4  C   UNL d   1      52.142  34.225  52.757  0.00  0.00     0.111 A 
ATOM      5  C   UNL d   1      52.876  33.878  52.947  0.00  0.00     0.100 A 
ATOM      6  C   UNL d   1      52.218  32.654  53.252  0.00  0.00     0.100 A 
ENDROOT
BRANCH   1   7
ATOM      7  S   UNL d   1      50.726  34.144  52.625  0.00  0.00     0.272 S 
ATOM      8  O   UNL d   1      50.391  33.808  53.304  0.00  0.00    -0.200 OA
ATOM      9  O   UNL d   1      51.063  34.483  51.941  0.00  0.00    -0.200 OA
BRANCH   7  10
ATOM     10  C   UNL d   1      49.996  34.490  52.436  0.00  0.00     0.106 A 
ATOM     11  C   UNL d   1      49.618  34.975  52.964  0.00  0.00     0.040 A 
ATOM     12  C   UNL d   1      48.907  35.311  52.780  0.00  0.00     0.123 A 
ATOM     13  O   UNL d   1      48.532  35.810  53.339  0.00  0.00    -0.301 OA
ATOM     14  C   UNL d   1      48.558  35.170  52.065  0.00  0.00     0.123 A 
ATOM     15  C   UNL d   1      47.802  36.156  53.151  0.00  0.00     0.149 A 
ATOM     16  C   UNL d   1      47.451  36.000  52.404  0.00  0.00     0.149 A 
ATOM     17  O   UNL d   1      47.828  35.516  51.877  0.00  0.00    -0.301 OA
ATOM     18  C   UNL d   1      48.911  34.691  51.519  0.00  0.00     0.028 A 
ATOM     19  C   UNL d   1      49.644  34.337  51.693  0.00  0.00     0.015 A 
ENDBRANCH   7  10
ENDBRANCH   1   7
BRANCH   2  20
ATOM     20  C   UNL d   1      53.648  32.761  53.379  0.00  0.00     0.080 C 
BRANCH  20  21
ATOM     21  C   UNL d   1      54.031  32.956  54.064  0.00  0.00     0.018 A 
ATOM     22  C   UNL d   1      54.660  33.509  54.050  0.00  0.00     0.002 A 
ATOM     23  C   UNL d   1      55.043  33.704  54.735  0.00  0.00     0.000 A 
ATOM     24  C   UNL d   1      54.819  33.363  55.452  0.00  0.00     0.000 A 
ATOM     25  C   UNL d   1      54.212  32.825  55.488  0.00  0.00     0.000 A 
ATOM     26  C   UNL d   1      53.807  32.615  54.781  0.00  0.00     0.002 A 
ENDBRANCH  20  21
ENDBRANCH   2  20
TORSDOF 4
ENDMDL
MODEL 2
REMARK VINA RESULT:      -7.2      1.646      5.901
REMARK  4 active torsions:
REMARK  status: ('A' for Active; 'I' for Inactive)
REMARK    1  A    between atoms: N_2  and  S_1 
REMARK    2  A    between atoms: C_3  and  S_1 
REMARK    3  A    between atoms: C_18  and  N_6 
REMARK    4  A    between atoms: C_19  and  C_18 
ROOT
ATOM      1  N   UNL d   1      49.150  34.996  52.468  0.00  0.00    -0.226 N 
ATOM      2  N   UNL d   1      47.756  35.799  52.050  0.00  0.00    -0.300 N 
ATOM      3  C   UNL d   1      48.793  34.853  51.724  0.00  0.00     0.111 A 
ATOM      4  C   UNL d   1      48.807  35.529  52.975  0.00  0.00     0.111 A 
ATOM      5  C   UNL d   1      48.107  35.932  52.766  0.00  0.00     0.100 A 
ATOM      6  C   UNL d   1      48.093  35.256  51.515  0.00  0.00     0.100 A 
ENDROOT
BRANCH   1   7
ATOM      7  S   UNL d   1      49.842  34.598  52.675  0.00  0.00     0.272 S 
ATOM      8  O   UNL d   1      49.751  34.848  53.460  0.00  0.00    -0.200 OA
ATOM      9  O   UNL d   1      49.934  34.346  51.886  0.00  0.00    -0.200 OA
BRANCH   7  10
ATOM     10  C   UNL d   1      50.538  34.197  52.884  0.00  0.00     0.106 A 
ATOM     11  C   UNL d   1      51.247  34.587  52.915  0.00  0.00     0.040 A 
ATOM     12  C   UNL d   1      51.925  34.196  53.118  0.00  0.00     0.123 A 
ATOM     13  O   UNL d   1      52.649  34.617  53.145  0.00  0.00    -0.301 OA
ATOM     14  C   UNL d   1      51.908  33.408  53.294  0.00  0.00     0.123 A 
ATOM     15  C   UNL d   1      53.345  34.216  53.353  0.00  0.00     0.149 A 
ATOM     16  C   UNL d   1      53.312  33.397  53.534  0.00  0.00     0.149 A 
ATOM     17  O   UNL d   1      52.603  33.007  53.503  0.00  0.00    -0.301 OA
ATOM     18  C   UNL d   1      51.216  32.993  53.272  0.00  0.00     0.028 A 
ATOM     19  C   UNL d   1      50.508  33.381  53.064  0.00  0.00     0.015 A 
ENDBRANCH   7  10
ENDBRANCH   1   7
BRANCH   2  20
ATOM     20  C   UNL d   1      47.058  36.202  51.841  0.00  0.00     0.080 C 
BRANCH  20  21
ATOM     21  C   UNL d   1      46.334  35.894  52.028  0.00  0.00     0.018 A 
ATOM     22  C   UNL d   1      45.885  35.495  51.444  0.00  0.00     0.002 A 
ATOM     23  C   UNL d   1      45.161  35.187  51.631  0.00  0.00     0.000 A 
ATOM     24  C   UNL d   1      44.858  35.261  52.395  0.00  0.00     0.000 A 
ATOM     25  C   UNL d   1      45.277  35.643  52.975  0.00  0.00     0.000 A 
ATOM     26  C   UNL d   1      46.031  35.968  52.792  0.00  0.00     0.002 A 
ENDBRANCH  20  21
ENDBRANCH   2  20
TORSDOF 4
ENDMDL
