MODEL 1
REMARK VINA RESULT:      48.3      0.000      0.000
REMARK  4 active torsions:
REMARK  status: ('A' for Active; 'I' for Inactive)
REMARK    1  A    between atoms: N_2  and  S_1 
REMARK    2  A    between atoms: C_3  and  S_1 
REMARK    3  A    between atoms: C_11  and  N_2 
REMARK    4  A    between atoms: C_6  and  C_7 
ROOT
ATOM      1  S   UNL d   1     -51.216  24.983  33.316  0.00  0.00     0.285 S 
ATOM      2  O   UNL d   1     -50.811  24.264  33.313  0.00  0.00    -0.198 OA
ATOM      3  O   UNL d   1     -51.620  25.703  33.318  0.00  0.00    -0.198 OA
ENDROOT
BRANCH   1   4
ATOM      4  N   UNL d   1     -50.497  25.388  33.306  0.00  0.00    -0.158 NA
BRANCH   4   5
ATOM      5  C   UNL d   1     -50.329  25.959  33.877  0.00  0.00     0.094 A 
ATOM      6  C   UNL d   1     -50.158  26.735  33.655  0.00  0.00     0.020 A 
ATOM      7  C   UNL d   1     -49.991  27.302  34.228  0.00  0.00     0.005 A 
ATOM      8  C   UNL d   1     -49.996  27.093  35.034  0.00  0.00     0.039 A 
ATOM      9  C   UNL d   1     -50.167  26.317  35.256  0.00  0.00     0.005 A 
ATOM     10  C   UNL d   1     -50.335  25.746  34.686  0.00  0.00     0.020 A 
BRANCH   8  11
ATOM     11  C   UNL d   1     -49.828  27.663  35.620  0.00  0.00     0.196 C 
ATOM     12  O   UNL d   1     -50.346  27.772  36.249  0.00  0.00    -0.287 OA
ATOM     13  C   UNL d   1     -49.133  28.130  35.575  0.00  0.00     0.045 C 
ENDBRANCH   8  11
ENDBRANCH   4   5
ENDBRANCH   1   4
BRANCH   1  14
ATOM     14  C   UNL d   1     -51.935  24.579  33.326  0.00  0.00     0.105 A 
ATOM     15  C   UNL d   1     -52.637  25.000  33.323  0.00  0.00     0.013 A 
ATOM     16  C   UNL d   1     -53.368  24.589  33.333  0.00  0.00     0.001 A 
ATOM     17  C   UNL d   1     -53.376  23.769  33.346  0.00  0.00     0.000 A 
ATOM     18  C   UNL d   1     -52.667  23.343  33.349  0.00  0.00     0.001 A 
ATOM     19  C   UNL d   1     -54.096  23.364  33.356  0.00  0.00     0.000 C 
ATOM     20  C   UNL d   1     -51.936  23.754  33.339  0.00  0.00     0.013 A 
ENDBRANCH   1  14
TORSDOF 4
ENDMDL
