MODEL 1
REMARK VINA RESULT:      -1.7      0.000      0.000
REMARK  10 active torsions:
REMARK  status: ('A' for Active; 'I' for Inactive)
REMARK    1  A    between atoms: P_2  and  C_1 
REMARK    2  A    between atoms: N_3  and  C_1 
REMARK    3  A    between atoms: C_4  and  C_1 
REMARK    4  A    between atoms: O_9  and  P_2 
REMARK    5  A    between atoms: O_10  and  P_2 
REMARK       I    between atoms: C_5  and  N_3 
REMARK    6  A    between atoms: C_8  and  C_5 
REMARK    7  A    between atoms: C_16  and  O_9 
REMARK    8  A    between atoms: C_15  and  O_10 
REMARK    9  A    between atoms: C_18  and  C_15 
REMARK   10  A    between atoms: C_17  and  C_16 
ROOT
ATOM      1  C   UNL d   1      31.108  16.537 -24.256  0.00  0.00     0.186 C 
ENDROOT
BRANCH   1   2
ATOM      2  P   UNL d   1      30.309  16.519 -24.006  0.00  0.00     0.393 P 
ATOM      3  O   UNL d   1      29.518  16.514 -23.774  0.00  0.00    -0.251 OA
BRANCH   2   4
ATOM      4  O   UNL d   1      30.136  17.078 -24.586  0.00  0.00    -0.263 OA
BRANCH   4   5
ATOM      5  C   UNL d   1      29.344  17.255 -24.761  0.00  0.00     0.126 C 
BRANCH   5   6
ATOM      6  C   UNL d   1      29.062  18.042 -24.735  0.00  0.00     0.027 C 
ATOM      7  C   UNL d   1      28.311  18.416 -25.043  0.00  0.00     0.002 C 
ENDBRANCH   5   6
ENDBRANCH   4   5
ENDBRANCH   2   4
BRANCH   2   8
ATOM      8  O   UNL d   1      30.460  15.968 -23.428  0.00  0.00    -0.263 OA
BRANCH   8   9
ATOM      9  C   UNL d   1      29.843  15.523 -23.126  0.00  0.00     0.126 C 
BRANCH   9  10
ATOM     10  C   UNL d   1      29.738  15.461 -22.304  0.00  0.00     0.027 C 
ATOM     11  C   UNL d   1      28.993  15.608 -22.134  0.00  0.00     0.002 C 
ENDBRANCH   9  10
ENDBRANCH   8   9
ENDBRANCH   2   8
ENDBRANCH   1   2
BRANCH   1  12
ATOM     12  N   UNL d   1      31.495  17.278 -24.285  0.00  0.00    -0.199 NA
ATOM     13  C   UNL d   1      31.988  17.490 -23.644  0.00  0.00     0.279 C 
ATOM     14  O   UNL d   1      32.087  16.994 -23.015  0.00  0.00    -0.265 OA
BRANCH  13  15
ATOM     15  C   UNL d   1      32.381  18.197 -23.631  0.00  0.00     0.058 A 
ATOM     16  C   UNL d   1      32.841  18.392 -22.974  0.00  0.00     0.005 A 
ATOM     17  C   UNL d   1      33.239  19.111 -22.965  0.00  0.00     0.000 A 
ATOM     18  C   UNL d   1      33.176  19.633 -23.614  0.00  0.00     0.000 A 
ATOM     19  C   UNL d   1      32.723  19.441 -24.261  0.00  0.00     0.000 A 
ATOM     20  C   UNL d   1      32.318  18.715 -24.277  0.00  0.00     0.005 A 
ENDBRANCH  13  15
ENDBRANCH   1  12
BRANCH   1  21
ATOM     21  C   UNL d   1      31.496  15.854 -24.464  0.00  0.00     0.140 C 
ATOM     22 CL   UNL d   1      31.186  15.483 -25.059  0.00  0.00    -0.068 Cl
ATOM     23 CL   UNL d   1      32.207  15.591 -24.024  0.00  0.00    -0.068 Cl
ENDBRANCH   1  21
TORSDOF 10
ENDMDL
MODEL 2
REMARK VINA RESULT:      -1.2      1.169      2.258
REMARK  10 active torsions:
REMARK  status: ('A' for Active; 'I' for Inactive)
REMARK    1  A    between atoms: P_2  and  C_1 
REMARK    2  A    between atoms: N_3  and  C_1 
REMARK    3  A    between atoms: C_4  and  C_1 
REMARK    4  A    between atoms: O_9  and  P_2 
REMARK    5  A    between atoms: O_10  and  P_2 
REMARK       I    between atoms: C_5  and  N_3 
REMARK    6  A    between atoms: C_8  and  C_5 
REMARK    7  A    between atoms: C_16  and  O_9 
REMARK    8  A    between atoms: C_15  and  O_10 
REMARK    9  A    between atoms: C_18  and  C_15 
REMARK   10  A    between atoms: C_17  and  C_16 
ROOT
ATOM      1  C   UNL d   1      31.021  16.489 -24.154  0.00  0.00     0.186 C 
ENDROOT
BRANCH   1   2
ATOM      2  P   UNL d   1      30.940  16.026 -23.461  0.00  0.00     0.393 P 
ATOM      3  O   UNL d   1      30.878  15.566 -22.780  0.00  0.00    -0.251 OA
BRANCH   2   4
ATOM      4  O   UNL d   1      31.748  15.868 -23.496  0.00  0.00    -0.263 OA
BRANCH   4   5
ATOM      5  C   UNL d   1      32.110  15.453 -22.875  0.00  0.00     0.126 C 
BRANCH   5   6
ATOM      6  C   UNL d   1      32.863  15.678 -22.588  0.00  0.00     0.027 C 
ATOM      7  C   UNL d   1      33.239  15.605 -21.781  0.00  0.00     0.002 C 
ENDBRANCH   5   6
ENDBRANCH   4   5
ENDBRANCH   2   4
BRANCH   2   8
ATOM      8  O   UNL d   1      30.141  16.170 -23.411  0.00  0.00    -0.263 OA
BRANCH   8   9
ATOM      9  C   UNL d   1      29.726  15.906 -22.756  0.00  0.00     0.126 C 
BRANCH   9  10
ATOM     10  C   UNL d   1      28.896  15.858 -22.782  0.00  0.00     0.027 C 
ATOM     11  C   UNL d   1      28.636  15.641 -22.081  0.00  0.00     0.002 C 
ENDBRANCH   9  10
ENDBRANCH   8   9
ENDBRANCH   2   8
ENDBRANCH   1   2
BRANCH   1  12
ATOM     12  N   UNL d   1      31.650  17.039 -24.188  0.00  0.00    -0.199 NA
ATOM     13  C   UNL d   1      31.466  17.852 -24.136  0.00  0.00     0.279 C 
ATOM     14  O   UNL d   1      30.702  18.100 -24.054  0.00  0.00    -0.265 OA
BRANCH  13  15
ATOM     15  C   UNL d   1      32.043  18.419 -24.165  0.00  0.00     0.058 A 
ATOM     16  C   UNL d   1      32.517  18.479 -24.838  0.00  0.00     0.005 A 
ATOM     17  C   UNL d   1      33.102  19.054 -24.863  0.00  0.00     0.000 A 
ATOM     18  C   UNL d   1      33.212  19.570 -24.214  0.00  0.00     0.000 A 
ATOM     19  C   UNL d   1      32.746  19.510 -23.552  0.00  0.00     0.000 A 
ATOM     20  C   UNL d   1      32.151  18.930 -23.519  0.00  0.00     0.005 A 
ENDBRANCH  13  15
ENDBRANCH   1  12
BRANCH   1  21
ATOM     21  C   UNL d   1      30.504  16.407 -24.775  0.00  0.00     0.140 C 
ATOM     22 CL   UNL d   1      30.215  17.068 -25.036  0.00  0.00    -0.068 Cl
ATOM     23 CL   UNL d   1      30.312  15.614 -25.096  0.00  0.00    -0.068 Cl
ENDBRANCH   1  21
TORSDOF 10
ENDMDL
MODEL 3
REMARK VINA RESULT:      -0.4      4.325      5.966
REMARK  10 active torsions:
REMARK  status: ('A' for Active; 'I' for Inactive)
REMARK    1  A    between atoms: P_2  and  C_1 
REMARK    2  A    between atoms: N_3  and  C_1 
REMARK    3  A    between atoms: C_4  and  C_1 
REMARK    4  A    between atoms: O_9  and  P_2 
REMARK    5  A    between atoms: O_10  and  P_2 
REMARK       I    between atoms: C_5  and  N_3 
REMARK    6  A    between atoms: C_8  and  C_5 
REMARK    7  A    between atoms: C_16  and  O_9 
REMARK    8  A    between atoms: C_15  and  O_10 
REMARK    9  A    between atoms: C_18  and  C_15 
REMARK   10  A    between atoms: C_17  and  C_16 
ROOT
ATOM      1  C   UNL d   1      32.702  21.593 -21.449  0.00  0.00     0.186 C 
ENDROOT
BRANCH   1   2
ATOM      2  P   UNL d   1      32.849  22.416 -21.431  0.00  0.00     0.393 P 
ATOM      3  O   UNL d   1      32.992  23.228 -21.431  0.00  0.00    -0.251 OA
BRANCH   2   4
ATOM      4  O   UNL d   1      32.755  22.431 -22.249  0.00  0.00    -0.263 OA
BRANCH   4   5
ATOM      5  C   UNL d   1      32.617  23.155 -22.632  0.00  0.00     0.126 C 
BRANCH   5   6
ATOM      6  C   UNL d   1      33.101  23.406 -23.266  0.00  0.00     0.027 C 
ATOM      7  C   UNL d   1      32.903  23.682 -24.093  0.00  0.00     0.002 C 
ENDBRANCH   5   6
ENDBRANCH   4   5
ENDBRANCH   2   4
BRANCH   2   8
ATOM      8  O   UNL d   1      32.946  22.421 -20.623  0.00  0.00    -0.263 OA
BRANCH   8   9
ATOM      9  C   UNL d   1      33.013  23.137 -20.231  0.00  0.00     0.126 C 
BRANCH   9  10
ATOM     10  C   UNL d   1      33.066  23.154 -19.402  0.00  0.00     0.027 C 
ATOM     11  C   UNL d   1      32.453  23.542 -19.120  0.00  0.00     0.002 C 
ENDBRANCH   9  10
ENDBRANCH   8   9
ENDBRANCH   2   8
ENDBRANCH   1   2
BRANCH   1  12
ATOM     12  N   UNL d   1      32.884  21.176 -22.151  0.00  0.00    -0.199 NA
ATOM     13  C   UNL d   1      32.718  20.356 -22.176  0.00  0.00     0.279 C 
ATOM     14  O   UNL d   1      32.393  19.979 -21.541  0.00  0.00    -0.265 OA
BRANCH  13  15
ATOM     15  C   UNL d   1      32.877  19.914 -22.835  0.00  0.00     0.058 A 
ATOM     16  C   UNL d   1      33.075  19.118 -22.749  0.00  0.00     0.005 A 
ATOM     17  C   UNL d   1      33.236  18.673 -23.420  0.00  0.00     0.000 A 
ATOM     18  C   UNL d   1      33.199  19.026 -24.177  0.00  0.00     0.000 A 
ATOM     19  C   UNL d   1      33.004  19.810 -24.261  0.00  0.00     0.000 A 
ATOM     20  C   UNL d   1      32.840  20.267 -23.586  0.00  0.00     0.005 A 
ENDBRANCH  13  15
ENDBRANCH   1  12
BRANCH   1  21
ATOM     21  C   UNL d   1      32.392  21.209 -20.803  0.00  0.00     0.140 C 
ATOM     22 CL   UNL d   1      31.638  21.312 -20.707  0.00  0.00    -0.068 Cl
ATOM     23 CL   UNL d   1      32.903  20.727 -20.280  0.00  0.00    -0.068 Cl
ENDBRANCH   1  21
TORSDOF 10
ENDMDL
MODEL 4
REMARK VINA RESULT:      -0.3      1.239      2.311
REMARK  10 active torsions:
REMARK  status: ('A' for Active; 'I' for Inactive)
REMARK    1  A    between atoms: P_2  and  C_1 
REMARK    2  A    between atoms: N_3  and  C_1 
REMARK    3  A    between atoms: C_4  and  C_1 
REMARK    4  A    between atoms: O_9  and  P_2 
REMARK    5  A    between atoms: O_10  and  P_2 
REMARK       I    between atoms: C_5  and  N_3 
REMARK    6  A    between atoms: C_8  and  C_5 
REMARK    7  A    between atoms: C_16  and  O_9 
REMARK    8  A    between atoms: C_15  and  O_10 
REMARK    9  A    between atoms: C_18  and  C_15 
REMARK   10  A    between atoms: C_17  and  C_16 
ROOT
ATOM      1  C   UNL d   1      30.739  17.114 -24.234  0.00  0.00     0.186 C 
ENDROOT
BRANCH   1   2
ATOM      2  P   UNL d   1      30.737  16.281 -24.153  0.00  0.00     0.393 P 
ATOM      3  O   UNL d   1      30.722  15.461 -24.060  0.00  0.00    -0.251 OA
BRANCH   2   4
ATOM      4  O   UNL d   1      30.176  16.360 -23.555  0.00  0.00    -0.263 OA
BRANCH   4   5
ATOM      5  C   UNL d   1      29.817  15.681 -23.239  0.00  0.00     0.126 C 
BRANCH   5   6
ATOM      6  C   UNL d   1      29.271  15.737 -22.608  0.00  0.00     0.027 C 
ATOM      7  C   UNL d   1      28.423  15.466 -22.527  0.00  0.00     0.002 C 
ENDBRANCH   5   6
ENDBRANCH   4   5
ENDBRANCH   2   4
BRANCH   2   8
ATOM      8  O   UNL d   1      31.290  16.183 -24.741  0.00  0.00    -0.263 OA
BRANCH   8   9
ATOM      9  C   UNL d   1      31.822  15.562 -24.693  0.00  0.00     0.126 C 
BRANCH   9  10
ATOM     10  C   UNL d   1      32.548  15.604 -25.096  0.00  0.00     0.027 C 
ATOM     11  C   UNL d   1      33.123  15.456 -24.593  0.00  0.00     0.002 C 
ENDBRANCH   9  10
ENDBRANCH   8   9
ENDBRANCH   2   8
ENDBRANCH   1   2
BRANCH   1  12
ATOM     12  N   UNL d   1      31.414  17.533 -23.976  0.00  0.00    -0.199 NA
ATOM     13  C   UNL d   1      31.330  18.347 -23.803  0.00  0.00     0.279 C 
ATOM     14  O   UNL d   1      30.617  18.717 -23.884  0.00  0.00    -0.265 OA
BRANCH  13  15
ATOM     15  C   UNL d   1      31.957  18.791 -23.551  0.00  0.00     0.058 A 
ATOM     16  C   UNL d   1      32.314  19.322 -24.073  0.00  0.00     0.005 A 
ATOM     17  C   UNL d   1      32.950  19.771 -23.812  0.00  0.00     0.000 A 
ATOM     18  C   UNL d   1      33.229  19.688 -23.029  0.00  0.00     0.000 A 
ATOM     19  C   UNL d   1      32.878  19.166 -22.515  0.00  0.00     0.000 A 
ATOM     20  C   UNL d   1      32.233  18.708 -22.772  0.00  0.00     0.005 A 
ENDBRANCH  13  15
ENDBRANCH   1  12
BRANCH   1  21
ATOM     21  C   UNL d   1      30.101  17.503 -24.554  0.00  0.00     0.140 C 
ATOM     22 CL   UNL d   1      29.420  17.220 -24.346  0.00  0.00    -0.068 Cl
ATOM     23 CL   UNL d   1      30.217  18.187 -25.090  0.00  0.00    -0.068 Cl
ENDBRANCH   1  21
TORSDOF 10
ENDMDL
MODEL 5
REMARK VINA RESULT:       0.6      4.888      6.433
REMARK  10 active torsions:
REMARK  status: ('A' for Active; 'I' for Inactive)
REMARK    1  A    between atoms: P_2  and  C_1 
REMARK    2  A    between atoms: N_3  and  C_1 
REMARK    3  A    between atoms: C_4  and  C_1 
REMARK    4  A    between atoms: O_9  and  P_2 
REMARK    5  A    between atoms: O_10  and  P_2 
REMARK       I    between atoms: C_5  and  N_3 
REMARK    6  A    between atoms: C_8  and  C_5 
REMARK    7  A    between atoms: C_16  and  O_9 
REMARK    8  A    between atoms: C_15  and  O_10 
REMARK    9  A    between atoms: C_18  and  C_15 
REMARK   10  A    between atoms: C_17  and  C_16 
ROOT
ATOM      1  C   UNL d   1      32.571  22.251 -21.119  0.00  0.00     0.186 C 
ENDROOT
BRANCH   1   2
ATOM      2  P   UNL d   1      32.908  21.655 -20.638  0.00  0.00     0.393 P 
ATOM      3  O   UNL d   1      33.240  21.080 -20.150  0.00  0.00    -0.251 OA
BRANCH   2   4
ATOM      4  O   UNL d   1      32.893  22.184 -20.007  0.00  0.00    -0.263 OA
BRANCH   4   5
ATOM      5  C   UNL d   1      32.758  21.900 -19.239  0.00  0.00     0.126 C 
BRANCH   5   6
ATOM      6  C   UNL d   1      33.240  22.141 -18.599  0.00  0.00     0.027 C 
ATOM      7  C   UNL d   1      33.105  22.134 -17.715  0.00  0.00     0.002 C 
ENDBRANCH   5   6
ENDBRANCH   4   5
ENDBRANCH   2   4
BRANCH   2   8
ATOM      8  O   UNL d   1      32.932  21.119 -21.249  0.00  0.00    -0.263 OA
BRANCH   8   9
ATOM      9  C   UNL d   1      32.849  20.321 -21.087  0.00  0.00     0.126 C 
BRANCH   9  10
ATOM     10  C   UNL d   1      33.226  19.757 -21.568  0.00  0.00     0.027 C 
ATOM     11  C   UNL d   1      32.685  19.294 -21.882  0.00  0.00     0.002 C 
ENDBRANCH   9  10
ENDBRANCH   8   9
ENDBRANCH   2   8
ENDBRANCH   1   2
BRANCH   1  12
ATOM     12  N   UNL d   1      32.901  22.381 -21.876  0.00  0.00    -0.199 NA
ATOM     13  C   UNL d   1      32.401  22.670 -22.480  0.00  0.00     0.279 C 
ATOM     14  O   UNL d   1      31.621  22.820 -22.336  0.00  0.00    -0.265 OA
BRANCH  13  15
ATOM     15  C   UNL d   1      32.679  22.810 -23.227  0.00  0.00     0.058 A 
ATOM     16  C   UNL d   1      32.949  23.565 -23.424  0.00  0.00     0.005 A 
ATOM     17  C   UNL d   1      33.230  23.702 -24.182  0.00  0.00     0.000 A 
ATOM     18  C   UNL d   1      33.241  23.084 -24.745  0.00  0.00     0.000 A 
ATOM     19  C   UNL d   1      32.975  22.341 -24.551  0.00  0.00     0.000 A 
ATOM     20  C   UNL d   1      32.689  22.194 -23.784  0.00  0.00     0.005 A 
ENDBRANCH  13  15
ENDBRANCH   1  12
BRANCH   1  21
ATOM     21  C   UNL d   1      31.939  22.691 -20.857  0.00  0.00     0.140 C 
ATOM     22 CL   UNL d   1      32.123  23.399 -20.624  0.00  0.00    -0.068 Cl
ATOM     23 CL   UNL d   1      31.130  22.356 -20.855  0.00  0.00    -0.068 Cl
ENDBRANCH   1  21
TORSDOF 10
ENDMDL
MODEL 6
REMARK VINA RESULT:       1.0      1.276      1.787
REMARK  10 active torsions:
REMARK  status: ('A' for Active; 'I' for Inactive)
REMARK    1  A    between atoms: P_2  and  C_1 
REMARK    2  A    between atoms: N_3  and  C_1 
REMARK    3  A    between atoms: C_4  and  C_1 
REMARK    4  A    between atoms: O_9  and  P_2 
REMARK    5  A    between atoms: O_10  and  P_2 
REMARK       I    between atoms: C_5  and  N_3 
REMARK    6  A    between atoms: C_8  and  C_5 
REMARK    7  A    between atoms: C_16  and  O_9 
REMARK    8  A    between atoms: C_15  and  O_10 
REMARK    9  A    between atoms: C_18  and  C_15 
REMARK   10  A    between atoms: C_17  and  C_16 
ROOT
ATOM      1  C   UNL d   1      30.644  16.304 -24.082  0.00  0.00     0.186 C 
ENDROOT
BRANCH   1   2
ATOM      2  P   UNL d   1      30.393  16.052 -23.325  0.00  0.00     0.393 P 
ATOM      3  O   UNL d   1      30.130  15.815 -22.580  0.00  0.00    -0.251 OA
BRANCH   2   4
ATOM      4  O   UNL d   1      29.738  16.545 -23.400  0.00  0.00    -0.263 OA
BRANCH   4   5
ATOM      5  C   UNL d   1      29.025  16.339 -23.028  0.00  0.00     0.126 C 
BRANCH   5   6
ATOM      6  C   UNL d   1      28.344  16.818 -23.105  0.00  0.00     0.027 C 
ATOM      7  C   UNL d   1      27.520  16.741 -22.766  0.00  0.00     0.002 C 
ENDBRANCH   5   6
ENDBRANCH   4   5
ENDBRANCH   2   4
BRANCH   2   8
ATOM      8  O   UNL d   1      31.033  15.559 -23.232  0.00  0.00    -0.263 OA
BRANCH   8   9
ATOM      9  C   UNL d   1      31.427  15.542 -22.514  0.00  0.00     0.126 C 
BRANCH   9  10
ATOM     10  C   UNL d   1      32.256  15.599 -22.493  0.00  0.00     0.027 C 
ATOM     11  C   UNL d   1      32.499  15.454 -21.768  0.00  0.00     0.002 C 
ENDBRANCH   9  10
ENDBRANCH   8   9
ENDBRANCH   2   8
ENDBRANCH   1   2
BRANCH   1  12
ATOM     12  N   UNL d   1      31.332  16.778 -24.132  0.00  0.00    -0.199 NA
ATOM     13  C   UNL d   1      31.242  17.579 -24.352  0.00  0.00     0.279 C 
ATOM     14  O   UNL d   1      30.514  17.887 -24.512  0.00  0.00    -0.265 OA
BRANCH  13  15
ATOM     15  C   UNL d   1      31.881  18.073 -24.413  0.00  0.00     0.058 A 
ATOM     16  C   UNL d   1      32.538  17.833 -24.851  0.00  0.00     0.005 A 
ATOM     17  C   UNL d   1      33.183  18.337 -24.910  0.00  0.00     0.000 A 
ATOM     18  C   UNL d   1      33.171  19.081 -24.529  0.00  0.00     0.000 A 
ATOM     19  C   UNL d   1      32.524  19.317 -24.098  0.00  0.00     0.000 A 
ATOM     20  C   UNL d   1      31.867  18.812 -24.034  0.00  0.00     0.005 A 
ENDBRANCH  13  15
ENDBRANCH   1  12
BRANCH   1  21
ATOM     21  C   UNL d   1      30.231  16.095 -24.750  0.00  0.00     0.140 C 
ATOM     22 CL   UNL d   1      30.485  15.456 -25.091  0.00  0.00    -0.068 Cl
ATOM     23 CL   UNL d   1      29.558  16.580 -25.031  0.00  0.00    -0.068 Cl
ENDBRANCH   1  21
TORSDOF 10
ENDMDL
