MODEL 1
REMARK VINA RESULT:      -7.0      0.000      0.000
REMARK  3 active torsions:
REMARK  status: ('A' for Active; 'I' for Inactive)
REMARK    1  A    between atoms: C_7  and  C_1 
REMARK    2  A    between atoms: N_9  and  C_7 
REMARK    3  A    between atoms: C_8  and  N_9 
ROOT
ATOM      1  C   UNL d   1     -47.138  12.531  23.418  0.00  0.00     0.146 A 
ATOM      2  C   UNL d   1     -46.324  12.663  23.336  0.00  0.00     0.304 A 
ATOM      3  C   UNL d   1     -47.401  11.738  23.581  0.00  0.00     0.304 A 
ATOM      4  O   UNL d   1     -46.871  11.139  23.652  0.00  0.00    -0.277 OA
ATOM      5  O   UNL d   1     -45.797  12.030  23.413  0.00  0.00    -0.277 OA
ATOM      6  C   UNL d   1     -46.037  11.287  23.565  0.00  0.00     0.203 A 
ATOM      7  O   UNL d   1     -48.227  11.597  23.666  0.00  0.00    -0.259 OA
ATOM      8  O   UNL d   1     -46.044  13.470  23.170  0.00  0.00    -0.259 OA
ATOM      9  C   UNL d   1     -45.277  11.020  23.558  0.00  0.00     0.062 C 
ATOM     10  C   UNL d   1     -45.891  10.493  23.698  0.00  0.00     0.062 C 
ENDROOT
BRANCH   1  11
ATOM     11  C   UNL d   1     -47.683  13.147  23.346  0.00  0.00     0.129 C 
BRANCH  11  12
ATOM     12  N   UNL d   1     -47.854  13.443  22.610  0.00  0.00    -0.057 NA
BRANCH  12  13
ATOM     13  C   UNL d   1     -48.482  13.985  22.523  0.00  0.00     0.750 A 
ATOM     14  N   UNL d   1     -48.474  14.716  22.944  0.00  0.00    -0.058 NA
ATOM     15  C   UNL d   1     -49.115  15.237  22.837  0.00  0.00     0.120 A 
ATOM     16  C   UNL d   1     -49.735  15.065  22.349  0.00  0.00     0.043 A 
ATOM     17  C   UNL d   1     -49.733  14.348  21.942  0.00  0.00     0.120 A 
ATOM     18  N   UNL d   1     -49.120  13.820  22.027  0.00  0.00    -0.058 NA
ENDBRANCH  12  13
ENDBRANCH  11  12
ENDBRANCH   1  11
TORSDOF 3
ENDMDL
MODEL 2
REMARK VINA RESULT:      -6.8      1.339      1.946
REMARK  3 active torsions:
REMARK  status: ('A' for Active; 'I' for Inactive)
REMARK    1  A    between atoms: C_7  and  C_1 
REMARK    2  A    between atoms: N_9  and  C_7 
REMARK    3  A    between atoms: C_8  and  N_9 
ROOT
ATOM      1  C   UNL d   1     -47.476  14.035  22.940  0.00  0.00     0.146 A 
ATOM      2  C   UNL d   1     -46.844  14.489  22.656  0.00  0.00     0.304 A 
ATOM      3  C   UNL d   1     -47.370  13.192  22.999  0.00  0.00     0.304 A 
ATOM      4  O   UNL d   1     -46.674  12.853  22.784  0.00  0.00    -0.277 OA
ATOM      5  O   UNL d   1     -46.136  14.117  22.441  0.00  0.00    -0.277 OA
ATOM      6  C   UNL d   1     -46.031  13.331  22.494  0.00  0.00     0.203 A 
ATOM      7  O   UNL d   1     -48.008  12.725  23.287  0.00  0.00    -0.259 OA
ATOM      8  O   UNL d   1     -46.942  15.352  22.591  0.00  0.00    -0.259 OA
ATOM      9  C   UNL d   1     -45.280  13.393  22.212  0.00  0.00     0.062 C 
ATOM     10  C   UNL d   1     -45.579  12.655  22.407  0.00  0.00     0.062 C 
ENDROOT
BRANCH   1  11
ATOM     11  C   UNL d   1     -48.191  14.383  23.160  0.00  0.00     0.129 C 
BRANCH  11  12
ATOM     12  N   UNL d   1     -48.706  14.635  22.586  0.00  0.00    -0.057 NA
BRANCH  12  13
ATOM     13  C   UNL d   1     -49.466  14.899  22.804  0.00  0.00     0.750 A 
ATOM     14  N   UNL d   1     -50.149  14.609  22.402  0.00  0.00    -0.058 NA
ATOM     15  C   UNL d   1     -50.895  14.890  22.641  0.00  0.00     0.120 A 
ATOM     16  C   UNL d   1     -50.983  15.425  23.240  0.00  0.00     0.043 A 
ATOM     17  C   UNL d   1     -50.309  15.702  23.627  0.00  0.00     0.120 A 
ATOM     18  N   UNL d   1     -49.568  15.445  23.414  0.00  0.00    -0.058 NA
ENDBRANCH  12  13
ENDBRANCH  11  12
ENDBRANCH   1  11
TORSDOF 3
ENDMDL
MODEL 3
REMARK VINA RESULT:      -6.6      1.782      4.196
REMARK  3 active torsions:
REMARK  status: ('A' for Active; 'I' for Inactive)
REMARK    1  A    between atoms: C_7  and  C_1 
REMARK    2  A    between atoms: N_9  and  C_7 
REMARK    3  A    between atoms: C_8  and  N_9 
ROOT
ATOM      1  C   UNL d   1     -48.499  14.278  22.901  0.00  0.00     0.146 A 
ATOM      2  C   UNL d   1     -49.122  13.882  23.278  0.00  0.00     0.304 A 
ATOM      3  C   UNL d   1     -48.586  15.112  22.752  0.00  0.00     0.304 A 
ATOM      4  O   UNL d   1     -49.255  15.498  22.973  0.00  0.00    -0.277 OA
ATOM      5  O   UNL d   1     -49.801  14.300  23.497  0.00  0.00    -0.277 OA
ATOM      6  C   UNL d   1     -49.889  15.079  23.360  0.00  0.00     0.203 A 
ATOM      7  O   UNL d   1     -47.958  15.521  22.370  0.00  0.00    -0.259 OA
ATOM      8  O   UNL d   1     -49.043  13.029  23.435  0.00  0.00    -0.259 OA
ATOM      9  C   UNL d   1     -50.619  15.075  23.698  0.00  0.00     0.062 C 
ATOM     10  C   UNL d   1     -50.314  15.776  23.398  0.00  0.00     0.062 C 
ENDROOT
BRANCH   1  11
ATOM     11  C   UNL d   1     -47.812  13.882  22.674  0.00  0.00     0.129 C 
BRANCH  11  12
ATOM     12  N   UNL d   1     -47.170  13.881  23.171  0.00  0.00    -0.057 NA
BRANCH  12  13
ATOM     13  C   UNL d   1     -46.495  13.435  22.967  0.00  0.00     0.750 A 
ATOM     14  N   UNL d   1     -46.350  12.690  23.337  0.00  0.00    -0.058 NA
ATOM     15  C   UNL d   1     -45.668  12.267  23.114  0.00  0.00     0.120 A 
ATOM     16  C   UNL d   1     -45.150  12.545  22.561  0.00  0.00     0.043 A 
ATOM     17  C   UNL d   1     -45.301  13.274  22.205  0.00  0.00     0.120 A 
ATOM     18  N   UNL d   1     -45.959  13.709  22.403  0.00  0.00    -0.058 NA
ENDBRANCH  12  13
ENDBRANCH  11  12
ENDBRANCH   1  11
TORSDOF 3
ENDMDL
MODEL 4
REMARK VINA RESULT:      -6.5      1.674      2.046
REMARK  3 active torsions:
REMARK  status: ('A' for Active; 'I' for Inactive)
REMARK    1  A    between atoms: C_7  and  C_1 
REMARK    2  A    between atoms: N_9  and  C_7 
REMARK    3  A    between atoms: C_8  and  N_9 
ROOT
ATOM      1  C   UNL d   1     -47.325  12.890  23.092  0.00  0.00     0.146 A 
ATOM      2  C   UNL d   1     -47.044  13.540  22.661  0.00  0.00     0.304 A 
ATOM      3  C   UNL d   1     -46.782  12.257  23.261  0.00  0.00     0.304 A 
ATOM      4  O   UNL d   1     -46.021  12.294  23.009  0.00  0.00    -0.277 OA
ATOM      5  O   UNL d   1     -46.256  13.557  22.412  0.00  0.00    -0.277 OA
ATOM      6  C   UNL d   1     -45.744  12.968  22.567  0.00  0.00     0.203 A 
ATOM      7  O   UNL d   1     -47.061  11.593  23.698  0.00  0.00    -0.259 OA
ATOM      8  O   UNL d   1     -47.591  14.194  22.482  0.00  0.00    -0.259 OA
ATOM      9  C   UNL d   1     -45.152  13.355  22.181  0.00  0.00     0.062 C 
ATOM     10  C   UNL d   1     -45.003  12.624  22.523  0.00  0.00     0.062 C 
ENDROOT
BRANCH   1  11
ATOM     11  C   UNL d   1     -48.108  12.852  23.351  0.00  0.00     0.129 C 
BRANCH  11  12
ATOM     12  N   UNL d   1     -48.685  12.598  22.840  0.00  0.00    -0.057 NA
BRANCH  12  13
ATOM     13  C   UNL d   1     -49.469  12.519  23.114  0.00  0.00     0.750 A 
ATOM     14  N   UNL d   1     -49.890  13.194  23.397  0.00  0.00    -0.058 NA
ATOM     15  C   UNL d   1     -50.671  13.085  23.664  0.00  0.00     0.120 A 
ATOM     16  C   UNL d   1     -51.032  12.362  23.661  0.00  0.00     0.043 A 
ATOM     17  C   UNL d   1     -50.611  11.709  23.383  0.00  0.00     0.120 A 
ATOM     18  N   UNL d   1     -49.847  11.786  23.115  0.00  0.00    -0.058 NA
ENDBRANCH  12  13
ENDBRANCH  11  12
ENDBRANCH   1  11
TORSDOF 3
ENDMDL
MODEL 5
REMARK VINA RESULT:      -6.4      1.851      3.757
REMARK  3 active torsions:
REMARK  status: ('A' for Active; 'I' for Inactive)
REMARK    1  A    between atoms: C_7  and  C_1 
REMARK    2  A    between atoms: N_9  and  C_7 
REMARK    3  A    between atoms: C_8  and  N_9 
ROOT
ATOM      1  C   UNL d   1     -48.808  12.813  22.885  0.00  0.00     0.146 A 
ATOM      2  C   UNL d   1     -49.218  12.099  22.797  0.00  0.00     0.304 A 
ATOM      3  C   UNL d   1     -49.221  13.473  23.231  0.00  0.00     0.304 A 
ATOM      4  O   UNL d   1     -49.986  13.398  23.463  0.00  0.00    -0.277 OA
ATOM      5  O   UNL d   1     -50.006  12.045  23.044  0.00  0.00    -0.277 OA
ATOM      6  C   UNL d   1     -50.397  12.658  23.368  0.00  0.00     0.203 A 
ATOM      7  O   UNL d   1     -48.811  14.202  23.323  0.00  0.00    -0.259 OA
ATOM      8  O   UNL d   1     -48.805  11.418  22.445  0.00  0.00    -0.259 OA
ATOM      9  C   UNL d   1     -51.063  12.213  23.450  0.00  0.00     0.062 C 
ATOM     10  C   UNL d   1     -51.064  12.996  23.698  0.00  0.00     0.062 C 
ENDROOT
BRANCH   1  11
ATOM     11  C   UNL d   1     -48.022  12.890  22.646  0.00  0.00     0.129 C 
BRANCH  11  12
ATOM     12  N   UNL d   1     -47.430  12.837  23.199  0.00  0.00    -0.057 NA
BRANCH  12  13
ATOM     13  C   UNL d   1     -46.634  12.826  22.948  0.00  0.00     0.750 A 
ATOM     14  N   UNL d   1     -46.343  13.427  22.433  0.00  0.00    -0.058 NA
ATOM     15  C   UNL d   1     -45.545  13.390  22.199  0.00  0.00     0.120 A 
ATOM     16  C   UNL d   1     -45.049  12.803  22.448  0.00  0.00     0.043 A 
ATOM     17  C   UNL d   1     -45.344  12.221  22.952  0.00  0.00     0.120 A 
ATOM     18  N   UNL d   1     -46.119  12.232  23.197  0.00  0.00    -0.058 NA
ENDBRANCH  12  13
ENDBRANCH  11  12
ENDBRANCH   1  11
TORSDOF 3
ENDMDL
