MODEL 1
REMARK VINA RESULT:      72.1      0.000      0.000
REMARK  7 active torsions:
REMARK  status: ('A' for Active; 'I' for Inactive)
REMARK    1  A    between atoms: C_2  and  S_1 
REMARK    2  A    between atoms: N_3  and  S_1 
REMARK    3  A    between atoms: C_11  and  N_3 
REMARK    4  A    between atoms: C_4  and  C_7 
REMARK       I    between atoms: N_12  and  C_4 
REMARK    5  A    between atoms: C_22  and  N_12 
REMARK    6  A    between atoms: O_20  and  C_24 
REMARK    7  A    between atoms: C_24  and  C_22 
ROOT
ATOM      1  C   UNL d   1     -56.246-100.418 -44.273  0.00  0.00     0.058 A 
ATOM      2  C   UNL d   1     -57.383 -99.331 -44.759  0.00  0.00     0.094 A 
ATOM      3  C   UNL d   1     -56.055 -99.617 -44.326  0.00  0.00     0.006 A 
ATOM      4  C   UNL d   1     -57.007-100.675 -44.462  0.00  0.00     0.006 A 
ATOM      5  C   UNL d   1     -56.622 -99.074 -44.569  0.00  0.00     0.020 A 
ATOM      6  C   UNL d   1     -57.576-100.132 -44.705  0.00  0.00     0.020 A 
ENDROOT
BRANCH   2   7
ATOM      7  N   UNL d   1     -57.950 -98.788 -45.002  0.00  0.00    -0.158 NA
BRANCH   7   8
ATOM      8  S   UNL d   1     -58.380 -98.923 -45.694  0.00  0.00     0.285 S 
ATOM      9  O   UNL d   1     -59.080 -98.757 -45.292  0.00  0.00    -0.198 OA
ATOM     10  O   UNL d   1     -57.677 -99.089 -46.092  0.00  0.00    -0.198 OA
BRANCH   8  11
ATOM     11  C   UNL d   1     -58.800 -99.060 -46.387  0.00  0.00     0.105 A 
ATOM     12  C   UNL d   1     -59.543 -99.411 -46.363  0.00  0.00     0.012 A 
ATOM     13  C   UNL d   1     -59.958 -99.544 -47.063  0.00  0.00     0.001 A 
ATOM     14  C   UNL d   1     -59.865 -99.626 -45.626  0.00  0.00     0.001 C 
ATOM     15  C   UNL d   1     -59.633 -99.328 -47.785  0.00  0.00     0.000 A 
ATOM     16  C   UNL d   1     -58.887 -98.976 -47.813  0.00  0.00     0.001 A 
ATOM     17  C   UNL d   1     -58.467 -98.840 -47.118  0.00  0.00     0.013 A 
ATOM     18  C   UNL d   1     -58.560 -98.758 -48.550  0.00  0.00     0.000 C 
ENDBRANCH   8  11
ENDBRANCH   7   8
ENDBRANCH   2   7
BRANCH   1  19
ATOM     19  C   UNL d   1     -55.675-100.973 -44.027  0.00  0.00     0.279 C 
ATOM     20  O   UNL d   1     -55.057-101.185 -44.530  0.00  0.00    -0.265 OA
ATOM     21  N   UNL d   1     -55.733-101.307 -43.278  0.00  0.00    -0.204 NA
BRANCH  21  22
ATOM     22  C   UNL d   1     -55.169-101.856 -43.033  0.00  0.00     0.128 C 
BRANCH  22  23
ATOM     23  C   UNL d   1     -54.858-101.818 -42.270  0.00  0.00     0.137 C 
BRANCH  23  24
ATOM     24  O   UNL d   1     -54.789-102.518 -41.809  0.00  0.00    -0.325 OA
ATOM     25  C   UNL d   1     -54.714-102.465 -40.994  0.00  0.00     0.182 C 
ENDBRANCH  23  24
ENDBRANCH  22  23
ENDBRANCH  21  22
ENDBRANCH   1  19
TORSDOF 7
ENDMDL
