MODEL 1
REMARK VINA RESULT:       0.3      0.000      0.000
REMARK  9 active torsions:
REMARK  status: ('A' for Active; 'I' for Inactive)
REMARK    1  A    between atoms: C_12  and  N_1 
REMARK    2  A    between atoms: C_13  and  N_2 
REMARK    3  A    between atoms: O_9  and  C_23 
REMARK    4  A    between atoms: C_10  and  O_9 
REMARK    5  A    between atoms: C_11  and  C_12 
REMARK    6  A    between atoms: C_18  and  C_13 
REMARK    7  A    between atoms: C_26  and  C_15 
REMARK    8  A    between atoms: C_16  and  C_26 
REMARK    9  A    between atoms: C_23  and  C_18 
ROOT
ATOM      1  N   UNL d   1     -42.216-123.043 -50.435  0.00  0.00    -0.300 N 
ATOM      2  N   UNL d   1     -41.613-121.789 -51.348  0.00  0.00    -0.297 N 
ATOM      3  C   UNL d   1     -41.519-123.117 -50.827  0.00  0.00     0.100 A 
ATOM      4  C   UNL d   1     -42.327-121.695 -50.955  0.00  0.00     0.100 A 
ATOM      5  C   UNL d   1     -41.199-122.508 -51.287  0.00  0.00     0.100 A 
ATOM      6  C   UNL d   1     -42.628-122.322 -50.499  0.00  0.00     0.100 A 
ENDROOT
BRANCH   2   7
ATOM      7  C   UNL d   1     -41.311-121.188 -51.795  0.00  0.00     0.125 C 
BRANCH   7   8
ATOM      8  C   UNL d   1     -41.395-121.163 -52.599  0.00  0.00     0.238 C 
ATOM      9  O   UNL d   1     -41.506-120.417 -52.953  0.00  0.00    -0.283 OA
BRANCH   8  10
ATOM     10  C   UNL d   1     -41.372-121.830 -53.039  0.00  0.00     0.166 C 
BRANCH  10  11
ATOM     11  O   UNL d   1     -41.313-121.786 -53.864  0.00  0.00    -0.302 OA
BRANCH  11  12
ATOM     12  C   UNL d   1     -41.571-122.399 -54.328  0.00  0.00     0.100 A 
ATOM     13  C   UNL d   1     -41.916-122.258 -55.058  0.00  0.00     0.023 A 
ATOM     14  C   UNL d   1     -42.182-122.873 -55.538  0.00  0.00     0.002 A 
ATOM     15  C   UNL d   1     -42.101-123.658 -55.281  0.00  0.00     0.000 A 
ATOM     16  C   UNL d   1     -41.751-123.817 -54.538  0.00  0.00     0.002 A 
ATOM     17  C   UNL d   1     -41.487-123.175 -54.065  0.00  0.00     0.025 A 
BRANCH  13  18
ATOM     18  C   UNL d   1     -41.997-121.491 -55.312  0.00  0.00     0.002 C 
BRANCH  18  19
ATOM     19  C   UNL d   1     -41.941-121.315 -56.106  0.00  0.00     0.000 C 
ATOM     20  C   UNL d   1     -41.805-120.535 -56.354  0.00  0.00     0.000 C 
ENDBRANCH  18  19
ENDBRANCH  13  18
ENDBRANCH  11  12
ENDBRANCH  10  11
ENDBRANCH   8  10
ENDBRANCH   7   8
ENDBRANCH   2   7
BRANCH   1  21
ATOM     21  C   UNL d   1     -42.508-123.652 -49.991  0.00  0.00     0.080 C 
BRANCH  21  22
ATOM     22  C   UNL d   1     -42.472-123.595 -49.181  0.00  0.00     0.020 A 
ATOM     23  C   UNL d   1     -41.774-123.752 -48.799  0.00  0.00     0.028 A 
ATOM     24  C   UNL d   1     -41.764-123.687 -47.972  0.00  0.00     0.119 A 
ATOM     25  O   UNL d   1     -41.129-123.817 -47.466  0.00  0.00    -0.300 OA
ATOM     26  C   UNL d   1     -42.429-123.473 -47.557  0.00  0.00     0.119 A 
ATOM     27  C   UNL d   1     -41.401-123.678 -46.676  0.00  0.00     0.304 A 
ATOM     28  O   UNL d   1     -42.212-123.465 -46.751  0.00  0.00    -0.300 OA
ATOM     29  C   UNL d   1     -43.141-123.312 -47.947  0.00  0.00     0.026 A 
ATOM     30  C   UNL d   1     -43.156-123.376 -48.769  0.00  0.00     0.004 A 
ENDBRANCH  21  22
ENDBRANCH   1  21
TORSDOF 9
ENDMDL
