MODEL 1
REMARK VINA RESULT:      -3.0      0.000      0.000
REMARK  4 active torsions:
REMARK  status: ('A' for Active; 'I' for Inactive)
REMARK    1  A    between atoms: N_14  and  S_1 
REMARK    2  A    between atoms: C_5  and  C_17 
REMARK    3  A    between atoms: C_18  and  N_14 
REMARK    4  A    between atoms: C_17  and  C_18 
ROOT
ATOM      1  N   UNL d   1      33.222  18.965 -21.779  0.00  0.00    -0.208 NA
ATOM      2  C   UNL d   1      33.231  19.699 -21.393  0.00  0.00     0.279 A 
ATOM      3  C   UNL d   1      33.212  18.929 -22.610  0.00  0.00     0.085 A 
ATOM      4  C   UNL d   1      33.231  20.398 -21.834  0.00  0.00     0.059 A 
ATOM      5  C   UNL d   1      33.222  20.366 -22.665  0.00  0.00     0.006 A 
ATOM      6  C   UNL d   1      33.212  19.631 -23.045  0.00  0.00     0.018 A 
ATOM      7  C   UNL d   1      33.203  18.198 -22.992  0.00  0.00     0.019 A 
ATOM      8  C   UNL d   1      33.203  19.595 -23.877  0.00  0.00     0.002 A 
ATOM      9  C   UNL d   1      33.193  18.166 -23.817  0.00  0.00     0.002 A 
ATOM     10  C   UNL d   1      33.193  18.864 -24.259  0.00  0.00     0.000 A 
ATOM     11  O   UNL d   1      33.241  19.731 -20.568  0.00  0.00    -0.265 OA
ATOM     12  C   UNL d   1      33.184  18.832 -25.083  0.00  0.00     0.000 C 
ATOM     13  C   UNL d   1      33.184  17.434 -24.199  0.00  0.00     0.000 C 
ENDROOT
BRANCH   4  14
ATOM     14  C   UNL d   1      33.241  21.129 -21.452  0.00  0.00     0.026 C 
BRANCH  14  15
ATOM     15  C   UNL d   1      32.737  21.731 -21.707  0.00  0.00     0.112 C 
BRANCH  15  16
ATOM     16  N   UNL d   1      32.617  22.393 -21.231  0.00  0.00    -0.160 NA
BRANCH  16  17
ATOM     17  S   UNL d   1      32.127  23.014 -21.493  0.00  0.00     0.266 S 
ATOM     18  O   UNL d   1      31.675  22.594 -20.939  0.00  0.00    -0.203 OA
ATOM     19  O   UNL d   1      31.501  23.535 -21.611  0.00  0.00    -0.203 OA
ATOM     20  C   UNL d   1      32.600  23.414 -22.043  0.00  0.00     0.165 C 
ENDBRANCH  16  17
ENDBRANCH  15  16
ENDBRANCH  14  15
ENDBRANCH   4  14
TORSDOF 4
ENDMDL
MODEL 2
REMARK VINA RESULT:      -2.9      2.670      4.557
REMARK  4 active torsions:
REMARK  status: ('A' for Active; 'I' for Inactive)
REMARK    1  A    between atoms: N_14  and  S_1 
REMARK    2  A    between atoms: C_5  and  C_17 
REMARK    3  A    between atoms: C_18  and  N_14 
REMARK    4  A    between atoms: C_17  and  C_18 
ROOT
ATOM      1  N   UNL d   1      33.238  20.387 -23.564  0.00  0.00    -0.208 NA
ATOM      2  C   UNL d   1      33.206  19.616 -23.868  0.00  0.00     0.279 A 
ATOM      3  C   UNL d   1      33.206  20.515 -22.742  0.00  0.00     0.085 A 
ATOM      4  C   UNL d   1      33.140  18.972 -23.354  0.00  0.00     0.059 A 
ATOM      5  C   UNL d   1      33.108  19.095 -22.532  0.00  0.00     0.006 A 
ATOM      6  C   UNL d   1      33.141  19.866 -22.234  0.00  0.00     0.018 A 
ATOM      7  C   UNL d   1      33.239  21.283 -22.441  0.00  0.00     0.019 A 
ATOM      8  C   UNL d   1      33.109  19.994 -21.413  0.00  0.00     0.002 A 
ATOM      9  C   UNL d   1      33.207  21.406 -21.626  0.00  0.00     0.002 A 
ATOM     10  C   UNL d   1      33.141  20.762 -21.112  0.00  0.00     0.000 A 
ATOM     11  O   UNL d   1      33.238  19.493 -24.684  0.00  0.00    -0.265 OA
ATOM     12  C   UNL d   1      33.109  20.885 -20.296  0.00  0.00     0.000 C 
ATOM     13  C   UNL d   1      33.240  22.174 -21.325  0.00  0.00     0.000 C 
ENDROOT
BRANCH   4  14
ATOM     14  C   UNL d   1      33.107  18.204 -23.655  0.00  0.00     0.026 C 
BRANCH  14  15
ATOM     15  C   UNL d   1      32.462  17.722 -23.478  0.00  0.00     0.112 C 
BRANCH  15  16
ATOM     16  N   UNL d   1      32.437  16.949 -23.764  0.00  0.00    -0.160 NA
BRANCH  16  17
ATOM     17  S   UNL d   1      31.763  16.477 -23.634  0.00  0.00     0.266 S 
ATOM     18  O   UNL d   1      32.395  16.060 -23.295  0.00  0.00    -0.203 OA
ATOM     19  O   UNL d   1      31.245  15.879 -23.407  0.00  0.00    -0.203 OA
ATOM     20  C   UNL d   1      31.151  16.913 -23.980  0.00  0.00     0.165 C 
ENDBRANCH  16  17
ENDBRANCH  15  16
ENDBRANCH  14  15
ENDBRANCH   4  14
TORSDOF 4
ENDMDL
MODEL 3
REMARK VINA RESULT:      -0.9      1.087      1.227
REMARK  4 active torsions:
REMARK  status: ('A' for Active; 'I' for Inactive)
REMARK    1  A    between atoms: N_14  and  S_1 
REMARK    2  A    between atoms: C_5  and  C_17 
REMARK    3  A    between atoms: C_18  and  N_14 
REMARK    4  A    between atoms: C_17  and  C_18 
ROOT
ATOM      1  N   UNL d   1      33.096  18.746 -22.010  0.00  0.00    -0.208 NA
ATOM      2  C   UNL d   1      33.155  19.563 -21.880  0.00  0.00     0.279 A 
ATOM      3  C   UNL d   1      33.059  18.447 -22.786  0.00  0.00     0.085 A 
ATOM      4  C   UNL d   1      33.178  20.082 -22.522  0.00  0.00     0.059 A 
ATOM      5  C   UNL d   1      33.141  19.788 -23.299  0.00  0.00     0.006 A 
ATOM      6  C   UNL d   1      33.082  18.972 -23.423  0.00  0.00     0.018 A 
ATOM      7  C   UNL d   1      33.001  17.634 -22.913  0.00  0.00     0.019 A 
ATOM      8  C   UNL d   1      33.046  18.673 -24.199  0.00  0.00     0.002 A 
ATOM      9  C   UNL d   1      32.965  17.341 -23.684  0.00  0.00     0.002 A 
ATOM     10  C   UNL d   1      32.987  17.860 -24.326  0.00  0.00     0.000 A 
ATOM     11  O   UNL d   1      33.192  19.856 -21.109  0.00  0.00    -0.265 OA
ATOM     12  C   UNL d   1      32.951  17.567 -25.097  0.00  0.00     0.000 C 
ATOM     13  C   UNL d   1      32.906  16.527 -23.811  0.00  0.00     0.000 C 
ENDROOT
BRANCH   4  14
ATOM     14  C   UNL d   1      33.236  20.896 -22.395  0.00  0.00     0.026 C 
BRANCH  14  15
ATOM     15  C   UNL d   1      32.885  21.420 -22.927  0.00  0.00     0.112 C 
BRANCH  15  16
ATOM     16  N   UNL d   1      32.891  22.229 -22.768  0.00  0.00    -0.160 NA
BRANCH  16  17
ATOM     17  S   UNL d   1      32.571  22.765 -23.319  0.00  0.00     0.266 S 
ATOM     18  O   UNL d   1      32.236  22.973 -22.590  0.00  0.00    -0.203 OA
ATOM     19  O   UNL d   1      32.152  23.372 -23.685  0.00  0.00    -0.203 OA
ATOM     20  C   UNL d   1      32.919  22.538 -24.035  0.00  0.00     0.165 C 
ENDBRANCH  16  17
ENDBRANCH  15  16
ENDBRANCH  14  15
ENDBRANCH   4  14
TORSDOF 4
ENDMDL
MODEL 4
REMARK VINA RESULT:      -0.4      2.663      3.529
REMARK  4 active torsions:
REMARK  status: ('A' for Active; 'I' for Inactive)
REMARK    1  A    between atoms: N_14  and  S_1 
REMARK    2  A    between atoms: C_5  and  C_17 
REMARK    3  A    between atoms: C_18  and  N_14 
REMARK    4  A    between atoms: C_17  and  C_18 
ROOT
ATOM      1  N   UNL d   1      32.617  21.311 -21.406  0.00  0.00    -0.208 NA
ATOM      2  C   UNL d   1      32.767  21.439 -20.600  0.00  0.00     0.279 A 
ATOM      3  C   UNL d   1      32.773  21.910 -21.962  0.00  0.00     0.085 A 
ATOM      4  C   UNL d   1      33.073  22.164 -20.348  0.00  0.00     0.059 A 
ATOM      5  C   UNL d   1      33.230  22.766 -20.900  0.00  0.00     0.006 A 
ATOM      6  C   UNL d   1      33.079  22.632 -21.703  0.00  0.00     0.018 A 
ATOM      7  C   UNL d   1      32.623  21.780 -22.763  0.00  0.00     0.019 A 
ATOM      8  C   UNL d   1      33.235  23.231 -22.259  0.00  0.00     0.002 A 
ATOM      9  C   UNL d   1      32.779  22.376 -23.312  0.00  0.00     0.002 A 
ATOM     10  C   UNL d   1      33.085  23.101 -23.060  0.00  0.00     0.000 A 
ATOM     11  O   UNL d   1      32.611  20.843 -20.052  0.00  0.00    -0.265 OA
ATOM     12  C   UNL d   1      33.241  23.698 -23.609  0.00  0.00     0.000 C 
ATOM     13  C   UNL d   1      32.629  22.246 -24.113  0.00  0.00     0.000 C 
ENDROOT
BRANCH   4  14
ATOM     14  C   UNL d   1      33.223  22.294 -19.547  0.00  0.00     0.026 C 
BRANCH  14  15
ATOM     15  C   UNL d   1      32.748  22.818 -19.121  0.00  0.00     0.112 C 
BRANCH  15  16
ATOM     16  N   UNL d   1      33.050  23.190 -18.450  0.00  0.00    -0.160 NA
BRANCH  16  17
ATOM     17  S   UNL d   1      32.549  23.359 -17.806  0.00  0.00     0.266 S 
ATOM     18  O   UNL d   1      33.227  23.017 -17.474  0.00  0.00    -0.203 OA
ATOM     19  O   UNL d   1      32.221  23.440 -17.055  0.00  0.00    -0.203 OA
ATOM     20  C   UNL d   1      31.883  23.699 -18.163  0.00  0.00     0.165 C 
ENDBRANCH  16  17
ENDBRANCH  15  16
ENDBRANCH  14  15
ENDBRANCH   4  14
TORSDOF 4
ENDMDL
