MODEL 1
REMARK VINA RESULT:      -5.6      0.000      0.000
REMARK  5 active torsions:
REMARK  status: ('A' for Active; 'I' for Inactive)
REMARK       I    between atoms: C_3  and  N_1 
REMARK    1  A    between atoms: C_12  and  C_3 
REMARK    2  A    between atoms: C_7  and  O_10 
REMARK    3  A    between atoms: O_10  and  C_21 
REMARK    4  A    between atoms: C_22  and  C_12 
REMARK    5  A    between atoms: C_21  and  C_22 
ROOT
ATOM      1  N   UNL d   1     -42.345-123.110 -49.580  0.00  0.00    -0.273 N 
ATOM      2  C   UNL d   1     -42.133-123.138 -48.783  0.00  0.00     0.067 A 
ATOM      3  C   UNL d   1     -41.841-122.756 -50.129  0.00  0.00     0.265 C 
ATOM      4  C   UNL d   1     -42.637-123.492 -48.233  0.00  0.00     0.016 A 
ATOM      5  O   UNL d   1     -41.126-122.430 -49.882  0.00  0.00    -0.267 OA
ATOM      6  C   UNL d   1     -43.061-123.436 -49.828  0.00  0.00     0.083 A 
ATOM      7  C   UNL d   1     -41.417-122.812 -48.536  0.00  0.00     0.018 A 
ATOM      8  C   UNL d   1     -43.564-123.790 -49.278  0.00  0.00     0.019 A 
ATOM      9  C   UNL d   1     -43.352-123.817 -48.481  0.00  0.00     0.003 A 
ATOM     10  C   UNL d   1     -42.424-123.519 -47.437  0.00  0.00     0.001 A 
ATOM     11  C   UNL d   1     -41.205-122.839 -47.738  0.00  0.00     0.002 A 
ATOM     12  C   UNL d   1     -41.709-123.193 -47.190  0.00  0.00     0.000 A 
ENDROOT
BRANCH   3  13
ATOM     13  C   UNL d   1     -42.054-122.729 -50.926  0.00  0.00     0.063 C 
BRANCH  13  14
ATOM     14  C   UNL d   1     -41.563-122.350 -51.471  0.00  0.00     0.032 C 
BRANCH  14  15
ATOM     15  C   UNL d   1     -41.498-122.641 -52.240  0.00  0.00     0.123 C 
BRANCH  15  16
ATOM     16  O   UNL d   1     -41.817-122.215 -52.871  0.00  0.00    -0.305 OA
BRANCH  16  17
ATOM     17  C   UNL d   1     -41.697-122.473 -53.645  0.00  0.00     0.100 A 
ATOM     18  C   UNL d   1     -42.017-122.048 -54.276  0.00  0.00     0.023 A 
ATOM     19  C   UNL d   1     -41.897-122.306 -55.050  0.00  0.00     0.002 A 
ATOM     20  C   UNL d   1     -42.456-121.365 -54.133  0.00  0.00     0.002 C 
ATOM     21  C   UNL d   1     -42.216-121.882 -55.672  0.00  0.00     0.000 C 
ATOM     22  C   UNL d   1     -41.458-122.989 -55.194  0.00  0.00     0.000 A 
ATOM     23  C   UNL d   1     -41.139-123.413 -54.564  0.00  0.00     0.002 A 
ATOM     24  C   UNL d   1     -41.258-123.156 -53.789  0.00  0.00     0.025 A 
ENDBRANCH  16  17
ENDBRANCH  15  16
ENDBRANCH  14  15
ENDBRANCH  13  14
ENDBRANCH   3  13
TORSDOF 5
ENDMDL
MODEL 2
REMARK VINA RESULT:      -5.0      1.076      5.605
REMARK  5 active torsions:
REMARK  status: ('A' for Active; 'I' for Inactive)
REMARK       I    between atoms: C_3  and  N_1 
REMARK    1  A    between atoms: C_12  and  C_3 
REMARK    2  A    between atoms: C_7  and  O_10 
REMARK    3  A    between atoms: O_10  and  C_21 
REMARK    4  A    between atoms: C_22  and  C_12 
REMARK    5  A    between atoms: C_21  and  C_22 
ROOT
ATOM      1  N   UNL d   1     -41.457-122.720 -53.714  0.00  0.00    -0.273 N 
ATOM      2  C   UNL d   1     -41.788-122.321 -54.357  0.00  0.00     0.067 A 
ATOM      3  C   UNL d   1     -41.457-122.370 -52.967  0.00  0.00     0.265 C 
ATOM      4  C   UNL d   1     -41.788-122.671 -55.104  0.00  0.00     0.016 A 
ATOM      5  O   UNL d   1     -41.787-121.622 -52.862  0.00  0.00    -0.267 OA
ATOM      6  C   UNL d   1     -41.127-123.468 -53.819  0.00  0.00     0.083 A 
ATOM      7  C   UNL d   1     -42.118-121.573 -54.252  0.00  0.00     0.018 A 
ATOM      8  C   UNL d   1     -41.127-123.817 -54.567  0.00  0.00     0.019 A 
ATOM      9  C   UNL d   1     -41.458-123.419 -55.209  0.00  0.00     0.003 A 
ATOM     10  C   UNL d   1     -42.119-122.272 -55.746  0.00  0.00     0.001 A 
ATOM     11  C   UNL d   1     -42.449-121.174 -54.894  0.00  0.00     0.002 A 
ATOM     12  C   UNL d   1     -42.449-121.524 -55.641  0.00  0.00     0.000 A 
ENDROOT
BRANCH   3  13
ATOM     13  C   UNL d   1     -41.126-122.769 -52.325  0.00  0.00     0.063 C 
BRANCH  13  14
ATOM     14  C   UNL d   1     -41.281-122.512 -51.555  0.00  0.00     0.032 C 
BRANCH  14  15
ATOM     15  C   UNL d   1     -41.347-123.061 -50.944  0.00  0.00     0.123 C 
BRANCH  15  16
ATOM     16  O   UNL d   1     -42.018-123.062 -50.461  0.00  0.00    -0.305 OA
BRANCH  16  17
ATOM     17  C   UNL d   1     -41.954-123.277 -49.668  0.00  0.00     0.100 A 
ATOM     18  C   UNL d   1     -42.634-123.440 -49.229  0.00  0.00     0.023 A 
ATOM     19  C   UNL d   1     -42.570-123.655 -48.435  0.00  0.00     0.002 A 
ATOM     20  C   UNL d   1     -43.375-123.390 -49.584  0.00  0.00     0.002 C 
ATOM     21  C   UNL d   1     -43.246-123.816 -48.004  0.00  0.00     0.000 C 
ATOM     22  C   UNL d   1     -41.828-123.706 -48.080  0.00  0.00     0.000 A 
ATOM     23  C   UNL d   1     -41.149-123.542 -48.518  0.00  0.00     0.002 A 
ATOM     24  C   UNL d   1     -41.212-123.327 -49.313  0.00  0.00     0.025 A 
ENDBRANCH  16  17
ENDBRANCH  15  16
ENDBRANCH  14  15
ENDBRANCH  13  14
ENDBRANCH   3  13
TORSDOF 5
ENDMDL
