MODEL 1
REMARK VINA RESULT:      -3.3      0.000      0.000
REMARK  4 active torsions:
REMARK  status: ('A' for Active; 'I' for Inactive)
REMARK    1  A    between atoms: N_4  and  S_1 
REMARK    2  A    between atoms: C_6  and  S_1 
REMARK    3  A    between atoms: N_3  and  C_2 
REMARK    4  A    between atoms: C_7  and  N_4 
ROOT
ATOM      1  S   UNL d   1      31.746  16.639 -23.843  0.00  0.00     0.285 S 
ATOM      2  O   UNL d   1      31.649  16.640 -24.688  0.00  0.00    -0.198 OA
ATOM      3  O   UNL d   1      31.879  16.652 -23.017  0.00  0.00    -0.198 OA
ENDROOT
BRANCH   1   4
ATOM      4  N   UNL d   1      32.540  16.928 -23.947  0.00  0.00    -0.158 NA
BRANCH   4   5
ATOM      5  C   UNL d   1      32.718  17.737 -23.808  0.00  0.00     0.094 A 
ATOM      6  C   UNL d   1      32.874  17.978 -23.024  0.00  0.00     0.023 A 
ATOM      7  C   UNL d   1      33.052  18.788 -22.884  0.00  0.00     0.044 A 
ATOM      8  C   UNL d   1      33.062  19.308 -23.538  0.00  0.00     0.196 A 
ATOM      9  C   UNL d   1      32.908  19.063 -24.301  0.00  0.00     0.044 A 
ATOM     10  O   UNL d   1      33.241  20.123 -23.398  0.00  0.00    -0.287 OA
ATOM     11  C   UNL d   1      32.730  18.253 -24.440  0.00  0.00     0.023 A 
ENDBRANCH   4   5
ENDBRANCH   1   4
BRANCH   1  12
ATOM     12  C   UNL d   1      30.973  16.357 -23.736  0.00  0.00     0.107 A 
ATOM     13  C   UNL d   1      30.361  16.715 -24.157  0.00  0.00     0.037 A 
ATOM     14  C   UNL d   1      29.594  16.433 -24.049  0.00  0.00     0.138 A 
ATOM     15  C   UNL d   1      29.444  15.817 -23.539  0.00  0.00     0.080 A 
ATOM     16  C   UNL d   1      30.056  15.459 -23.118  0.00  0.00     0.014 A 
ATOM     17 CL   UNL d   1      28.666  15.536 -23.433  0.00  0.00    -0.081 Cl
ATOM     18  C   UNL d   1      30.823  15.742 -23.226  0.00  0.00     0.014 A 
BRANCH  14  19
ATOM     19  N   UNL d   1      28.970  16.791 -24.472  0.00  0.00    -0.113 N 
ATOM     20  O   UNL d   1      28.700  17.540 -24.261  0.00  0.00    -0.532 OA
ATOM     21  O   UNL d   1      28.623  16.407 -25.096  0.00  0.00    -0.532 OA
ENDBRANCH  14  19
ENDBRANCH   1  12
TORSDOF 4
ENDMDL
MODEL 2
REMARK VINA RESULT:      -3.1      0.768      1.189
REMARK  4 active torsions:
REMARK  status: ('A' for Active; 'I' for Inactive)
REMARK    1  A    between atoms: N_4  and  S_1 
REMARK    2  A    between atoms: C_6  and  S_1 
REMARK    3  A    between atoms: N_3  and  C_2 
REMARK    4  A    between atoms: C_7  and  N_4 
ROOT
ATOM      1  S   UNL d   1      31.911  16.632 -24.068  0.00  0.00     0.285 S 
ATOM      2  O   UNL d   1      31.699  16.479 -23.258  0.00  0.00    -0.198 OA
ATOM      3  O   UNL d   1      32.157  16.795 -24.851  0.00  0.00    -0.198 OA
ENDROOT
BRANCH   1   4
ATOM      4  N   UNL d   1      32.678  16.891 -23.804  0.00  0.00    -0.158 NA
BRANCH   4   5
ATOM      5  C   UNL d   1      32.816  17.703 -23.635  0.00  0.00     0.094 A 
ATOM      6  C   UNL d   1      32.925  18.226 -24.277  0.00  0.00     0.023 A 
ATOM      7  C   UNL d   1      33.062  19.039 -24.108  0.00  0.00     0.044 A 
ATOM      8  C   UNL d   1      33.082  19.278 -23.308  0.00  0.00     0.196 A 
ATOM      9  C   UNL d   1      32.975  18.759 -22.688  0.00  0.00     0.044 A 
ATOM     10  O   UNL d   1      33.221  20.095 -23.139  0.00  0.00    -0.287 OA
ATOM     11  C   UNL d   1      32.837  17.946 -22.857  0.00  0.00     0.023 A 
ENDBRANCH   4   5
ENDBRANCH   1   4
BRANCH   1  12
ATOM     12  C   UNL d   1      31.166  16.380 -24.330  0.00  0.00     0.107 A 
ATOM     13  C   UNL d   1      30.499  16.794 -24.079  0.00  0.00     0.037 A 
ATOM     14  C   UNL d   1      29.759  16.542 -24.341  0.00  0.00     0.138 A 
ATOM     15  C   UNL d   1      29.689  15.900 -24.834  0.00  0.00     0.080 A 
ATOM     16  C   UNL d   1      30.356  15.485 -25.086  0.00  0.00     0.014 A 
ATOM     17 CL   UNL d   1      28.937  15.648 -25.097  0.00  0.00    -0.081 Cl
ATOM     18  C   UNL d   1      31.096  15.738 -24.824  0.00  0.00     0.014 A 
BRANCH  14  19
ATOM     19  N   UNL d   1      29.080  16.957 -24.090  0.00  0.00    -0.113 N 
ATOM     20  O   UNL d   1      28.611  16.660 -23.480  0.00  0.00    -0.532 OA
ATOM     21  O   UNL d   1      28.873  17.658 -24.442  0.00  0.00    -0.532 OA
ENDBRANCH  14  19
ENDBRANCH   1  12
TORSDOF 4
ENDMDL
MODEL 3
REMARK VINA RESULT:      -2.5      1.732      4.111
REMARK  4 active torsions:
REMARK  status: ('A' for Active; 'I' for Inactive)
REMARK    1  A    between atoms: N_4  and  S_1 
REMARK    2  A    between atoms: C_6  and  S_1 
REMARK    3  A    between atoms: N_3  and  C_2 
REMARK    4  A    between atoms: C_7  and  N_4 
ROOT
ATOM      1  S   UNL d   1      31.252  16.648 -24.391  0.00  0.00     0.285 S 
ATOM      2  O   UNL d   1      30.870  16.934 -25.096  0.00  0.00    -0.198 OA
ATOM      3  O   UNL d   1      31.602  16.334 -23.700  0.00  0.00    -0.198 OA
ENDROOT
BRANCH   1   4
ATOM      4  N   UNL d   1      30.740  15.967 -24.407  0.00  0.00    -0.158 NA
BRANCH   4   5
ATOM      5  C   UNL d   1      29.954  16.022 -24.118  0.00  0.00     0.094 A 
ATOM      6  C   UNL d   1      29.366  16.325 -24.628  0.00  0.00     0.023 A 
ATOM      7  C   UNL d   1      28.578  16.380 -24.339  0.00  0.00     0.044 A 
ATOM      8  C   UNL d   1      28.426  16.129 -23.557  0.00  0.00     0.196 A 
ATOM      9  C   UNL d   1      29.007  15.835 -23.066  0.00  0.00     0.044 A 
ATOM     10  O   UNL d   1      27.633  16.185 -23.266  0.00  0.00    -0.287 OA
ATOM     11  C   UNL d   1      29.795  15.780 -23.355  0.00  0.00     0.023 A 
ENDBRANCH   4   5
ENDBRANCH   1   4
BRANCH   1  12
ATOM     12  C   UNL d   1      31.752  17.309 -24.372  0.00  0.00     0.107 A 
ATOM     13  C   UNL d   1      32.008  17.590 -23.640  0.00  0.00     0.037 A 
ATOM     14  C   UNL d   1      32.505  18.247 -23.624  0.00  0.00     0.138 A 
ATOM     15  C   UNL d   1      32.737  18.610 -24.313  0.00  0.00     0.080 A 
ATOM     16  C   UNL d   1      32.482  18.330 -25.046  0.00  0.00     0.014 A 
ATOM     17 CL   UNL d   1      33.241  19.276 -24.292  0.00  0.00    -0.081 Cl
ATOM     18  C   UNL d   1      31.985  17.672 -25.061  0.00  0.00     0.014 A 
BRANCH  14  19
ATOM     19  N   UNL d   1      32.767  18.536 -22.886  0.00  0.00    -0.113 N 
ATOM     20  O   UNL d   1      32.546  19.287 -22.630  0.00  0.00    -0.532 OA
ATOM     21  O   UNL d   1      33.241  18.080 -22.412  0.00  0.00    -0.532 OA
ENDBRANCH  14  19
ENDBRANCH   1  12
TORSDOF 4
ENDMDL
MODEL 4
REMARK VINA RESULT:      -2.4      2.850      4.870
REMARK  4 active torsions:
REMARK  status: ('A' for Active; 'I' for Inactive)
REMARK    1  A    between atoms: N_4  and  S_1 
REMARK    2  A    between atoms: C_6  and  S_1 
REMARK    3  A    between atoms: N_3  and  C_2 
REMARK    4  A    between atoms: C_7  and  N_4 
ROOT
ATOM      1  S   UNL d   1      33.155  19.607 -23.255  0.00  0.00     0.285 S 
ATOM      2  O   UNL d   1      33.142  19.935 -24.040  0.00  0.00    -0.198 OA
ATOM      3  O   UNL d   1      33.173  19.247 -22.501  0.00  0.00    -0.198 OA
ENDROOT
BRANCH   1   4
ATOM      4  N   UNL d   1      33.241  18.830 -23.596  0.00  0.00    -0.158 NA
BRANCH   4   5
ATOM      5  C   UNL d   1      32.562  18.376 -23.791  0.00  0.00     0.094 A 
ATOM      6  C   UNL d   1      32.347  17.749 -23.283  0.00  0.00     0.023 A 
ATOM      7  C   UNL d   1      31.667  17.294 -23.478  0.00  0.00     0.044 A 
ATOM      8  C   UNL d   1      31.242  17.495 -24.169  0.00  0.00     0.196 A 
ATOM      9  C   UNL d   1      31.460  18.111 -24.659  0.00  0.00     0.044 A 
ATOM     10  O   UNL d   1      30.558  17.038 -24.365  0.00  0.00    -0.287 OA
ATOM     11  C   UNL d   1      32.140  18.565 -24.464  0.00  0.00     0.023 A 
ENDBRANCH   4   5
ENDBRANCH   1   4
BRANCH   1  12
ATOM     12  C   UNL d   1      33.072  20.360 -22.919  0.00  0.00     0.107 A 
ATOM     13  C   UNL d   1      32.814  20.418 -22.138  0.00  0.00     0.037 A 
ATOM     14  C   UNL d   1      32.732  21.168 -21.807  0.00  0.00     0.138 A 
ATOM     15  C   UNL d   1      32.901  21.835 -22.240  0.00  0.00     0.080 A 
ATOM     16  C   UNL d   1      33.159  21.778 -23.021  0.00  0.00     0.014 A 
ATOM     17 CL   UNL d   1      32.817  22.593 -21.899  0.00  0.00    -0.081 Cl
ATOM     18  C   UNL d   1      33.241  21.027 -23.352  0.00  0.00     0.014 A 
BRANCH  14  19
ATOM     19  N   UNL d   1      32.472  21.233 -21.017  0.00  0.00    -0.113 N 
ATOM     20  O   UNL d   1      33.008  21.398 -20.413  0.00  0.00    -0.532 OA
ATOM     21  O   UNL d   1      31.689  21.133 -20.832  0.00  0.00    -0.532 OA
ENDBRANCH  14  19
ENDBRANCH   1  12
TORSDOF 4
ENDMDL
MODEL 5
REMARK VINA RESULT:      -2.1      2.144      4.319
REMARK  4 active torsions:
REMARK  status: ('A' for Active; 'I' for Inactive)
REMARK    1  A    between atoms: N_4  and  S_1 
REMARK    2  A    between atoms: C_6  and  S_1 
REMARK    3  A    between atoms: N_3  and  C_2 
REMARK    4  A    between atoms: C_7  and  N_4 
ROOT
ATOM      1  S   UNL d   1      32.790  17.938 -23.557  0.00  0.00     0.285 S 
ATOM      2  O   UNL d   1      32.940  17.730 -22.745  0.00  0.00    -0.198 OA
ATOM      3  O   UNL d   1      32.638  18.102 -24.362  0.00  0.00    -0.198 OA
ENDROOT
BRANCH   1   4
ATOM      4  N   UNL d   1      32.677  17.112 -23.733  0.00  0.00    -0.158 NA
BRANCH   4   5
ATOM      5  C   UNL d   1      31.902  16.791 -23.776  0.00  0.00     0.094 A 
ATOM      6  C   UNL d   1      31.708  16.158 -23.267  0.00  0.00     0.023 A 
ATOM      7  C   UNL d   1      30.932  15.836 -23.311  0.00  0.00     0.044 A 
ATOM      8  C   UNL d   1      30.397  16.167 -23.861  0.00  0.00     0.196 A 
ATOM      9  C   UNL d   1      30.597  16.786 -24.354  0.00  0.00     0.044 A 
ATOM     10  O   UNL d   1      29.617  15.844 -23.905  0.00  0.00    -0.287 OA
ATOM     11  C   UNL d   1      31.373  17.107 -24.311  0.00  0.00     0.023 A 
ENDBRANCH   4   5
ENDBRANCH   1   4
BRANCH   1  12
ATOM     12  C   UNL d   1      32.899  18.743 -23.390  0.00  0.00     0.107 A 
ATOM     13  C   UNL d   1      32.767  19.008 -22.621  0.00  0.00     0.037 A 
ATOM     14  C   UNL d   1      32.876  19.808 -22.458  0.00  0.00     0.138 A 
ATOM     15  C   UNL d   1      33.109  20.324 -23.042  0.00  0.00     0.080 A 
ATOM     16  C   UNL d   1      33.241  20.060 -23.812  0.00  0.00     0.014 A 
ATOM     17 CL   UNL d   1      33.218  21.134 -22.872  0.00  0.00    -0.081 Cl
ATOM     18  C   UNL d   1      33.132  19.258 -23.974  0.00  0.00     0.014 A 
BRANCH  14  19
ATOM     19  N   UNL d   1      32.744  20.083 -21.681  0.00  0.00    -0.113 N 
ATOM     20  O   UNL d   1      33.241  19.849 -21.066  0.00  0.00    -0.532 OA
ATOM     21  O   UNL d   1      32.126  20.582 -21.521  0.00  0.00    -0.532 OA
ENDBRANCH  14  19
ENDBRANCH   1  12
TORSDOF 4
ENDMDL
MODEL 6
REMARK VINA RESULT:      -1.5      2.838      4.270
REMARK  4 active torsions:
REMARK  status: ('A' for Active; 'I' for Inactive)
REMARK    1  A    between atoms: N_4  and  S_1 
REMARK    2  A    between atoms: C_6  and  S_1 
REMARK    3  A    between atoms: N_3  and  C_2 
REMARK    4  A    between atoms: C_7  and  N_4 
ROOT
ATOM      1  S   UNL d   1      33.149  19.962 -22.124  0.00  0.00     0.285 S 
ATOM      2  O   UNL d   1      33.061  20.727 -22.486  0.00  0.00    -0.198 OA
ATOM      3  O   UNL d   1      33.241  19.229 -21.731  0.00  0.00    -0.198 OA
ENDROOT
BRANCH   1   4
ATOM      4  N   UNL d   1      33.241  20.345 -21.368  0.00  0.00    -0.158 NA
BRANCH   4   5
ATOM      5  C   UNL d   1      32.863  21.080 -21.218  0.00  0.00     0.094 A 
ATOM      6  C   UNL d   1      32.118  21.071 -20.840  0.00  0.00     0.023 A 
ATOM      7  C   UNL d   1      31.740  21.807 -20.689  0.00  0.00     0.044 A 
ATOM      8  C   UNL d   1      32.129  22.507 -20.926  0.00  0.00     0.196 A 
ATOM      9  C   UNL d   1      32.857  22.505 -21.295  0.00  0.00     0.044 A 
ATOM     10  O   UNL d   1      31.748  23.247 -20.775  0.00  0.00    -0.287 OA
ATOM     11  C   UNL d   1      33.235  21.769 -21.445  0.00  0.00     0.023 A 
ENDBRANCH   4   5
ENDBRANCH   1   4
BRANCH   1  12
ATOM     12  C   UNL d   1      33.061  19.584 -22.857  0.00  0.00     0.107 A 
ATOM     13  C   UNL d   1      32.787  18.807 -22.870  0.00  0.00     0.037 A 
ATOM     14  C   UNL d   1      32.700  18.435 -23.600  0.00  0.00     0.138 A 
ATOM     15  C   UNL d   1      32.879  18.825 -24.291  0.00  0.00     0.080 A 
ATOM     16  C   UNL d   1      33.153  19.603 -24.278  0.00  0.00     0.014 A 
ATOM     17 CL   UNL d   1      32.789  18.443 -25.028  0.00  0.00    -0.081 Cl
ATOM     18  C   UNL d   1      33.240  19.975 -23.547  0.00  0.00     0.014 A 
BRANCH  14  19
ATOM     19  N   UNL d   1      32.424  17.647 -23.620  0.00  0.00    -0.113 N 
ATOM     20  O   UNL d   1      32.865  17.042 -23.277  0.00  0.00    -0.532 OA
ATOM     21  O   UNL d   1      31.718  17.468 -23.976  0.00  0.00    -0.532 OA
ENDBRANCH  14  19
ENDBRANCH   1  12
TORSDOF 4
ENDMDL
