MODEL 1
REMARK VINA RESULT:      -3.1      0.000      0.000
REMARK  2 active torsions:
REMARK  status: ('A' for Active; 'I' for Inactive)
REMARK    1  A    between atoms: C_6  and  C_1 
REMARK    2  A    between atoms: O_12  and  C_9 
ROOT
ATOM      1  C   UNL d   1      29.330  16.555 -24.037  0.00  0.00     0.123 A 
ATOM      2  C   UNL d   1      29.417  17.238 -24.493  0.00  0.00     0.305 A 
ATOM      3  O   UNL d   1      30.152  17.551 -24.614  0.00  0.00    -0.271 OA
ATOM      4  C   UNL d   1      29.980  16.205 -23.715  0.00  0.00     0.012 A 
ATOM      5  C   UNL d   1      30.841  17.196 -24.283  0.00  0.00     0.125 A 
ATOM      6  C   UNL d   1      30.754  16.514 -23.828  0.00  0.00     0.025 A 
ATOM      7  O   UNL d   1      28.768  17.592 -24.818  0.00  0.00    -0.259 OA
ATOM      8  C   UNL d   1      31.598  17.509 -24.401  0.00  0.00     0.117 A 
ATOM      9  C   UNL d   1      31.426  16.163 -23.502  0.00  0.00     0.002 A 
ATOM     10  C   UNL d   1      32.186  16.472 -23.617  0.00  0.00     0.002 A 
ATOM     11  C   UNL d   1      32.273  17.154 -24.072  0.00  0.00     0.026 A 
ENDROOT
BRANCH   1  12
ATOM     12  C   UNL d   1      28.593  16.220 -23.902  0.00  0.00     0.302 C 
ATOM     13  O   UNL d   1      28.071  16.538 -23.316  0.00  0.00    -0.263 OA
ATOM     14  N   UNL d   1      28.378  15.562 -24.356  0.00  0.00    -0.102 N 
ENDBRANCH   1  12
BRANCH   8  15
ATOM     15  O   UNL d   1      31.684  18.184 -24.852  0.00  0.00    -0.326 OA
ATOM     16  C   UNL d   1      32.416  18.509 -24.964  0.00  0.00     0.181 C 
ENDBRANCH   8  15
TORSDOF 2
ENDMDL
MODEL 2
REMARK VINA RESULT:      -2.9      1.704      3.409
REMARK  2 active torsions:
REMARK  status: ('A' for Active; 'I' for Inactive)
REMARK    1  A    between atoms: C_6  and  C_1 
REMARK    2  A    between atoms: O_12  and  C_9 
ROOT
ATOM      1  C   UNL d   1      31.745  16.871 -23.887  0.00  0.00     0.123 A 
ATOM      2  C   UNL d   1      31.465  16.190 -23.514  0.00  0.00     0.305 A 
ATOM      3  O   UNL d   1      30.680  16.003 -23.551  0.00  0.00    -0.271 OA
ATOM      4  C   UNL d   1      31.231  17.346 -24.286  0.00  0.00     0.012 A 
ATOM      5  C   UNL d   1      30.131  16.491 -23.965  0.00  0.00     0.125 A 
ATOM      6  C   UNL d   1      30.411  17.172 -24.337  0.00  0.00     0.025 A 
ATOM      7  O   UNL d   1      31.976  15.710 -23.113  0.00  0.00    -0.259 OA
ATOM      8  C   UNL d   1      29.325  16.309 -24.008  0.00  0.00     0.117 A 
ATOM      9  C   UNL d   1      29.877  17.652 -24.744  0.00  0.00     0.002 A 
ATOM     10  C   UNL d   1      29.069  17.475 -24.791  0.00  0.00     0.002 A 
ATOM     11  C   UNL d   1      28.790  16.794 -24.418  0.00  0.00     0.026 A 
ENDROOT
BRANCH   1  12
ATOM     12  C   UNL d   1      32.538  17.079 -23.862  0.00  0.00     0.302 C 
ATOM     13  O   UNL d   1      33.080  16.805 -24.453  0.00  0.00    -0.263 OA
ATOM     14  N   UNL d   1      32.791  17.567 -23.242  0.00  0.00    -0.102 N 
ENDBRANCH   1  12
BRANCH   8  15
ATOM     15  O   UNL d   1      29.049  15.636 -23.639  0.00  0.00    -0.326 OA
ATOM     16  C   UNL d   1      28.260  15.453 -23.661  0.00  0.00     0.181 C 
ENDBRANCH   8  15
TORSDOF 2
ENDMDL
MODEL 3
REMARK VINA RESULT:      -2.6      1.855      2.637
REMARK  2 active torsions:
REMARK  status: ('A' for Active; 'I' for Inactive)
REMARK    1  A    between atoms: C_6  and  C_1 
REMARK    2  A    between atoms: O_12  and  C_9 
ROOT
ATOM      1  C   UNL d   1      31.480  16.760 -24.434  0.00  0.00     0.123 A 
ATOM      2  C   UNL d   1      31.606  16.733 -23.620  0.00  0.00     0.305 A 
ATOM      3  O   UNL d   1      32.038  17.312 -23.258  0.00  0.00    -0.271 OA
ATOM      4  C   UNL d   1      31.790  17.366 -24.866  0.00  0.00     0.012 A 
ATOM      5  C   UNL d   1      32.368  17.952 -23.696  0.00  0.00     0.125 A 
ATOM      6  C   UNL d   1      32.243  17.979 -24.511  0.00  0.00     0.025 A 
ATOM      7  O   UNL d   1      31.297  16.128 -23.183  0.00  0.00    -0.259 OA
ATOM      8  C   UNL d   1      32.812  18.550 -23.336  0.00  0.00     0.117 A 
ATOM      9  C   UNL d   1      32.564  18.604 -24.944  0.00  0.00     0.002 A 
ATOM     10  C   UNL d   1      33.009  19.205 -24.588  0.00  0.00     0.002 A 
ATOM     11  C   UNL d   1      33.135  19.178 -23.773  0.00  0.00     0.026 A 
ENDROOT
BRANCH   1  12
ATOM     12  C   UNL d   1      31.045  16.183 -24.822  0.00  0.00     0.302 C 
ATOM     13  O   UNL d   1      31.412  15.470 -25.097  0.00  0.00    -0.263 OA
ATOM     14  N   UNL d   1      30.236  16.319 -24.935  0.00  0.00    -0.102 N 
ENDBRANCH   1  12
BRANCH   8  15
ATOM     15  O   UNL d   1      32.936  18.523 -22.530  0.00  0.00    -0.326 OA
ATOM     16  C   UNL d   1      33.240  19.165 -22.142  0.00  0.00     0.181 C 
ENDBRANCH   8  15
TORSDOF 2
ENDMDL
MODEL 4
REMARK VINA RESULT:      -2.3      5.326      6.319
REMARK  2 active torsions:
REMARK  status: ('A' for Active; 'I' for Inactive)
REMARK    1  A    between atoms: C_6  and  C_1 
REMARK    2  A    between atoms: O_12  and  C_9 
ROOT
ATOM      1  C   UNL d   1      32.695  22.537 -20.974  0.00  0.00     0.123 A 
ATOM      2  C   UNL d   1      32.716  22.600 -21.797  0.00  0.00     0.305 A 
ATOM      3  O   UNL d   1      32.853  21.945 -22.249  0.00  0.00    -0.271 OA
ATOM      4  C   UNL d   1      32.812  21.819 -20.627  0.00  0.00     0.012 A 
ATOM      5  C   UNL d   1      32.977  21.188 -21.900  0.00  0.00     0.125 A 
ATOM      6  C   UNL d   1      32.956  21.124 -21.077  0.00  0.00     0.025 A 
ATOM      7  O   UNL d   1      32.599  23.317 -22.149  0.00  0.00    -0.259 OA
ATOM      8  C   UNL d   1      33.118  20.511 -22.354  0.00  0.00     0.117 A 
ATOM      9  C   UNL d   1      33.077  20.385 -20.731  0.00  0.00     0.002 A 
ATOM     10  C   UNL d   1      33.219  19.704 -21.181  0.00  0.00     0.002 A 
ATOM     11  C   UNL d   1      33.240  19.768 -22.003  0.00  0.00     0.026 A 
ENDROOT
BRANCH   1  12
ATOM     12  C   UNL d   1      32.557  23.189 -20.496  0.00  0.00     0.302 C 
ATOM     13  O   UNL d   1      31.821  23.606 -20.529  0.00  0.00    -0.263 OA
ATOM     14  N   UNL d   1      33.161  23.425 -19.980  0.00  0.00    -0.102 N 
ENDBRANCH   1  12
BRANCH   8  15
ATOM     15  O   UNL d   1      33.139  20.574 -23.167  0.00  0.00    -0.326 OA
ATOM     16  C   UNL d   1      33.228  19.913 -23.626  0.00  0.00     0.181 C 
ENDBRANCH   8  15
TORSDOF 2
ENDMDL
MODEL 5
REMARK VINA RESULT:      -2.3      1.495      3.070
REMARK  2 active torsions:
REMARK  status: ('A' for Active; 'I' for Inactive)
REMARK    1  A    between atoms: C_6  and  C_1 
REMARK    2  A    between atoms: O_12  and  C_9 
ROOT
ATOM      1  C   UNL d   1      32.040  17.201 -24.181  0.00  0.00     0.123 A 
ATOM      2  C   UNL d   1      31.447  17.591 -24.602  0.00  0.00     0.305 A 
ATOM      3  O   UNL d   1      30.677  17.358 -24.526  0.00  0.00    -0.271 OA
ATOM      4  C   UNL d   1      31.847  16.589 -23.694  0.00  0.00     0.012 A 
ATOM      5  C   UNL d   1      30.460  16.719 -24.020  0.00  0.00     0.125 A 
ATOM      6  C   UNL d   1      31.053  16.329 -23.598  0.00  0.00     0.025 A 
ATOM      7  O   UNL d   1      31.636  18.205 -25.092  0.00  0.00    -0.259 OA
ATOM      8  C   UNL d   1      29.675  16.472 -23.934  0.00  0.00     0.117 A 
ATOM      9  C   UNL d   1      30.845  15.704 -23.103  0.00  0.00     0.002 A 
ATOM     10  C   UNL d   1      30.061  15.453 -23.013  0.00  0.00     0.002 A 
ATOM     11  C   UNL d   1      29.468  15.842 -23.434  0.00  0.00     0.026 A 
ENDROOT
BRANCH   1  12
ATOM     12  C   UNL d   1      32.828  17.422 -24.244  0.00  0.00     0.302 C 
ATOM     13  O   UNL d   1      33.219  17.828 -23.612  0.00  0.00    -0.263 OA
ATOM     14  N   UNL d   1      33.227  17.234 -24.945  0.00  0.00    -0.102 N 
ENDBRANCH   1  12
BRANCH   8  15
ATOM     15  O   UNL d   1      29.089  16.857 -24.351  0.00  0.00    -0.326 OA
ATOM     16  C   UNL d   1      28.351  16.531 -24.412  0.00  0.00     0.181 C 
ENDBRANCH   8  15
TORSDOF 2
ENDMDL
MODEL 6
REMARK VINA RESULT:      -2.1      5.635      6.694
REMARK  2 active torsions:
REMARK  status: ('A' for Active; 'I' for Inactive)
REMARK    1  A    between atoms: C_6  and  C_1 
REMARK    2  A    between atoms: O_12  and  C_9 
ROOT
ATOM      1  C   UNL d   1      32.813  20.903 -21.764  0.00  0.00     0.123 A 
ATOM      2  C   UNL d   1      32.979  20.791 -20.964  0.00  0.00     0.305 A 
ATOM      3  O   UNL d   1      32.915  21.409 -20.448  0.00  0.00    -0.271 OA
ATOM      4  C   UNL d   1      32.588  21.630 -22.027  0.00  0.00     0.012 A 
ATOM      5  C   UNL d   1      32.680  22.176 -20.708  0.00  0.00     0.125 A 
ATOM      6  C   UNL d   1      32.514  22.288 -21.509  0.00  0.00     0.025 A 
ATOM      7  O   UNL d   1      33.205  20.064 -20.696  0.00  0.00    -0.259 OA
ATOM      8  C   UNL d   1      32.611  22.816 -20.188  0.00  0.00     0.117 A 
ATOM      9  C   UNL d   1      32.284  23.037 -21.768  0.00  0.00     0.002 A 
ATOM     10  C   UNL d   1      32.213  23.681 -21.252  0.00  0.00     0.002 A 
ATOM     11  C   UNL d   1      32.379  23.569 -20.451  0.00  0.00     0.026 A 
ENDROOT
BRANCH   1  12
ATOM     12  C   UNL d   1      32.872  20.289 -22.306  0.00  0.00     0.302 C 
ATOM     13  O   UNL d   1      32.568  19.519 -22.126  0.00  0.00    -0.263 OA
ATOM     14  N   UNL d   1      33.238  20.447 -23.031  0.00  0.00    -0.102 N 
ENDBRANCH   1  12
BRANCH   8  15
ATOM     15  O   UNL d   1      32.774  22.705 -19.397  0.00  0.00    -0.326 OA
ATOM     16  C   UNL d   1      32.569  23.270 -18.855  0.00  0.00     0.181 C 
ENDBRANCH   8  15
TORSDOF 2
ENDMDL
MODEL 7
REMARK VINA RESULT:      -2.0      2.510      3.473
REMARK  2 active torsions:
REMARK  status: ('A' for Active; 'I' for Inactive)
REMARK    1  A    between atoms: C_6  and  C_1 
REMARK    2  A    between atoms: O_12  and  C_9 
ROOT
ATOM      1  C   UNL d   1      32.572  17.598 -23.662  0.00  0.00     0.123 A 
ATOM      2  C   UNL d   1      32.620  18.014 -24.373  0.00  0.00     0.305 A 
ATOM      3  O   UNL d   1      32.793  18.803 -24.368  0.00  0.00    -0.271 OA
ATOM      4  C   UNL d   1      32.697  17.982 -22.966  0.00  0.00     0.012 A 
ATOM      5  C   UNL d   1      32.927  19.219 -23.646  0.00  0.00     0.125 A 
ATOM      6  C   UNL d   1      32.878  18.802 -22.936  0.00  0.00     0.025 A 
ATOM      7  O   UNL d   1      32.496  17.633 -25.074  0.00  0.00    -0.259 OA
ATOM      8  C   UNL d   1      33.105  20.027 -23.630  0.00  0.00     0.117 A 
ATOM      9  C   UNL d   1      33.008  19.205 -22.228  0.00  0.00     0.002 A 
ATOM     10  C   UNL d   1      33.187  20.014 -22.205  0.00  0.00     0.002 A 
ATOM     11  C   UNL d   1      33.235  20.430 -22.916  0.00  0.00     0.026 A 
ENDROOT
BRANCH   1  12
ATOM     12  C   UNL d   1      32.397  16.796 -23.645  0.00  0.00     0.302 C 
ATOM     13  O   UNL d   1      31.596  16.523 -23.681  0.00  0.00    -0.263 OA
ATOM     14  N   UNL d   1      33.030  16.264 -23.591  0.00  0.00    -0.102 N 
ENDBRANCH   1  12
BRANCH   8  15
ATOM     15  O   UNL d   1      33.153  20.438 -24.333  0.00  0.00    -0.326 OA
ATOM     16  C   UNL d   1      33.239  21.243 -24.330  0.00  0.00     0.181 C 
ENDBRANCH   8  15
TORSDOF 2
ENDMDL
MODEL 8
REMARK VINA RESULT:      -1.8      5.834      6.578
REMARK  2 active torsions:
REMARK  status: ('A' for Active; 'I' for Inactive)
REMARK    1  A    between atoms: C_6  and  C_1 
REMARK    2  A    between atoms: O_12  and  C_9 
ROOT
ATOM      1  C   UNL d   1      32.712  22.202 -21.330  0.00  0.00     0.123 A 
ATOM      2  C   UNL d   1      32.788  21.497 -21.751  0.00  0.00     0.305 A 
ATOM      3  O   UNL d   1      32.936  21.515 -22.546  0.00  0.00    -0.271 OA
ATOM      4  C   UNL d   1      32.784  22.907 -21.714  0.00  0.00     0.012 A 
ATOM      5  C   UNL d   1      33.014  22.245 -22.961  0.00  0.00     0.125 A 
ATOM      6  C   UNL d   1      32.937  22.950 -22.539  0.00  0.00     0.025 A 
ATOM      7  O   UNL d   1      32.717  20.789 -21.371  0.00  0.00    -0.259 OA
ATOM      8  C   UNL d   1      33.165  22.275 -23.774  0.00  0.00     0.117 A 
ATOM      9  C   UNL d   1      33.013  23.666 -22.942  0.00  0.00     0.002 A 
ATOM     10  C   UNL d   1      33.164  23.702 -23.755  0.00  0.00     0.002 A 
ATOM     11  C   UNL d   1      33.241  22.997 -24.177  0.00  0.00     0.026 A 
ENDROOT
BRANCH   1  12
ATOM     12  C   UNL d   1      32.562  22.206 -20.523  0.00  0.00     0.302 C 
ATOM     13  O   UNL d   1      31.774  22.116 -20.224  0.00  0.00    -0.263 OA
ATOM     14  N   UNL d   1      33.206  22.302 -20.011  0.00  0.00    -0.102 N 
ENDBRANCH   1  12
BRANCH   8  15
ATOM     15  O   UNL d   1      33.241  21.578 -24.191  0.00  0.00    -0.326 OA
ATOM     16  C   UNL d   1      33.224  21.582 -25.000  0.00  0.00     0.181 C 
ENDBRANCH   8  15
TORSDOF 2
ENDMDL
MODEL 9
REMARK VINA RESULT:      -1.4      4.105      5.229
REMARK  2 active torsions:
REMARK  status: ('A' for Active; 'I' for Inactive)
REMARK    1  A    between atoms: C_6  and  C_1 
REMARK    2  A    between atoms: O_12  and  C_9 
ROOT
ATOM      1  C   UNL d   1      33.120  19.461 -22.733  0.00  0.00     0.123 A 
ATOM      2  C   UNL d   1      33.189  20.076 -23.279  0.00  0.00     0.305 A 
ATOM      3  O   UNL d   1      33.206  20.843 -23.025  0.00  0.00    -0.271 OA
ATOM      4  C   UNL d   1      33.071  19.631 -21.946  0.00  0.00     0.012 A 
ATOM      5  C   UNL d   1      33.156  21.035 -22.206  0.00  0.00     0.125 A 
ATOM      6  C   UNL d   1      33.087  20.421 -21.659  0.00  0.00     0.025 A 
ATOM      7  O   UNL d   1      33.239  19.911 -24.068  0.00  0.00    -0.259 OA
ATOM      8  C   UNL d   1      33.173  21.816 -21.935  0.00  0.00     0.117 A 
ATOM      9  C   UNL d   1      33.037  20.604 -20.856  0.00  0.00     0.002 A 
ATOM     10  C   UNL d   1      33.054  21.385 -20.579  0.00  0.00     0.002 A 
ATOM     11  C   UNL d   1      33.123  21.999 -21.126  0.00  0.00     0.026 A 
ENDROOT
BRANCH   1  12
ATOM     12  C   UNL d   1      33.100  18.676 -22.969  0.00  0.00     0.302 C 
ATOM     13  O   UNL d   1      32.942  18.057 -22.413  0.00  0.00    -0.263 OA
ATOM     14  N   UNL d   1      33.240  18.509 -23.768  0.00  0.00    -0.102 N 
ENDBRANCH   1  12
BRANCH   8  15
ATOM     15  O   UNL d   1      33.241  22.424 -22.475  0.00  0.00    -0.326 OA
ATOM     16  C   UNL d   1      33.241  23.194 -22.226  0.00  0.00     0.181 C 
ENDBRANCH   8  15
TORSDOF 2
ENDMDL
