MODEL 1
REMARK VINA RESULT:      38.9      0.000      0.000
REMARK  6 active torsions:
REMARK  status: ('A' for Active; 'I' for Inactive)
REMARK    1  A    between atoms: N_3  and  C_1 
REMARK       I    between atoms: C_4  and  N_3 
REMARK       I    between atoms: N_10  and  C_4 
REMARK    2  A    between atoms: C_7  and  C_5 
REMARK    3  A    between atoms: C_9  and  C_7 
REMARK       I    between atoms: N_12  and  C_9 
REMARK    4  A    between atoms: C_14  and  N_10 
REMARK    5  A    between atoms: C_19  and  N_12 
REMARK    6  A    between atoms: C_17  and  C_19 
ROOT
ATOM      1  C   UNL d   1      13.103  13.683  -4.135  0.00  0.00     0.199 A 
ATOM      2  N   UNL d   1      13.444  13.226  -3.536  0.00  0.00    -0.220 NA
ATOM      3  C   UNL d   1      13.324  12.436  -3.726  0.00  0.00     0.095 A 
ATOM      4  S   UNL d   1      12.777  13.187  -4.686  0.00  0.00    -0.046 SA
ATOM      5  C   UNL d   1      12.909  12.411  -4.441  0.00  0.00     0.058 A 
ENDROOT
BRANCH   1   6
ATOM      6  N   UNL d   1      13.093  14.520  -4.172  0.00  0.00    -0.166 NA
ATOM      7  C   UNL d   1      13.713  14.959  -3.825  0.00  0.00     0.370 C 
ATOM      8  N   UNL d   1      13.712  15.786  -3.856  0.00  0.00    -0.191 NA
ATOM      9  O   UNL d   1      14.339  14.567  -3.445  0.00  0.00    -0.242 OA
BRANCH   8  10
ATOM     10  C   UNL d   1      14.317  16.223  -3.518  0.00  0.00     0.087 A 
ATOM     11  C   UNL d   1      14.436  16.220  -2.703  0.00  0.00     0.031 A 
ATOM     12  C   UNL d   1      15.035  16.652  -2.365  0.00  0.00     0.059 A 
ATOM     13 CL   UNL d   1      15.149  16.644  -1.544  0.00  0.00    -0.082 Cl
ATOM     14  C   UNL d   1      15.538  17.107  -2.851  0.00  0.00     0.011 A 
ATOM     15  C   UNL d   1      15.419  17.110  -3.666  0.00  0.00     0.002 A 
ATOM     16  C   UNL d   1      14.808  16.668  -4.002  0.00  0.00     0.019 A 
ENDBRANCH   8  10
ENDBRANCH   1   6
BRANCH   3  17
ATOM     17  C   UNL d   1      13.575  11.783  -3.278  0.00  0.00     0.082 C 
BRANCH  17  18
ATOM     18  C   UNL d   1      13.585  11.816  -2.439  0.00  0.00     0.281 C 
ATOM     19  N   UNL d   1      14.299  11.817  -2.025  0.00  0.00    -0.205 NA
ATOM     20  O   UNL d   1      12.865  11.849  -2.038  0.00  0.00    -0.265 OA
BRANCH  19  21
ATOM     21  C   UNL d   1      14.299  11.850  -1.205  0.00  0.00     0.121 C 
BRANCH  21  22
ATOM     22  C   UNL d   1      14.630  12.476  -0.816  0.00  0.00     0.101 A 
ATOM     23  N   UNL d   1      15.462  12.575  -0.807  0.00  0.00    -0.242 NA
ATOM     24  C   UNL d   1      15.791  13.216  -0.407  0.00  0.00     0.099 A 
ATOM     25  C   UNL d   1      15.312  13.760  -0.017  0.00  0.00     0.021 A 
ATOM     26  C   UNL d   1      14.491  13.663  -0.025  0.00  0.00     0.003 A 
ATOM     27  C   UNL d   1      14.160  13.017  -0.428  0.00  0.00     0.021 A 
ENDBRANCH  21  22
ENDBRANCH  19  21
ENDBRANCH  17  18
ENDBRANCH   3  17
TORSDOF 6
ENDMDL
MODEL 2
REMARK VINA RESULT:      40.1      1.713      3.683
REMARK  6 active torsions:
REMARK  status: ('A' for Active; 'I' for Inactive)
REMARK    1  A    between atoms: N_3  and  C_1 
REMARK       I    between atoms: C_4  and  N_3 
REMARK       I    between atoms: N_10  and  C_4 
REMARK    2  A    between atoms: C_7  and  C_5 
REMARK    3  A    between atoms: C_9  and  C_7 
REMARK       I    between atoms: N_12  and  C_9 
REMARK    4  A    between atoms: C_14  and  N_10 
REMARK    5  A    between atoms: C_19  and  N_12 
REMARK    6  A    between atoms: C_17  and  C_19 
ROOT
ATOM      1  C   UNL d   1      14.311  15.927  -3.563  0.00  0.00     0.199 A 
ATOM      2  N   UNL d   1      14.409  15.916  -2.742  0.00  0.00    -0.220 NA
ATOM      3  C   UNL d   1      15.043  16.406  -2.560  0.00  0.00     0.095 A 
ATOM      4  S   UNL d   1      14.872  16.413  -3.885  0.00  0.00    -0.046 SA
ATOM      5  C   UNL d   1      15.331  16.715  -3.271  0.00  0.00     0.058 A 
ENDROOT
BRANCH   1   6
ATOM      6  N   UNL d   1      13.729  15.507  -3.995  0.00  0.00    -0.166 NA
ATOM      7  C   UNL d   1      13.720  14.672  -3.977  0.00  0.00     0.370 C 
ATOM      8  N   UNL d   1      13.150  14.247  -4.400  0.00  0.00    -0.191 NA
ATOM      9  O   UNL d   1      14.286  14.258  -3.530  0.00  0.00    -0.242 OA
BRANCH   8  10
ATOM     10  C   UNL d   1      13.134  13.428  -4.387  0.00  0.00     0.087 A 
ATOM     11  C   UNL d   1      13.128  13.018  -3.673  0.00  0.00     0.031 A 
ATOM     12  C   UNL d   1      13.112  12.206  -3.655  0.00  0.00     0.059 A 
ATOM     13 CL   UNL d   1      13.106  11.800  -2.933  0.00  0.00    -0.082 Cl
ATOM     14  C   UNL d   1      13.104  11.780  -4.373  0.00  0.00     0.011 A 
ATOM     15  C   UNL d   1      13.111  12.191  -5.088  0.00  0.00     0.002 A 
ATOM     16  C   UNL d   1      13.126  13.016  -5.096  0.00  0.00     0.019 A 
ENDBRANCH   8  10
ENDBRANCH   1   6
BRANCH   3  17
ATOM     17  C   UNL d   1      15.338  16.561  -1.799  0.00  0.00     0.082 C 
BRANCH  17  18
ATOM     18  C   UNL d   1      15.014  16.176  -1.127  0.00  0.00     0.281 C 
ATOM     19  N   UNL d   1      15.376  15.507  -0.807  0.00  0.00    -0.205 NA
ATOM     20  O   UNL d   1      14.323  16.482  -0.794  0.00  0.00    -0.265 OA
BRANCH  19  21
ATOM     21  C   UNL d   1      15.051  15.138  -0.150  0.00  0.00     0.121 C 
BRANCH  21  22
ATOM     22  C   UNL d   1      14.975  14.334  -0.122  0.00  0.00     0.101 A 
ATOM     23  N   UNL d   1      14.216  13.984  -0.058  0.00  0.00    -0.242 NA
ATOM     24  C   UNL d   1      14.149  13.164  -0.030  0.00  0.00     0.099 A 
ATOM     25  C   UNL d   1      14.817  12.684  -0.064  0.00  0.00     0.021 A 
ATOM     26  C   UNL d   1      15.566  13.028  -0.126  0.00  0.00     0.003 A 
ATOM     27  C   UNL d   1      15.634  13.856  -0.154  0.00  0.00     0.021 A 
ENDBRANCH  21  22
ENDBRANCH  19  21
ENDBRANCH  17  18
ENDBRANCH   3  17
TORSDOF 6
ENDMDL
