MODEL 1
REMARK VINA RESULT:      -8.3      0.000      0.000
REMARK  2 active torsions:
REMARK  status: ('A' for Active; 'I' for Inactive)
REMARK    1  A    between atoms: C_2  and  S_1 
REMARK    2  A    between atoms: N_3  and  S_1 
ROOT
ATOM      1  S   UNL d   1     -48.711  13.758  22.949  0.00  0.00     0.272 S 
ATOM      2  O   UNL d   1     -48.701  13.025  23.326  0.00  0.00    -0.200 OA
ATOM      3  O   UNL d   1     -48.004  14.084  22.668  0.00  0.00    -0.200 OA
ENDROOT
BRANCH   1   4
ATOM      4  C   UNL d   1     -47.999  13.353  23.044  0.00  0.00     0.115 A 
ATOM      5  C   UNL d   1     -47.295  13.730  22.873  0.00  0.00     0.071 A 
ATOM      6  C   UNL d   1     -46.583  13.333  22.964  0.00  0.00     0.024 A 
ATOM      7 CL   UNL d   1     -47.279  14.511  22.606  0.00  0.00    -0.082 Cl
ATOM      8  C   UNL d   1     -46.578  12.549  23.231  0.00  0.00     0.059 A 
ATOM      9  C   UNL d   1     -47.294  12.176  23.402  0.00  0.00     0.011 A 
ATOM     10 CL   UNL d   1     -45.864  12.148  23.324  0.00  0.00    -0.082 Cl
ATOM     11  C   UNL d   1     -48.005  12.575  23.309  0.00  0.00     0.015 A 
ATOM     12  C   UNL d   1     -47.286  11.394  23.667  0.00  0.00     0.001 C 
ENDBRANCH   1   4
BRANCH   1  13
ATOM     13  N   UNL d   1     -49.420  14.166  22.853  0.00  0.00    -0.229 N 
ATOM     14  C   UNL d   1     -49.850  13.928  22.155  0.00  0.00     0.092 A 
ATOM     15  C   UNL d   1     -50.475  14.127  21.858  0.00  0.00     0.020 A 
ATOM     16  C   UNL d   1     -51.000  14.704  22.151  0.00  0.00     0.002 A 
ATOM     17  C   UNL d   1     -50.892  15.182  22.877  0.00  0.00     0.002 A 
ATOM     18  C   UNL d   1     -50.219  15.161  23.452  0.00  0.00     0.020 A 
ATOM     19  C   UNL d   1     -49.541  14.660  23.397  0.00  0.00     0.092 A 
ENDBRANCH   1  13
TORSDOF 2
ENDMDL
MODEL 2
REMARK VINA RESULT:      -8.3      0.699      1.479
REMARK  2 active torsions:
REMARK  status: ('A' for Active; 'I' for Inactive)
REMARK    1  A    between atoms: C_2  and  S_1 
REMARK    2  A    between atoms: N_3  and  S_1 
ROOT
ATOM      1  S   UNL d   1     -48.697  13.693  22.863  0.00  0.00     0.272 S 
ATOM      2  O   UNL d   1     -48.003  13.971  22.518  0.00  0.00    -0.200 OA
ATOM      3  O   UNL d   1     -48.682  12.998  23.312  0.00  0.00    -0.200 OA
ENDROOT
BRANCH   1   4
ATOM      4  C   UNL d   1     -47.992  13.279  22.966  0.00  0.00     0.115 A 
ATOM      5  C   UNL d   1     -48.002  12.551  23.336  0.00  0.00     0.071 A 
ATOM      6  C   UNL d   1     -47.304  12.134  23.442  0.00  0.00     0.024 A 
ATOM      7 CL   UNL d   1     -48.705  12.218  23.611  0.00  0.00    -0.082 Cl
ATOM      8  C   UNL d   1     -46.587  12.451  23.174  0.00  0.00     0.059 A 
ATOM      9  C   UNL d   1     -46.586  13.187  22.801  0.00  0.00     0.011 A 
ATOM     10 CL   UNL d   1     -45.884  12.034  23.279  0.00  0.00    -0.082 Cl
ATOM     11  C   UNL d   1     -47.286  13.603  22.696  0.00  0.00     0.015 A 
ATOM     12  C   UNL d   1     -45.870  13.501  22.535  0.00  0.00     0.001 C 
ENDBRANCH   1   4
BRANCH   1  13
ATOM     13  N   UNL d   1     -49.404  14.103  22.762  0.00  0.00    -0.229 N 
ATOM     14  C   UNL d   1     -49.512  14.727  23.333  0.00  0.00     0.092 A 
ATOM     15  C   UNL d   1     -50.029  15.214  23.454  0.00  0.00     0.020 A 
ATOM     16  C   UNL d   1     -50.734  15.304  23.019  0.00  0.00     0.002 A 
ATOM     17  C   UNL d   1     -50.983  14.824  22.331  0.00  0.00     0.002 A 
ATOM     18  C   UNL d   1     -50.555  14.151  21.948  0.00  0.00     0.020 A 
ATOM     19  C   UNL d   1     -49.805  13.844  22.190  0.00  0.00     0.092 A 
ENDBRANCH   1  13
TORSDOF 2
ENDMDL
MODEL 3
REMARK VINA RESULT:      -8.1      1.337      3.696
REMARK  2 active torsions:
REMARK  status: ('A' for Active; 'I' for Inactive)
REMARK    1  A    between atoms: C_2  and  S_1 
REMARK    2  A    between atoms: N_3  and  S_1 
ROOT
ATOM      1  S   UNL d   1     -48.200  13.590  22.715  0.00  0.00     0.272 S 
ATOM      2  O   UNL d   1     -48.489  14.124  23.271  0.00  0.00    -0.200 OA
ATOM      3  O   UNL d   1     -48.631  13.442  22.025  0.00  0.00    -0.200 OA
ENDROOT
BRANCH   1   4
ATOM      4  C   UNL d   1     -48.916  13.974  22.582  0.00  0.00     0.115 A 
ATOM      5  C   UNL d   1     -49.393  13.737  21.963  0.00  0.00     0.071 A 
ATOM      6  C   UNL d   1     -50.108  14.115  21.825  0.00  0.00     0.024 A 
ATOM      7 CL   UNL d   1     -49.173  13.117  21.464  0.00  0.00    -0.082 Cl
ATOM      8  C   UNL d   1     -50.347  14.739  22.315  0.00  0.00     0.059 A 
ATOM      9  C   UNL d   1     -49.859  14.973  22.938  0.00  0.00     0.011 A 
ATOM     10 CL   UNL d   1     -51.064  15.121  22.178  0.00  0.00    -0.082 Cl
ATOM     11  C   UNL d   1     -49.145  14.593  23.074  0.00  0.00     0.015 A 
ATOM     12  C   UNL d   1     -50.100  15.595  23.424  0.00  0.00     0.001 C 
ENDBRANCH   1   4
BRANCH   1  13
ATOM     13  N   UNL d   1     -47.484  13.203  22.844  0.00  0.00    -0.229 N 
ATOM     14  C   UNL d   1     -47.564  12.503  23.324  0.00  0.00     0.092 A 
ATOM     15  C   UNL d   1     -47.104  12.008  23.572  0.00  0.00     0.020 A 
ATOM     16  C   UNL d   1     -46.281  11.988  23.438  0.00  0.00     0.002 A 
ATOM     17  C   UNL d   1     -45.818  12.565  22.971  0.00  0.00     0.002 A 
ATOM     18  C   UNL d   1     -46.109  13.284  22.544  0.00  0.00     0.020 A 
ATOM     19  C   UNL d   1     -46.911  13.546  22.513  0.00  0.00     0.092 A 
ENDBRANCH   1  13
TORSDOF 2
ENDMDL
MODEL 4
REMARK VINA RESULT:      -6.1      8.734     10.023
REMARK  2 active torsions:
REMARK  status: ('A' for Active; 'I' for Inactive)
REMARK    1  A    between atoms: C_2  and  S_1 
REMARK    2  A    between atoms: N_3  and  S_1 
ROOT
ATOM      1  S   UNL d   1     -39.922  14.623  18.805  0.00  0.00     0.272 S 
ATOM      2  O   UNL d   1     -39.175  14.278  18.773  0.00  0.00    -0.200 OA
ATOM      3  O   UNL d   1     -40.342  14.759  18.105  0.00  0.00    -0.200 OA
ENDROOT
BRANCH   1   4
ATOM      4  C   UNL d   1     -39.596  14.415  18.078  0.00  0.00     0.115 A 
ATOM      5  C   UNL d   1     -39.858  14.783  17.398  0.00  0.00     0.071 A 
ATOM      6  C   UNL d   1     -39.538  14.581  16.670  0.00  0.00     0.024 A 
ATOM      7 CL   UNL d   1     -40.446  15.362  17.422  0.00  0.00    -0.082 Cl
ATOM      8  C   UNL d   1     -38.947  14.002  16.624  0.00  0.00     0.059 A 
ATOM      9  C   UNL d   1     -38.688  13.635  17.317  0.00  0.00     0.011 A 
ATOM     10 CL   UNL d   1     -38.624  13.797  15.895  0.00  0.00    -0.082 Cl
ATOM     11  C   UNL d   1     -39.010  13.839  18.043  0.00  0.00     0.015 A 
ATOM     12  C   UNL d   1     -38.099  13.058  17.268  0.00  0.00     0.001 C 
ENDBRANCH   1   4
BRANCH   1  13
ATOM     13  N   UNL d   1     -40.252  14.833  19.531  0.00  0.00    -0.229 N 
ATOM     14  C   UNL d   1     -39.906  15.538  19.863  0.00  0.00     0.092 A 
ATOM     15  C   UNL d   1     -40.016  15.915  20.466  0.00  0.00     0.020 A 
ATOM     16  C   UNL d   1     -40.570  15.740  21.064  0.00  0.00     0.002 A 
ATOM     17  C   UNL d   1     -41.126  15.065  21.073  0.00  0.00     0.002 A 
ATOM     18  C   UNL d   1     -41.226  14.428  20.466  0.00  0.00     0.020 A 
ATOM     19  C   UNL d   1     -40.786  14.361  19.748  0.00  0.00     0.092 A 
ENDBRANCH   1  13
TORSDOF 2
ENDMDL
MODEL 5
REMARK VINA RESULT:      -5.8      9.125     10.619
REMARK  2 active torsions:
REMARK  status: ('A' for Active; 'I' for Inactive)
REMARK    1  A    between atoms: C_2  and  S_1 
REMARK    2  A    between atoms: N_3  and  S_1 
ROOT
ATOM      1  S   UNL d   1     -39.296  14.183  18.088  0.00  0.00     0.272 S 
ATOM      2  O   UNL d   1     -38.914  14.510  18.741  0.00  0.00    -0.200 OA
ATOM      3  O   UNL d   1     -40.085  13.943  18.152  0.00  0.00    -0.200 OA
ENDROOT
BRANCH   1   4
ATOM      4  C   UNL d   1     -39.700  14.269  18.801  0.00  0.00     0.115 A 
ATOM      5  C   UNL d   1     -40.514  14.344  18.797  0.00  0.00     0.071 A 
ATOM      6  C   UNL d   1     -40.923  14.430  19.502  0.00  0.00     0.024 A 
ATOM      7 CL   UNL d   1     -40.943  14.334  18.092  0.00  0.00    -0.082 Cl
ATOM      8  C   UNL d   1     -40.511  14.442  20.221  0.00  0.00     0.059 A 
ATOM      9  C   UNL d   1     -39.689  14.366  20.216  0.00  0.00     0.011 A 
ATOM     10 CL   UNL d   1     -40.919  14.529  20.931  0.00  0.00    -0.082 Cl
ATOM     11  C   UNL d   1     -39.282  14.280  19.509  0.00  0.00     0.015 A 
ATOM     12  C   UNL d   1     -39.281  14.379  20.934  0.00  0.00     0.001 C 
ENDBRANCH   1   4
BRANCH   1  13
ATOM     13  N   UNL d   1     -38.895  14.095  17.374  0.00  0.00    -0.229 N 
ATOM     14  C   UNL d   1     -38.572  13.312  17.267  0.00  0.00     0.092 A 
ATOM     15  C   UNL d   1     -38.191  12.993  16.746  0.00  0.00     0.020 A 
ATOM     16  C   UNL d   1     -37.941  13.343  16.032  0.00  0.00     0.002 A 
ATOM     17  C   UNL d   1     -38.091  14.167  15.778  0.00  0.00     0.002 A 
ATOM     18  C   UNL d   1     -38.532  14.801  16.209  0.00  0.00     0.020 A 
ATOM     19  C   UNL d   1     -38.897  14.719  16.967  0.00  0.00     0.092 A 
ENDBRANCH   1  13
TORSDOF 2
ENDMDL
MODEL 6
REMARK VINA RESULT:      -5.7      8.890      9.644
REMARK  2 active torsions:
REMARK  status: ('A' for Active; 'I' for Inactive)
REMARK    1  A    between atoms: C_2  and  S_1 
REMARK    2  A    between atoms: N_3  and  S_1 
ROOT
ATOM      1  S   UNL d   1     -39.929  15.254  19.477  0.00  0.00     0.272 S 
ATOM      2  O   UNL d   1     -39.232  15.640  19.686  0.00  0.00    -0.200 OA
ATOM      3  O   UNL d   1     -40.390  14.893  20.062  0.00  0.00    -0.200 OA
ENDROOT
BRANCH   1   4
ATOM      4  C   UNL d   1     -39.694  15.280  20.266  0.00  0.00     0.115 A 
ATOM      5  C   UNL d   1     -40.195  14.997  20.846  0.00  0.00     0.071 A 
ATOM      6  C   UNL d   1     -39.968  15.019  21.633  0.00  0.00     0.024 A 
ATOM      7 CL   UNL d   1     -40.936  14.684  20.658  0.00  0.00    -0.082 Cl
ATOM      8  C   UNL d   1     -39.228  15.329  21.842  0.00  0.00     0.059 A 
ATOM      9  C   UNL d   1     -38.728  15.613  21.250  0.00  0.00     0.011 A 
ATOM     10 CL   UNL d   1     -38.998  15.353  22.633  0.00  0.00    -0.082 Cl
ATOM     11  C   UNL d   1     -38.958  15.590  20.463  0.00  0.00     0.015 A 
ATOM     12  C   UNL d   1     -37.992  15.922  21.461  0.00  0.00     0.001 C 
ENDBRANCH   1   4
BRANCH   1  13
ATOM     13  N   UNL d   1     -40.168  15.226  18.688  0.00  0.00    -0.229 N 
ATOM     14  C   UNL d   1     -39.856  14.551  18.270  0.00  0.00     0.092 A 
ATOM     15  C   UNL d   1     -39.915  14.308  17.594  0.00  0.00     0.020 A 
ATOM     16  C   UNL d   1     -40.351  14.662  16.978  0.00  0.00     0.002 A 
ATOM     17  C   UNL d   1     -40.821  15.398  17.033  0.00  0.00     0.002 A 
ATOM     18  C   UNL d   1     -40.940  15.922  17.736  0.00  0.00     0.020 A 
ATOM     19  C   UNL d   1     -40.607  15.798  18.503  0.00  0.00     0.092 A 
ENDBRANCH   1  13
TORSDOF 2
ENDMDL
MODEL 7
REMARK VINA RESULT:      -5.5      9.081      9.860
REMARK  2 active torsions:
REMARK  status: ('A' for Active; 'I' for Inactive)
REMARK    1  A    between atoms: C_2  and  S_1 
REMARK    2  A    between atoms: N_3  and  S_1 
ROOT
ATOM      1  S   UNL d   1     -39.660  14.880  20.001  0.00  0.00     0.272 S 
ATOM      2  O   UNL d   1     -39.398  14.367  19.412  0.00  0.00    -0.200 OA
ATOM      3  O   UNL d   1     -40.223  15.459  19.821  0.00  0.00    -0.200 OA
ENDROOT
BRANCH   1   4
ATOM      4  C   UNL d   1     -39.959  14.946  19.236  0.00  0.00     0.115 A 
ATOM      5  C   UNL d   1     -40.584  15.450  19.089  0.00  0.00     0.071 A 
ATOM      6  C   UNL d   1     -40.886  15.520  18.330  0.00  0.00     0.024 A 
ATOM      7 CL   UNL d   1     -40.926  15.898  19.692  0.00  0.00    -0.082 Cl
ATOM      8  C   UNL d   1     -40.556  15.079  17.711  0.00  0.00     0.059 A 
ATOM      9  C   UNL d   1     -39.925  14.572  17.868  0.00  0.00     0.011 A 
ATOM     10 CL   UNL d   1     -40.858  15.148  16.947  0.00  0.00    -0.082 Cl
ATOM     11  C   UNL d   1     -39.624  14.504  18.628  0.00  0.00     0.015 A 
ATOM     12  C   UNL d   1     -39.598  14.134  17.249  0.00  0.00     0.001 C 
ENDBRANCH   1   4
BRANCH   1  13
ATOM     13  N   UNL d   1     -39.364  14.818  20.768  0.00  0.00    -0.229 N 
ATOM     14  C   UNL d   1     -39.622  14.110  21.168  0.00  0.00     0.092 A 
ATOM     15  C   UNL d   1     -39.506  13.832  21.823  0.00  0.00     0.020 A 
ATOM     16  C   UNL d   1     -39.038  14.168  22.426  0.00  0.00     0.002 A 
ATOM     17  C   UNL d   1     -38.597  14.923  22.380  0.00  0.00     0.002 A 
ATOM     18  C   UNL d   1     -38.548  15.488  21.701  0.00  0.00     0.020 A 
ATOM     19  C   UNL d   1     -38.931  15.394  20.954  0.00  0.00     0.092 A 
ENDBRANCH   1  13
TORSDOF 2
ENDMDL
