MODEL 1
REMARK VINA RESULT:      -2.0      0.000      0.000
REMARK  4 active torsions:
REMARK  status: ('A' for Active; 'I' for Inactive)
REMARK    1  A    between atoms: S_3  and  N_1 
REMARK    2  A    between atoms: C_7  and  C_4 
REMARK    3  A    between atoms: C_8  and  C_5 
REMARK    4  A    between atoms: O_19  and  C_17 
ROOT
ATOM      1  N   UNL d   1     -42.780-122.633 -49.755  0.00  0.00    -0.155 N 
ATOM      2  N   UNL d   1     -42.839-122.809 -48.940  0.00  0.00    -0.155 NA
ATOM      3  C   UNL d   1     -42.098-123.034 -48.687  0.00  0.00     0.110 A 
ATOM      4  C   UNL d   1     -42.004-122.749 -50.006  0.00  0.00     0.096 A 
ATOM      5  C   UNL d   1     -41.559-123.004 -49.338  0.00  0.00     0.041 A 
ENDROOT
BRANCH   4   6
ATOM      6  C   UNL d   1     -41.710-122.638 -50.768  0.00  0.00     0.021 A 
ATOM      7  C   UNL d   1     -41.613-123.275 -51.270  0.00  0.00     0.026 A 
ATOM      8  C   UNL d   1     -41.320-123.165 -52.033  0.00  0.00     0.094 A 
ATOM      9  C   UNL d   1     -41.123-122.416 -52.294  0.00  0.00     0.024 A 
ATOM     10  C   UNL d   1     -41.218-121.770 -51.792  0.00  0.00     0.002 A 
ATOM     11  C   UNL d   1     -41.512-121.881 -51.029  0.00  0.00     0.002 A 
BRANCH   8  12
ATOM     12  O   UNL d   1     -41.224-123.817 -52.537  0.00  0.00    -0.328 OA
ATOM     13  C   UNL d   1     -41.459-123.768 -53.321  0.00  0.00     0.181 C 
ENDBRANCH   8  12
ENDBRANCH   4   6
BRANCH   1  14
ATOM     14  S   UNL d   1     -43.393-122.388 -50.218  0.00  0.00     0.266 S 
ATOM     15  O   UNL d   1     -43.184-121.589 -50.084  0.00  0.00    -0.203 OA
ATOM     16  O   UNL d   1     -43.627-123.153 -50.371  0.00  0.00    -0.203 OA
ATOM     17  C   UNL d   1     -44.031-122.109 -50.700  0.00  0.00     0.165 C 
ENDBRANCH   1  14
BRANCH   3  18
ATOM     18  C   UNL d   1     -41.877-123.261 -47.920  0.00  0.00     0.049 A 
ATOM     19  S   UNL d   1     -41.182-123.013 -47.566  0.00  0.00    -0.085 SA
ATOM     20  C   UNL d   1     -41.165-123.354 -46.814  0.00  0.00     0.035 A 
ATOM     21  C   UNL d   1     -41.868-123.812 -46.725  0.00  0.00     0.007 A 
ATOM     22  C   UNL d   1     -42.296-123.749 -47.406  0.00  0.00     0.009 A 
ENDBRANCH   3  18
TORSDOF 4
ENDMDL
MODEL 2
REMARK VINA RESULT:      -0.9      1.939      4.338
REMARK  4 active torsions:
REMARK  status: ('A' for Active; 'I' for Inactive)
REMARK    1  A    between atoms: S_3  and  N_1 
REMARK    2  A    between atoms: C_7  and  C_4 
REMARK    3  A    between atoms: C_8  and  C_5 
REMARK    4  A    between atoms: O_19  and  C_17 
ROOT
ATOM      1  N   UNL d   1     -41.860-121.891 -51.882  0.00  0.00    -0.155 N 
ATOM      2  N   UNL d   1     -41.811-121.751 -52.704  0.00  0.00    -0.155 NA
ATOM      3  C   UNL d   1     -41.724-122.476 -53.067  0.00  0.00     0.110 A 
ATOM      4  C   UNL d   1     -41.803-122.699 -51.736  0.00  0.00     0.096 A 
ATOM      5  C   UNL d   1     -41.716-123.084 -52.480  0.00  0.00     0.041 A 
ENDROOT
BRANCH   4   6
ATOM      6  C   UNL d   1     -41.826-123.071 -51.000  0.00  0.00     0.021 A 
ATOM      7  C   UNL d   1     -42.542-123.258 -50.654  0.00  0.00     0.026 A 
ATOM      8  C   UNL d   1     -42.564-123.630 -49.917  0.00  0.00     0.094 A 
ATOM      9  C   UNL d   1     -41.871-123.815 -49.528  0.00  0.00     0.024 A 
ATOM     10  C   UNL d   1     -41.146-123.628 -49.873  0.00  0.00     0.002 A 
ATOM     11  C   UNL d   1     -41.123-123.256 -50.609  0.00  0.00     0.002 A 
BRANCH   8  12
ATOM     12  O   UNL d   1     -43.295-123.816 -49.572  0.00  0.00    -0.328 OA
ATOM     13  C   UNL d   1     -43.443-123.619 -48.791  0.00  0.00     0.181 C 
ENDBRANCH   8  12
ENDBRANCH   4   6
BRANCH   1  14
ATOM     14  S   UNL d   1     -41.949-121.317 -51.322  0.00  0.00     0.266 S 
ATOM     15  O   UNL d   1     -41.123-121.181 -51.320  0.00  0.00    -0.203 OA
ATOM     16  O   UNL d   1     -42.757-121.420 -51.297  0.00  0.00    -0.203 OA
ATOM     17  C   UNL d   1     -42.020-120.711 -50.735  0.00  0.00     0.165 C 
ENDBRANCH   1  14
BRANCH   3  18
ATOM     18  C   UNL d   1     -41.652-122.623 -53.880  0.00  0.00     0.049 A 
ATOM     19  S   UNL d   1     -41.291-123.294 -54.180  0.00  0.00    -0.085 SA
ATOM     20  C   UNL d   1     -41.330-123.236 -55.003  0.00  0.00     0.035 A 
ATOM     21  C   UNL d   1     -41.724-122.514 -55.190  0.00  0.00     0.007 A 
ATOM     22  C   UNL d   1     -41.917-122.147 -54.497  0.00  0.00     0.009 A 
ENDBRANCH   3  18
TORSDOF 4
ENDMDL
