MODEL 1
REMARK VINA RESULT:      40.2      0.000      0.000
REMARK  4 active torsions:
REMARK  status: ('A' for Active; 'I' for Inactive)
REMARK    1  A    between atoms: C_3  and  S_1 
REMARK    2  A    between atoms: N_4  and  S_1 
REMARK    3  A    between atoms: C_2  and  C_8 
REMARK       I    between atoms: N_5  and  C_2 
REMARK    4  A    between atoms: C_14  and  N_5 
ROOT
ATOM      1  C   UNL d   1      46.033 -18.631  41.488  0.00  0.00     0.104 A 
ATOM      2  C   UNL d   1      45.453 -17.861  40.114  0.00  0.00     0.058 A 
ATOM      3  C   UNL d   1      46.497 -18.516  40.853  0.00  0.00     0.013 A 
ATOM      4  C   UNL d   1      45.269 -18.363  41.450  0.00  0.00     0.013 A 
ATOM      5  C   UNL d   1      44.954 -17.982  40.790  0.00  0.00     0.005 A 
ATOM      6  C   UNL d   1      46.213 -18.136  40.172  0.00  0.00     0.005 A 
ENDROOT
BRANCH   2   7
ATOM      7  C   UNL d   1      45.163 -17.472  39.418  0.00  0.00     0.279 C 
ATOM      8  N   UNL d   1      45.551 -16.890  39.068  0.00  0.00    -0.208 NA
ATOM      9  O   UNL d   1      44.417 -17.749  39.112  0.00  0.00    -0.265 OA
BRANCH   8  10
ATOM     10  C   UNL d   1      45.244 -16.530  38.391  0.00  0.00     0.085 A 
ATOM     11  C   UNL d   1      44.449 -16.564  38.251  0.00  0.00     0.020 A 
ATOM     12  C   UNL d   1      44.144 -16.203  37.575  0.00  0.00     0.013 A 
ATOM     13  C   UNL d   1      44.633 -15.809  37.040  0.00  0.00     0.058 A 
ATOM     14  C   UNL d   1      45.455 -15.780  37.195  0.00  0.00     0.013 A 
ATOM     15 CL   UNL d   1      44.261 -15.441  36.333  0.00  0.00    -0.082 Cl
ATOM     16  C   UNL d   1      45.755 -16.142  37.873  0.00  0.00     0.020 A 
ENDBRANCH   8  10
ENDBRANCH   2   7
BRANCH   1  17
ATOM     17  S   UNL d   1      46.271 -19.029  42.246  0.00  0.00     0.271 S 
ATOM     18  O   UNL d   1      46.046 -19.801  41.993  0.00  0.00    -0.200 OA
ATOM     19  O   UNL d   1      46.484 -18.289  42.483  0.00  0.00    -0.200 OA
BRANCH  17  20
ATOM     20  N   UNL d   1      46.526 -19.357  43.021  0.00  0.00    -0.226 N 
ATOM     21  C   UNL d   1      46.647 -18.844  43.670  0.00  0.00     0.111 C 
ATOM     22  C   UNL d   1      46.646 -20.170  43.107  0.00  0.00     0.111 C 
ENDBRANCH  17  20
ENDBRANCH   1  17
TORSDOF 4
ENDMDL
