MODEL 1
REMARK VINA RESULT:      -7.3      0.000      0.000
REMARK  8 active torsions:
REMARK  status: ('A' for Active; 'I' for Inactive)
REMARK    1  A    between atoms: C_11  and  N_1 
REMARK    2  A    between atoms: S_7  and  C_2 
REMARK    3  A    between atoms: C_18  and  S_7 
REMARK    4  A    between atoms: C_8  and  C_10 
REMARK       I    between atoms: N_14  and  C_8 
REMARK    5  A    between atoms: C_13  and  C_11 
REMARK    6  A    between atoms: C_25  and  N_14 
REMARK    7  A    between atoms: C_19  and  C_18 
REMARK    8  A    between atoms: C_26  and  C_25 
ROOT
ATOM      1  N   UNL d   1     -49.433  13.133  23.107  0.00  0.00    -0.253 N 
ATOM      2  C   UNL d   1     -48.774  13.568  23.060  0.00  0.00     0.182 A 
ATOM      3  C   UNL d   1     -50.174  13.489  23.214  0.00  0.00     0.268 A 
ATOM      4  N   UNL d   1     -48.802  14.395  23.117  0.00  0.00    -0.222 NA
ATOM      5  C   UNL d   1     -50.220  14.294  23.272  0.00  0.00     0.074 A 
ATOM      6  C   UNL d   1     -49.520  14.756  23.222  0.00  0.00     0.088 A 
ATOM      7  O   UNL d   1     -50.855  13.039  23.263  0.00  0.00    -0.267 OA
ATOM      8  C   UNL d   1     -50.938  14.664  23.378  0.00  0.00     0.006 A 
ATOM      9  C   UNL d   1     -49.566  15.570  23.281  0.00  0.00     0.019 A 
ATOM     10  C   UNL d   1     -50.963  15.487  23.435  0.00  0.00     0.000 A 
ATOM     11  C   UNL d   1     -50.305  15.922  23.388  0.00  0.00     0.002 A 
ENDROOT
BRANCH   2  12
ATOM     12  S   UNL d   1     -48.040  13.192  22.951  0.00  0.00    -0.049 SA
BRANCH  12  13
ATOM     13  C   UNL d   1     -47.342  13.600  23.143  0.00  0.00     0.038 C 
BRANCH  13  14
ATOM     14  C   UNL d   1     -46.603  13.328  22.899  0.00  0.00     0.007 A 
ATOM     15  C   UNL d   1     -46.317  12.604  23.213  0.00  0.00     0.001 A 
ATOM     16  C   UNL d   1     -45.593  12.322  22.984  0.00  0.00     0.005 A 
ATOM     17  C   UNL d   1     -45.134  12.747  22.440  0.00  0.00     0.058 A 
ATOM     18  C   UNL d   1     -45.421  13.451  22.138  0.00  0.00     0.005 A 
ATOM     19  C   UNL d   1     -46.154  13.727  22.376  0.00  0.00     0.001 A 
BRANCH  17  20
ATOM     20  C   UNL d   1     -44.379  12.476  22.185  0.00  0.00     0.279 C 
ATOM     21  O   UNL d   1     -44.091  11.736  22.459  0.00  0.00    -0.265 OA
ATOM     22  N   UNL d   1     -43.922  12.933  21.669  0.00  0.00    -0.203 NA
BRANCH  22  23
ATOM     23  C   UNL d   1     -43.156  12.654  21.413  0.00  0.00     0.148 C 
BRANCH  23  24
ATOM     24  C   UNL d   1     -42.722  13.071  20.872  0.00  0.00     0.255 C 
ATOM     25  O   UNL d   1     -42.019  13.426  21.090  0.00  0.00    -0.281 OA
ENDBRANCH  23  24
ENDBRANCH  22  23
ENDBRANCH  17  20
ENDBRANCH  13  14
ENDBRANCH  12  13
ENDBRANCH   2  12
BRANCH   1  26
ATOM     26  C   UNL d   1     -49.387  12.303  23.047  0.00  0.00     0.085 C 
BRANCH  26  27
ATOM     27  C   UNL d   1     -49.661  11.842  23.687  0.00  0.00     0.019 C 
ATOM     28  C   UNL d   1     -49.536  11.022  23.697  0.00  0.00     0.002 C 
ENDBRANCH  26  27
ENDBRANCH   1  26
TORSDOF 8
ENDMDL
MODEL 2
REMARK VINA RESULT:      -6.5      0.931      2.004
REMARK  8 active torsions:
REMARK  status: ('A' for Active; 'I' for Inactive)
REMARK    1  A    between atoms: C_11  and  N_1 
REMARK    2  A    between atoms: S_7  and  C_2 
REMARK    3  A    between atoms: C_18  and  S_7 
REMARK    4  A    between atoms: C_8  and  C_10 
REMARK       I    between atoms: N_14  and  C_8 
REMARK    5  A    between atoms: C_13  and  C_11 
REMARK    6  A    between atoms: C_25  and  N_14 
REMARK    7  A    between atoms: C_19  and  C_18 
REMARK    8  A    between atoms: C_26  and  C_25 
ROOT
ATOM      1  N   UNL d   1     -48.734  13.940  23.070  0.00  0.00    -0.253 N 
ATOM      2  C   UNL d   1     -48.320  13.268  23.018  0.00  0.00     0.182 A 
ATOM      3  C   UNL d   1     -49.543  13.932  23.252  0.00  0.00     0.268 A 
ATOM      4  N   UNL d   1     -48.682  12.533  23.142  0.00  0.00    -0.222 NA
ATOM      5  C   UNL d   1     -49.912  13.224  23.376  0.00  0.00     0.074 A 
ATOM      6  C   UNL d   1     -49.473  12.510  23.320  0.00  0.00     0.088 A 
ATOM      7  O   UNL d   1     -49.970  14.628  23.306  0.00  0.00    -0.267 OA
ATOM      8  C   UNL d   1     -50.707  13.193  23.555  0.00  0.00     0.006 A 
ATOM      9  C   UNL d   1     -49.846  11.793  23.445  0.00  0.00     0.019 A 
ATOM     10  C   UNL d   1     -51.064  12.460  23.678  0.00  0.00     0.000 A 
ATOM     11  C   UNL d   1     -50.651  11.788  23.626  0.00  0.00     0.002 A 
ENDROOT
BRANCH   2  12
ATOM     12  S   UNL d   1     -47.510  13.297  22.835  0.00  0.00    -0.049 SA
BRANCH  12  13
ATOM     13  C   UNL d   1     -47.017  12.671  23.070  0.00  0.00     0.038 C 
BRANCH  13  14
ATOM     14  C   UNL d   1     -46.238  12.614  22.806  0.00  0.00     0.007 A 
ATOM     15  C   UNL d   1     -45.765  11.979  23.083  0.00  0.00     0.001 A 
ATOM     16  C   UNL d   1     -44.998  11.908  22.835  0.00  0.00     0.005 A 
ATOM     17  C   UNL d   1     -44.678  12.462  22.306  0.00  0.00     0.058 A 
ATOM     18  C   UNL d   1     -45.146  13.077  22.041  0.00  0.00     0.005 A 
ATOM     19  C   UNL d   1     -45.921  13.141  22.299  0.00  0.00     0.001 A 
BRANCH  17  20
ATOM     20  C   UNL d   1     -43.884  12.411  22.033  0.00  0.00     0.279 C 
ATOM     21  O   UNL d   1     -43.416  11.744  22.239  0.00  0.00    -0.265 OA
ATOM     22  N   UNL d   1     -43.563  13.012  21.563  0.00  0.00    -0.203 NA
BRANCH  22  23
ATOM     23  C   UNL d   1     -42.757  12.956  21.287  0.00  0.00     0.148 C 
BRANCH  23  24
ATOM     24  C   UNL d   1     -42.432  13.541  20.830  0.00  0.00     0.255 C 
ATOM     25  O   UNL d   1     -41.623  13.655  20.817  0.00  0.00    -0.281 OA
ENDBRANCH  23  24
ENDBRANCH  22  23
ENDBRANCH  17  20
ENDBRANCH  13  14
ENDBRANCH  12  13
ENDBRANCH   2  12
BRANCH   1  26
ATOM     26  C   UNL d   1     -48.355  14.672  22.943  0.00  0.00     0.085 C 
BRANCH  26  27
ATOM     27  C   UNL d   1     -48.694  15.207  22.399  0.00  0.00     0.019 C 
ATOM     28  C   UNL d   1     -48.294  15.902  22.189  0.00  0.00     0.002 C 
ENDBRANCH  26  27
ENDBRANCH   1  26
TORSDOF 8
ENDMDL
