MODEL 1
REMARK VINA RESULT:      -7.7      0.000      0.000
REMARK  4 active torsions:
REMARK  status: ('A' for Active; 'I' for Inactive)
REMARK    1  A    between atoms: C_2  and  C_1 
REMARK    2  A    between atoms: C_3  and  C_1 
REMARK       I    between atoms: N_7  and  C_2 
REMARK    3  A    between atoms: C_4  and  C_3 
REMARK    4  A    between atoms: C_13  and  N_7 
ROOT
ATOM      1  C   UNL d   1     -48.406  12.910  22.083  0.00  0.00     0.128 C 
ATOM      2  C   UNL d   1     -48.487  12.262  22.575  0.00  0.00     0.106 C 
ATOM      3  N   UNL d   1     -48.573  11.598  23.074  0.00  0.00    -0.191 NA
ENDROOT
BRANCH   1   4
ATOM      4  C   UNL d   1     -48.745  12.915  21.322  0.00  0.00     0.289 C 
ATOM      5  N   UNL d   1     -49.468  13.286  21.202  0.00  0.00    -0.207 NA
ATOM      6  O   UNL d   1     -48.348  12.546  20.699  0.00  0.00    -0.264 OA
BRANCH   5   7
ATOM      7  C   UNL d   1     -49.866  13.655  21.824  0.00  0.00     0.085 A 
ATOM      8  C   UNL d   1     -50.372  13.217  22.307  0.00  0.00     0.019 A 
ATOM      9  C   UNL d   1     -50.770  13.586  22.929  0.00  0.00     0.002 A 
ATOM     10  C   UNL d   1     -50.661  14.391  23.069  0.00  0.00     0.000 A 
ATOM     11  C   UNL d   1     -50.155  14.829  22.586  0.00  0.00     0.002 A 
ATOM     12  C   UNL d   1     -51.064  14.755  23.696  0.00  0.00     0.000 C 
ATOM     13  C   UNL d   1     -49.757  14.461  21.965  0.00  0.00     0.019 A 
ENDBRANCH   5   7
ENDBRANCH   1   4
BRANCH   1  14
ATOM     14  C   UNL d   1     -47.982  13.569  22.342  0.00  0.00     0.040 C 
BRANCH  14  15
ATOM     15  C   UNL d   1     -47.158  13.536  22.423  0.00  0.00     0.101 A 
ATOM     16  O   UNL d   1     -46.579  13.091  22.048  0.00  0.00    -0.307 OA
ATOM     17  C   UNL d   1     -45.851  13.307  22.372  0.00  0.00     0.100 A 
ATOM     18  C   UNL d   1     -45.105  12.994  22.156  0.00  0.00     0.027 C 
ATOM     19  C   UNL d   1     -45.975  13.877  22.940  0.00  0.00     0.027 A 
ATOM     20  C   UNL d   1     -46.790  14.023  22.975  0.00  0.00     0.027 A 
ENDBRANCH  14  15
ENDBRANCH   1  14
TORSDOF 4
ENDMDL
MODEL 2
REMARK VINA RESULT:      -7.6      1.069      1.262
REMARK  4 active torsions:
REMARK  status: ('A' for Active; 'I' for Inactive)
REMARK    1  A    between atoms: C_2  and  C_1 
REMARK    2  A    between atoms: C_3  and  C_1 
REMARK       I    between atoms: N_7  and  C_2 
REMARK    3  A    between atoms: C_4  and  C_3 
REMARK    4  A    between atoms: C_13  and  N_7 
ROOT
ATOM      1  C   UNL d   1     -48.785  12.813  22.338  0.00  0.00     0.128 C 
ATOM      2  C   UNL d   1     -49.256  12.255  22.705  0.00  0.00     0.106 C 
ATOM      3  N   UNL d   1     -49.738  11.685  23.077  0.00  0.00    -0.191 NA
ENDROOT
BRANCH   1   4
ATOM      4  C   UNL d   1     -48.903  13.012  21.536  0.00  0.00     0.289 C 
ATOM      5  N   UNL d   1     -49.347  13.676  21.344  0.00  0.00    -0.207 NA
ATOM      6  O   UNL d   1     -48.570  12.537  20.949  0.00  0.00    -0.264 OA
BRANCH   5   7
ATOM      7  C   UNL d   1     -49.679  14.151  21.931  0.00  0.00     0.085 A 
ATOM      8  C   UNL d   1     -49.265  14.805  22.215  0.00  0.00     0.019 A 
ATOM      9  C   UNL d   1     -49.598  15.281  22.802  0.00  0.00     0.002 A 
ATOM     10  C   UNL d   1     -50.343  15.102  23.104  0.00  0.00     0.000 A 
ATOM     11  C   UNL d   1     -50.758  14.447  22.820  0.00  0.00     0.002 A 
ATOM     12  C   UNL d   1     -50.672  15.584  23.695  0.00  0.00     0.000 C 
ATOM     13  C   UNL d   1     -50.426  13.972  22.234  0.00  0.00     0.019 A 
ENDBRANCH   5   7
ENDBRANCH   1   4
BRANCH   1  14
ATOM     14  C   UNL d   1     -48.185  13.187  22.763  0.00  0.00     0.040 C 
BRANCH  14  15
ATOM     15  C   UNL d   1     -47.520  12.762  23.018  0.00  0.00     0.101 A 
ATOM     16  O   UNL d   1     -47.412  11.979  23.239  0.00  0.00    -0.307 OA
ATOM     17  C   UNL d   1     -46.616  11.886  23.439  0.00  0.00     0.100 A 
ATOM     18  C   UNL d   1     -46.255  11.175  23.698  0.00  0.00     0.027 C 
ATOM     19  C   UNL d   1     -46.236  12.600  23.345  0.00  0.00     0.027 A 
ATOM     20  C   UNL d   1     -46.797  13.150  23.082  0.00  0.00     0.027 A 
ENDBRANCH  14  15
ENDBRANCH   1  14
TORSDOF 4
ENDMDL
MODEL 3
REMARK VINA RESULT:      -7.1      1.451      2.041
REMARK  4 active torsions:
REMARK  status: ('A' for Active; 'I' for Inactive)
REMARK    1  A    between atoms: C_2  and  C_1 
REMARK    2  A    between atoms: C_3  and  C_1 
REMARK       I    between atoms: N_7  and  C_2 
REMARK    3  A    between atoms: C_4  and  C_3 
REMARK    4  A    between atoms: C_13  and  N_7 
ROOT
ATOM      1  C   UNL d   1     -47.722  13.414  22.485  0.00  0.00     0.128 C 
ATOM      2  C   UNL d   1     -47.955  13.117  21.760  0.00  0.00     0.106 C 
ATOM      3  N   UNL d   1     -48.190  12.817  21.018  0.00  0.00    -0.191 NA
ENDROOT
BRANCH   1   4
ATOM      4  C   UNL d   1     -47.329  14.148  22.541  0.00  0.00     0.289 C 
ATOM      5  N   UNL d   1     -47.766  14.834  22.663  0.00  0.00    -0.207 NA
ATOM      6  O   UNL d   1     -46.507  14.173  22.473  0.00  0.00    -0.264 OA
BRANCH   5   7
ATOM      7  C   UNL d   1     -48.588  14.809  22.731  0.00  0.00     0.085 A 
ATOM      8  C   UNL d   1     -49.058  14.822  22.053  0.00  0.00     0.019 A 
ATOM      9  C   UNL d   1     -49.880  14.797  22.121  0.00  0.00     0.002 A 
ATOM     10  C   UNL d   1     -50.232  14.759  22.865  0.00  0.00     0.000 A 
ATOM     11  C   UNL d   1     -49.762  14.746  23.543  0.00  0.00     0.002 A 
ATOM     12  C   UNL d   1     -51.059  14.735  22.926  0.00  0.00     0.000 C 
ATOM     13  C   UNL d   1     -48.940  14.771  23.476  0.00  0.00     0.019 A 
ENDBRANCH   5   7
ENDBRANCH   1   4
BRANCH   1  14
ATOM     14  C   UNL d   1     -47.876  12.985  23.173  0.00  0.00     0.040 C 
BRANCH  14  15
ATOM     15  C   UNL d   1     -47.451  12.294  23.343  0.00  0.00     0.101 A 
ATOM     16  O   UNL d   1     -46.648  12.132  23.391  0.00  0.00    -0.307 OA
ATOM     17  C   UNL d   1     -46.567  11.333  23.583  0.00  0.00     0.100 A 
ATOM     18  C   UNL d   1     -45.843  10.925  23.689  0.00  0.00     0.027 C 
ATOM     19  C   UNL d   1     -47.308  11.003  23.652  0.00  0.00     0.027 A 
ATOM     20  C   UNL d   1     -47.863  11.600  23.503  0.00  0.00     0.027 A 
ENDBRANCH  14  15
ENDBRANCH   1  14
TORSDOF 4
ENDMDL
MODEL 4
REMARK VINA RESULT:      -7.0      1.419      3.752
REMARK  4 active torsions:
REMARK  status: ('A' for Active; 'I' for Inactive)
REMARK    1  A    between atoms: C_2  and  C_1 
REMARK    2  A    between atoms: C_3  and  C_1 
REMARK       I    between atoms: N_7  and  C_2 
REMARK    3  A    between atoms: C_4  and  C_3 
REMARK    4  A    between atoms: C_13  and  N_7 
ROOT
ATOM      1  C   UNL d   1     -48.821  13.232  22.784  0.00  0.00     0.128 C 
ATOM      2  C   UNL d   1     -49.032  13.101  22.005  0.00  0.00     0.106 C 
ATOM      3  N   UNL d   1     -49.248  12.964  21.211  0.00  0.00    -0.191 NA
ENDROOT
BRANCH   1   4
ATOM      4  C   UNL d   1     -48.795  12.603  23.332  0.00  0.00     0.289 C 
ATOM      5  N   UNL d   1     -48.071  12.267  23.530  0.00  0.00    -0.207 NA
ATOM      6  O   UNL d   1     -49.498  12.329  23.666  0.00  0.00    -0.264 OA
BRANCH   5   7
ATOM      7  C   UNL d   1     -47.369  12.542  23.195  0.00  0.00     0.085 A 
ATOM      8  C   UNL d   1     -47.126  12.261  22.458  0.00  0.00     0.019 A 
ATOM      9  C   UNL d   1     -46.423  12.536  22.124  0.00  0.00     0.002 A 
ATOM     10  C   UNL d   1     -45.964  13.090  22.526  0.00  0.00     0.000 A 
ATOM     11  C   UNL d   1     -46.206  13.370  23.263  0.00  0.00     0.002 A 
ATOM     12  C   UNL d   1     -45.258  13.361  22.184  0.00  0.00     0.000 C 
ATOM     13  C   UNL d   1     -46.908  13.096  23.597  0.00  0.00     0.019 A 
ENDBRANCH   5   7
ENDBRANCH   1   4
BRANCH   1  14
ATOM     14  C   UNL d   1     -48.631  13.994  23.035  0.00  0.00     0.040 C 
BRANCH  14  15
ATOM     15  C   UNL d   1     -49.225  14.563  23.145  0.00  0.00     0.101 A 
ATOM     16  O   UNL d   1     -49.973  14.528  23.479  0.00  0.00    -0.307 OA
ATOM     17  C   UNL d   1     -50.304  15.283  23.426  0.00  0.00     0.100 A 
ATOM     18  C   UNL d   1     -51.064  15.506  23.698  0.00  0.00     0.027 C 
ATOM     19  C   UNL d   1     -49.770  15.779  23.064  0.00  0.00     0.027 A 
ATOM     20  C   UNL d   1     -49.094  15.333  22.887  0.00  0.00     0.027 A 
ENDBRANCH  14  15
ENDBRANCH   1  14
TORSDOF 4
ENDMDL
MODEL 5
REMARK VINA RESULT:      -6.8      1.679      3.931
REMARK  4 active torsions:
REMARK  status: ('A' for Active; 'I' for Inactive)
REMARK    1  A    between atoms: C_2  and  C_1 
REMARK    2  A    between atoms: C_3  and  C_1 
REMARK       I    between atoms: N_7  and  C_2 
REMARK    3  A    between atoms: C_4  and  C_3 
REMARK    4  A    between atoms: C_13  and  N_7 
ROOT
ATOM      1  C   UNL d   1     -48.242  13.458  22.596  0.00  0.00     0.128 C 
ATOM      2  C   UNL d   1     -48.416  13.293  21.814  0.00  0.00     0.106 C 
ATOM      3  N   UNL d   1     -48.593  13.128  21.016  0.00  0.00    -0.191 NA
ENDROOT
BRANCH   1   4
ATOM      4  C   UNL d   1     -48.038  14.231  22.835  0.00  0.00     0.289 C 
ATOM      5  N   UNL d   1     -47.248  14.425  22.948  0.00  0.00    -0.207 NA
ATOM      6  O   UNL d   1     -48.636  14.788  22.953  0.00  0.00    -0.264 OA
BRANCH   5   7
ATOM      7  C   UNL d   1     -46.651  13.868  22.829  0.00  0.00     0.085 A 
ATOM      8  C   UNL d   1     -46.408  13.386  23.452  0.00  0.00     0.019 A 
ATOM      9  C   UNL d   1     -45.811  12.829  23.333  0.00  0.00     0.002 A 
ATOM     10  C   UNL d   1     -45.457  12.754  22.593  0.00  0.00     0.000 A 
ATOM     11  C   UNL d   1     -45.700  13.237  21.969  0.00  0.00     0.002 A 
ATOM     12  C   UNL d   1     -44.857  12.192  22.480  0.00  0.00     0.000 C 
ATOM     13  C   UNL d   1     -46.296  13.794  22.088  0.00  0.00     0.019 A 
ENDBRANCH   5   7
ENDBRANCH   1   4
BRANCH   1  14
ATOM     14  C   UNL d   1     -48.268  12.855  23.158  0.00  0.00     0.040 C 
BRANCH  14  15
ATOM     15  C   UNL d   1     -48.984  12.481  23.343  0.00  0.00     0.101 A 
ATOM     16  O   UNL d   1     -49.759  12.748  23.376  0.00  0.00    -0.307 OA
ATOM     17  C   UNL d   1     -50.233  12.108  23.596  0.00  0.00     0.100 A 
ATOM     18  C   UNL d   1     -51.064  12.125  23.698  0.00  0.00     0.027 C 
ATOM     19  C   UNL d   1     -49.760  11.453  23.698  0.00  0.00     0.027 A 
ATOM     20  C   UNL d   1     -48.979  11.682  23.541  0.00  0.00     0.027 A 
ENDBRANCH  14  15
ENDBRANCH   1  14
TORSDOF 4
ENDMDL
MODEL 6
REMARK VINA RESULT:      -5.7      8.062     10.440
REMARK  4 active torsions:
REMARK  status: ('A' for Active; 'I' for Inactive)
REMARK    1  A    between atoms: C_2  and  C_1 
REMARK    2  A    between atoms: C_3  and  C_1 
REMARK       I    between atoms: N_7  and  C_2 
REMARK    3  A    between atoms: C_4  and  C_3 
REMARK    4  A    between atoms: C_13  and  N_7 
ROOT
ATOM      1  C   UNL d   1     -39.613  14.636  18.520  0.00  0.00     0.128 C 
ATOM      2  C   UNL d   1     -40.283  14.460  18.086  0.00  0.00     0.106 C 
ATOM      3  N   UNL d   1     -40.966  14.282  17.640  0.00  0.00    -0.191 NA
ENDROOT
BRANCH   1   4
ATOM      4  C   UNL d   1     -38.997  15.091  18.190  0.00  0.00     0.289 C 
ATOM      5  N   UNL d   1     -38.349  14.713  17.854  0.00  0.00    -0.207 NA
ATOM      6  O   UNL d   1     -39.049  15.914  18.206  0.00  0.00    -0.264 OA
BRANCH   5   7
ATOM      7  C   UNL d   1     -38.297  13.890  17.838  0.00  0.00     0.085 A 
ATOM      8  C   UNL d   1     -37.993  13.483  18.489  0.00  0.00     0.019 A 
ATOM      9  C   UNL d   1     -37.941  12.660  18.472  0.00  0.00     0.002 A 
ATOM     10  C   UNL d   1     -38.193  12.243  17.807  0.00  0.00     0.000 A 
ATOM     11  C   UNL d   1     -38.497  12.650  17.157  0.00  0.00     0.002 A 
ATOM     12  C   UNL d   1     -38.138  11.415  17.798  0.00  0.00     0.000 C 
ATOM     13  C   UNL d   1     -38.549  13.472  17.172  0.00  0.00     0.019 A 
ENDBRANCH   5   7
ENDBRANCH   1   4
BRANCH   1  14
ATOM     14  C   UNL d   1     -39.543  14.362  19.295  0.00  0.00     0.040 C 
BRANCH  14  15
ATOM     15  C   UNL d   1     -40.020  14.673  19.897  0.00  0.00     0.101 A 
ATOM     16  O   UNL d   1     -40.549  15.300  19.920  0.00  0.00    -0.307 OA
ATOM     17  C   UNL d   1     -40.858  15.337  20.686  0.00  0.00     0.100 A 
ATOM     18  C   UNL d   1     -41.420  15.893  20.962  0.00  0.00     0.027 C 
ATOM     19  C   UNL d   1     -40.525  14.742  21.131  0.00  0.00     0.027 A 
ATOM     20  C   UNL d   1     -40.001  14.325  20.643  0.00  0.00     0.027 A 
ENDBRANCH  14  15
ENDBRANCH   1  14
TORSDOF 4
ENDMDL
MODEL 7
REMARK VINA RESULT:      -5.6      8.797     10.249
REMARK  4 active torsions:
REMARK  status: ('A' for Active; 'I' for Inactive)
REMARK    1  A    between atoms: C_2  and  C_1 
REMARK    2  A    between atoms: C_3  and  C_1 
REMARK       I    between atoms: N_7  and  C_2 
REMARK    3  A    between atoms: C_4  and  C_3 
REMARK    4  A    between atoms: C_13  and  N_7 
ROOT
ATOM      1  C   UNL d   1     -39.560  14.653  18.271  0.00  0.00     0.128 C 
ATOM      2  C   UNL d   1     -40.304  14.352  18.112  0.00  0.00     0.106 C 
ATOM      3  N   UNL d   1     -41.064  14.050  17.949  0.00  0.00    -0.191 NA
ENDROOT
BRANCH   1   4
ATOM      4  C   UNL d   1     -39.436  15.475  18.338  0.00  0.00     0.289 C 
ATOM      5  N   UNL d   1     -39.437  15.826  19.081  0.00  0.00    -0.207 NA
ATOM      6  O   UNL d   1     -39.314  15.922  17.655  0.00  0.00    -0.264 OA
BRANCH   5   7
ATOM      7  C   UNL d   1     -39.560  15.379  19.764  0.00  0.00     0.085 A 
ATOM      8  C   UNL d   1     -38.914  15.083  20.183  0.00  0.00     0.019 A 
ATOM      9  C   UNL d   1     -39.036  14.636  20.866  0.00  0.00     0.002 A 
ATOM     10  C   UNL d   1     -39.803  14.485  21.129  0.00  0.00     0.000 A 
ATOM     11  C   UNL d   1     -40.449  14.782  20.710  0.00  0.00     0.002 A 
ATOM     12  C   UNL d   1     -39.918  14.035  21.816  0.00  0.00     0.000 C 
ATOM     13  C   UNL d   1     -40.327  15.228  20.027  0.00  0.00     0.019 A 
ENDBRANCH   5   7
ENDBRANCH   1   4
BRANCH   1  14
ATOM     14  C   UNL d   1     -38.923  14.138  18.368  0.00  0.00     0.040 C 
BRANCH  14  15
ATOM     15  C   UNL d   1     -38.591  13.750  17.715  0.00  0.00     0.101 A 
ATOM     16  O   UNL d   1     -38.519  13.955  16.924  0.00  0.00    -0.307 OA
ATOM     17  C   UNL d   1     -38.132  13.334  16.541  0.00  0.00     0.100 A 
ATOM     18  C   UNL d   1     -37.940  13.303  15.726  0.00  0.00     0.027 C 
ATOM     19  C   UNL d   1     -37.965  12.752  17.086  0.00  0.00     0.027 A 
ATOM     20  C   UNL d   1     -38.250  13.008  17.821  0.00  0.00     0.027 A 
ENDBRANCH  14  15
ENDBRANCH   1  14
TORSDOF 4
ENDMDL
MODEL 8
REMARK VINA RESULT:      -5.5      1.882      2.539
REMARK  4 active torsions:
REMARK  status: ('A' for Active; 'I' for Inactive)
REMARK    1  A    between atoms: C_2  and  C_1 
REMARK    2  A    between atoms: C_3  and  C_1 
REMARK       I    between atoms: N_7  and  C_2 
REMARK    3  A    between atoms: C_4  and  C_3 
REMARK    4  A    between atoms: C_13  and  N_7 
ROOT
ATOM      1  C   UNL d   1     -46.359  12.966  22.897  0.00  0.00     0.128 C 
ATOM      2  C   UNL d   1     -46.469  12.254  23.283  0.00  0.00     0.106 C 
ATOM      3  N   UNL d   1     -46.584  11.529  23.680  0.00  0.00    -0.191 NA
ENDROOT
BRANCH   1   4
ATOM      4  C   UNL d   1     -46.577  13.686  23.257  0.00  0.00     0.289 C 
ATOM      5  N   UNL d   1     -47.343  13.968  23.168  0.00  0.00    -0.207 NA
ATOM      6  O   UNL d   1     -46.018  14.103  23.698  0.00  0.00    -0.264 OA
BRANCH   5   7
ATOM      7  C   UNL d   1     -47.903  13.551  22.727  0.00  0.00     0.085 A 
ATOM      8  C   UNL d   1     -48.387  12.995  23.097  0.00  0.00     0.019 A 
ATOM      9  C   UNL d   1     -48.946  12.577  22.657  0.00  0.00     0.002 A 
ATOM     10  C   UNL d   1     -49.021  12.716  21.847  0.00  0.00     0.000 A 
ATOM     11  C   UNL d   1     -48.537  13.272  21.477  0.00  0.00     0.002 A 
ATOM     12  C   UNL d   1     -49.586  12.292  21.411  0.00  0.00     0.000 C 
ATOM     13  C   UNL d   1     -47.978  13.689  21.917  0.00  0.00     0.019 A 
ENDBRANCH   5   7
ENDBRANCH   1   4
BRANCH   1  14
ATOM     14  C   UNL d   1     -46.027  12.976  22.142  0.00  0.00     0.040 C 
BRANCH  14  15
ATOM     15  C   UNL d   1     -45.227  12.790  22.030  0.00  0.00     0.101 A 
ATOM     16  O   UNL d   1     -44.701  12.319  22.448  0.00  0.00    -0.307 OA
ATOM     17  C   UNL d   1     -43.973  12.354  22.059  0.00  0.00     0.100 A 
ATOM     18  C   UNL d   1     -43.273  11.957  22.291  0.00  0.00     0.027 C 
ATOM     19  C   UNL d   1     -44.046  12.839  21.409  0.00  0.00     0.027 A 
ATOM     20  C   UNL d   1     -44.827  13.114  21.387  0.00  0.00     0.027 A 
ENDBRANCH  14  15
ENDBRANCH   1  14
TORSDOF 4
ENDMDL
MODEL 9
REMARK VINA RESULT:      -5.2      8.917      9.805
REMARK  4 active torsions:
REMARK  status: ('A' for Active; 'I' for Inactive)
REMARK    1  A    between atoms: C_2  and  C_1 
REMARK    2  A    between atoms: C_3  and  C_1 
REMARK       I    between atoms: N_7  and  C_2 
REMARK    3  A    between atoms: C_4  and  C_3 
REMARK    4  A    between atoms: C_13  and  N_7 
ROOT
ATOM      1  C   UNL d   1     -39.382  15.074  20.528  0.00  0.00     0.128 C 
ATOM      2  C   UNL d   1     -38.687  15.492  20.425  0.00  0.00     0.106 C 
ATOM      3  N   UNL d   1     -37.980  15.922  20.320  0.00  0.00    -0.191 NA
ENDROOT
BRANCH   1   4
ATOM      4  C   UNL d   1     -40.119  15.466  20.547  0.00  0.00     0.289 C 
ATOM      5  N   UNL d   1     -40.578  15.498  19.866  0.00  0.00    -0.207 NA
ATOM      6  O   UNL d   1     -40.373  15.816  21.249  0.00  0.00    -0.264 OA
BRANCH   5   7
ATOM      7  C   UNL d   1     -40.324  15.148  19.163  0.00  0.00     0.085 A 
ATOM      8  C   UNL d   1     -39.848  15.572  18.640  0.00  0.00     0.019 A 
ATOM      9  C   UNL d   1     -39.594  15.222  17.938  0.00  0.00     0.002 A 
ATOM     10  C   UNL d   1     -39.815  14.449  17.758  0.00  0.00     0.000 A 
ATOM     11  C   UNL d   1     -40.291  14.024  18.281  0.00  0.00     0.002 A 
ATOM     12  C   UNL d   1     -39.555  14.103  17.050  0.00  0.00     0.000 C 
ATOM     13  C   UNL d   1     -40.545  14.373  18.983  0.00  0.00     0.019 A 
ENDBRANCH   5   7
ENDBRANCH   1   4
BRANCH   1  14
ATOM     14  C   UNL d   1     -39.359  14.254  20.616  0.00  0.00     0.040 C 
BRANCH  14  15
ATOM     15  C   UNL d   1     -39.052  13.912  21.306  0.00  0.00     0.101 A 
ATOM     16  O   UNL d   1     -39.231  14.007  22.101  0.00  0.00    -0.307 OA
ATOM     17  C   UNL d   1     -38.730  13.509  22.529  0.00  0.00     0.100 A 
ATOM     18  C   UNL d   1     -38.717  13.424  23.363  0.00  0.00     0.027 C 
ATOM     19  C   UNL d   1     -38.246  13.112  22.008  0.00  0.00     0.027 A 
ATOM     20  C   UNL d   1     -38.444  13.361  21.243  0.00  0.00     0.027 A 
ENDBRANCH  14  15
ENDBRANCH   1  14
TORSDOF 4
ENDMDL
