MODEL 1
REMARK VINA RESULT:      -8.5      0.000      0.000
REMARK  6 active torsions:
REMARK  status: ('A' for Active; 'I' for Inactive)
REMARK    1  A    between atoms: C_11  and  N_3 
REMARK    2  A    between atoms: C_10  and  C_7 
REMARK       I    between atoms: N_19  and  C_10 
REMARK    3  A    between atoms: C_21  and  C_11 
REMARK    4  A    between atoms: N_15  and  C_23 
REMARK    5  A    between atoms: C_22  and  N_19 
REMARK    6  A    between atoms: C_23  and  C_22 
ROOT
ATOM      1  C   UNL d   1      53.002  33.774  53.545  0.00  0.00     0.154 A 
ATOM      2  C   UNL d   1      52.810  34.477  53.931  0.00  0.00     0.093 A 
ATOM      3  N   UNL d   1      52.425  33.640  52.968  0.00  0.00    -0.286 N 
ATOM      4  N   UNL d   1      53.672  33.351  53.766  0.00  0.00    -0.210 NA
ATOM      5  C   UNL d   1      53.287  34.756  54.540  0.00  0.00     0.269 A 
ATOM      6  N   UNL d   1      53.958  34.334  54.762  0.00  0.00    -0.258 N 
ATOM      7  C   UNL d   1      51.881  34.252  52.997  0.00  0.00     0.124 A 
ATOM      8  C   UNL d   1      54.151  33.631  54.376  0.00  0.00     0.152 A 
ATOM      9  C   UNL d   1      52.115  34.772  53.591  0.00  0.00     0.030 A 
ATOM     10  C   UNL d   1      54.436  34.614  55.371  0.00  0.00     0.084 A 
ATOM     11  O   UNL d   1      53.095  35.459  54.927  0.00  0.00    -0.266 OA
ATOM     12  C   UNL d   1      54.821  33.208  54.597  0.00  0.00     0.038 A 
ATOM     13  C   UNL d   1      55.110  34.191  55.596  0.00  0.00     0.019 A 
ATOM     14  C   UNL d   1      55.303  33.488  55.209  0.00  0.00     0.005 A 
ENDROOT
BRANCH   7  15
ATOM     15  C   UNL d   1      51.218  34.328  52.512  0.00  0.00     0.295 C 
ATOM     16  O   UNL d   1      51.275  34.198  51.701  0.00  0.00    -0.264 OA
ATOM     17  N   UNL d   1      50.490  34.538  52.852  0.00  0.00    -0.204 NA
BRANCH  17  18
ATOM     18  C   UNL d   1      49.818  34.616  52.370  0.00  0.00     0.121 C 
BRANCH  18  19
ATOM     19  C   UNL d   1      49.073  34.686  52.711  0.00  0.00     0.101 C 
BRANCH  19  20
ATOM     20  N   UNL d   1      48.491  35.139  52.342  0.00  0.00    -0.298 N 
ATOM     21  C   UNL d   1      48.185  35.810  52.724  0.00  0.00     0.107 A 
ATOM     22  C   UNL d   1      47.597  36.267  52.351  0.00  0.00     0.142 A 
ATOM     23  O   UNL d   1      47.320  36.050  51.600  0.00  0.00    -0.300 OA
ATOM     24  C   UNL d   1      47.625  35.384  51.223  0.00  0.00     0.142 A 
ATOM     25  C   UNL d   1      48.213  34.927  51.596  0.00  0.00     0.107 A 
ENDBRANCH  19  20
ENDBRANCH  18  19
ENDBRANCH  17  18
ENDBRANCH   7  15
BRANCH   3  26
ATOM     26  C   UNL d   1      52.407  32.994  52.453  0.00  0.00     0.082 C 
BRANCH  26  27
ATOM     27  C   UNL d   1      52.319  32.230  52.745  0.00  0.00     0.018 A 
ATOM     28  C   UNL d   1      52.888  31.658  52.588  0.00  0.00     0.002 A 
ATOM     29  C   UNL d   1      52.803  30.902  52.876  0.00  0.00     0.000 A 
ATOM     30  C   UNL d   1      52.143  30.701  53.330  0.00  0.00     0.000 A 
ATOM     31  C   UNL d   1      51.571  31.264  53.491  0.00  0.00     0.000 A 
ATOM     32  C   UNL d   1      51.659  32.028  53.199  0.00  0.00     0.002 A 
ENDBRANCH  26  27
ENDBRANCH   3  26
TORSDOF 6
ENDMDL
MODEL 2
REMARK VINA RESULT:      -7.8      1.424      3.012
REMARK  6 active torsions:
REMARK  status: ('A' for Active; 'I' for Inactive)
REMARK    1  A    between atoms: C_11  and  N_3 
REMARK    2  A    between atoms: C_10  and  C_7 
REMARK       I    between atoms: N_19  and  C_10 
REMARK    3  A    between atoms: C_21  and  C_11 
REMARK    4  A    between atoms: N_15  and  C_23 
REMARK    5  A    between atoms: C_22  and  N_19 
REMARK    6  A    between atoms: C_23  and  C_22 
ROOT
ATOM      1  C   UNL d   1      52.897  31.771  53.272  0.00  0.00     0.154 A 
ATOM      2  C   UNL d   1      52.160  31.405  53.210  0.00  0.00     0.093 A 
ATOM      3  N   UNL d   1      52.796  32.571  53.087  0.00  0.00    -0.286 N 
ATOM      4  N   UNL d   1      53.559  31.332  53.486  0.00  0.00    -0.210 NA
ATOM      5  C   UNL d   1      52.086  30.601  53.362  0.00  0.00     0.269 A 
ATOM      6  N   UNL d   1      52.747  30.160  53.577  0.00  0.00    -0.258 N 
ATOM      7  C   UNL d   1      52.005  32.699  52.913  0.00  0.00     0.124 A 
ATOM      8  C   UNL d   1      53.484  30.526  53.639  0.00  0.00     0.152 A 
ATOM      9  C   UNL d   1      51.609  31.981  52.988  0.00  0.00     0.030 A 
ATOM     10  C   UNL d   1      52.673  29.355  53.730  0.00  0.00     0.084 A 
ATOM     11  O   UNL d   1      51.349  30.235  53.301  0.00  0.00    -0.266 OA
ATOM     12  C   UNL d   1      54.147  30.087  53.853  0.00  0.00     0.038 A 
ATOM     13  C   UNL d   1      53.336  28.911  53.945  0.00  0.00     0.019 A 
ATOM     14  C   UNL d   1      54.073  29.277  54.007  0.00  0.00     0.005 A 
ENDROOT
BRANCH   7  15
ATOM     15  C   UNL d   1      51.672  33.424  52.701  0.00  0.00     0.295 C 
ATOM     16  O   UNL d   1      52.081  33.946  52.214  0.00  0.00    -0.264 OA
ATOM     17  N   UNL d   1      50.918  33.622  52.986  0.00  0.00    -0.204 NA
BRANCH  17  18
ATOM     18  C   UNL d   1      50.576  34.349  52.777  0.00  0.00     0.121 C 
BRANCH  18  19
ATOM     19  C   UNL d   1      49.957  34.656  53.222  0.00  0.00     0.101 C 
BRANCH  19  20
ATOM     20  N   UNL d   1      49.310  35.003  52.846  0.00  0.00    -0.298 N 
ATOM     21  C   UNL d   1      48.846  35.560  53.251  0.00  0.00     0.107 A 
ATOM     22  C   UNL d   1      48.193  35.910  52.871  0.00  0.00     0.142 A 
ATOM     23  O   UNL d   1      48.009  35.700  52.090  0.00  0.00    -0.300 OA
ATOM     24  C   UNL d   1      48.471  35.147  51.690  0.00  0.00     0.142 A 
ATOM     25  C   UNL d   1      49.124  34.797  52.070  0.00  0.00     0.107 A 
ENDBRANCH  19  20
ENDBRANCH  18  19
ENDBRANCH  17  18
ENDBRANCH   7  15
BRANCH   3  26
ATOM     26  C   UNL d   1      53.396  33.138  53.082  0.00  0.00     0.082 C 
BRANCH  26  27
ATOM     27  C   UNL d   1      53.775  33.351  53.780  0.00  0.00     0.018 A 
ATOM     28  C   UNL d   1      54.590  33.267  53.853  0.00  0.00     0.002 A 
ATOM     29  C   UNL d   1      54.966  33.477  54.543  0.00  0.00     0.000 A 
ATOM     30  C   UNL d   1      54.533  33.778  55.179  0.00  0.00     0.000 A 
ATOM     31  C   UNL d   1      53.721  33.865  55.116  0.00  0.00     0.000 A 
ATOM     32  C   UNL d   1      53.342  33.652  54.417  0.00  0.00     0.002 A 
ENDBRANCH  26  27
ENDBRANCH   3  26
TORSDOF 6
ENDMDL
