MODEL 1
REMARK VINA RESULT:      79.1      0.000      0.000
REMARK  4 active torsions:
REMARK  status: ('A' for Active; 'I' for Inactive)
REMARK    1  A    between atoms: N_2  and  S_1 
REMARK    2  A    between atoms: C_3  and  S_1 
REMARK    3  A    between atoms: O_19  and  C_14 
REMARK    4  A    between atoms: O_20  and  C_17 
ROOT
ATOM      1  S   UNL d   1      59.679  49.238  50.669  0.00  0.00     0.275 S 
ATOM      2  O   UNL d   1      59.866  49.592  51.471  0.00  0.00    -0.199 OA
ATOM      3  O   UNL d   1      59.488  48.882  49.864  0.00  0.00    -0.199 OA
ENDROOT
BRANCH   1   4
ATOM      4  N   UNL d   1      60.550  49.085  50.548  0.00  0.00    -0.212 N 
ATOM      5  C   UNL d   1      60.848  48.335  50.599  0.00  0.00     0.094 A 
ATOM      6  C   UNL d   1      61.645  48.196  50.488  0.00  0.00     0.100 A 
ATOM      7  C   UNL d   1      60.341  47.720  50.761  0.00  0.00     0.020 A 
ATOM      8  C   UNL d   1      61.935  47.436  50.541  0.00  0.00     0.021 A 
ATOM      9  N   UNL d   1      61.855  49.568  50.274  0.00  0.00    -0.223 NA
ATOM     10  C   UNL d   1      61.432  46.811  50.704  0.00  0.00     0.002 A 
ATOM     11  C   UNL d   1      60.636  46.951  50.814  0.00  0.00     0.002 A 
ATOM     12  C   UNL d   1      61.722  46.046  50.757  0.00  0.00     0.000 C 
ATOM     13  C   UNL d   1      60.125  46.334  50.978  0.00  0.00     0.000 C 
ATOM     14  C   UNL d   1      61.059  49.708  50.385  0.00  0.00     0.193 A 
ENDBRANCH   1   4
BRANCH   1  15
ATOM     15  C   UNL d   1      58.806  49.392  50.793  0.00  0.00     0.128 A 
ATOM     16  C   UNL d   1      58.235  49.395  50.093  0.00  0.00     0.039 A 
ATOM     17  C   UNL d   1      57.363  49.550  50.224  0.00  0.00     0.095 A 
ATOM     18  C   UNL d   1      57.057  49.702  51.048  0.00  0.00     0.026 A 
ATOM     19  C   UNL d   1      57.619  49.701  51.747  0.00  0.00     0.027 A 
ATOM     20  C   UNL d   1      58.488  49.545  51.611  0.00  0.00     0.106 A 
BRANCH  17  21
ATOM     21  O   UNL d   1      56.798  49.553  49.538  0.00  0.00    -0.328 OA
ATOM     22  C   UNL d   1      56.283  48.823  49.383  0.00  0.00     0.181 C 
ENDBRANCH  17  21
BRANCH  20  23
ATOM     23  O   UNL d   1      59.059  49.543  52.309  0.00  0.00    -0.327 OA
ATOM     24  C   UNL d   1      58.816  49.133  53.074  0.00  0.00     0.181 C 
ENDBRANCH  20  23
ENDBRANCH   1  15
TORSDOF 4
ENDMDL
