MODEL 1
REMARK VINA RESULT:      -6.7      0.000      0.000
REMARK  3 active torsions:
REMARK  status: ('A' for Active; 'I' for Inactive)
REMARK    1  A    between atoms: N_5  and  C_1 
REMARK    2  A    between atoms: C_8  and  C_2 
REMARK       I    between atoms: C_7  and  N_5 
REMARK       I    between atoms: N_9  and  C_7 
REMARK    3  A    between atoms: C_13  and  N_9 
ROOT
ATOM      1  C   UNL d   1     -49.117  13.941  22.528  0.00  0.00     0.120 A 
ATOM      2  C   UNL d   1     -49.697  14.528  22.533  0.00  0.00     0.084 A 
ATOM      3  S   UNL d   1     -49.443  13.312  22.129  0.00  0.00    -0.068 SA
ATOM      4  C   UNL d   1     -50.337  14.245  22.147  0.00  0.00     0.013 A 
ATOM      5  C   UNL d   1     -50.188  13.511  21.902  0.00  0.00     0.031 A 
ATOM      6  C   UNL d   1     -51.064  14.659  22.018  0.00  0.00     0.001 C 
ATOM      7  C   UNL d   1     -50.731  13.038  21.476  0.00  0.00     0.007 C 
ENDROOT
BRANCH   1   8
ATOM      8  N   UNL d   1     -47.845  14.034  23.098  0.00  0.00    -0.184 NA
ATOM      9  C   UNL d   1     -47.219  13.627  22.785  0.00  0.00     0.369 C 
ATOM     10  N   UNL d   1     -46.458  13.673  23.112  0.00  0.00    -0.191 NA
ATOM     11  O   UNL d   1     -47.343  13.153  22.121  0.00  0.00    -0.242 OA
BRANCH  10  12
ATOM     12  C   UNL d   1     -45.840  13.259  22.788  0.00  0.00     0.086 A 
ATOM     13  C   UNL d   1     -45.668  12.490  23.051  0.00  0.00     0.019 A 
ATOM     14  C   UNL d   1     -45.058  12.070  22.736  0.00  0.00     0.002 A 
ATOM     15  C   UNL d   1     -44.590  12.405  22.142  0.00  0.00     0.000 A 
ATOM     16  C   UNL d   1     -44.753  13.179  21.869  0.00  0.00     0.002 A 
ATOM     17  C   UNL d   1     -45.385  13.587  22.209  0.00  0.00     0.019 A 
ENDBRANCH  10  12
ENDBRANCH   1   8
BRANCH   2  18
ATOM     18  C   UNL d   1     -49.621  15.279  22.880  0.00  0.00     0.299 C 
ATOM     19  O   UNL d   1     -49.339  15.922  22.436  0.00  0.00    -0.264 OA
ATOM     20  N   UNL d   1     -49.826  15.403  23.677  0.00  0.00    -0.102 N 
ENDBRANCH   2  18
TORSDOF 3
ENDMDL
MODEL 2
REMARK VINA RESULT:      -6.6      1.316      4.610
REMARK  3 active torsions:
REMARK  status: ('A' for Active; 'I' for Inactive)
REMARK    1  A    between atoms: N_5  and  C_1 
REMARK    2  A    between atoms: C_8  and  C_2 
REMARK       I    between atoms: C_7  and  N_5 
REMARK       I    between atoms: N_9  and  C_7 
REMARK    3  A    between atoms: C_13  and  N_9 
ROOT
ATOM      1  C   UNL d   1     -46.849  13.065  22.942  0.00  0.00     0.120 A 
ATOM      2  C   UNL d   1     -46.064  12.862  22.793  0.00  0.00     0.084 A 
ATOM      3  S   UNL d   1     -47.182  12.416  23.301  0.00  0.00    -0.068 SA
ATOM      4  C   UNL d   1     -45.948  12.117  23.058  0.00  0.00     0.013 A 
ATOM      5  C   UNL d   1     -46.621  11.844  23.366  0.00  0.00     0.031 A 
ATOM      6  C   UNL d   1     -45.223  11.682  23.020  0.00  0.00     0.001 C 
ATOM      7  C   UNL d   1     -46.710  11.082  23.698  0.00  0.00     0.007 C 
ENDROOT
BRANCH   1   8
ATOM      8  N   UNL d   1     -47.458  14.284  22.632  0.00  0.00    -0.184 NA
ATOM      9  C   UNL d   1     -48.242  14.410  22.793  0.00  0.00     0.369 C 
ATOM     10  N   UNL d   1     -48.617  15.128  22.614  0.00  0.00    -0.191 NA
ATOM     11  O   UNL d   1     -48.679  13.805  23.146  0.00  0.00    -0.242 OA
BRANCH  10  12
ATOM     12  C   UNL d   1     -49.403  15.240  22.782  0.00  0.00     0.086 A 
ATOM     13  C   UNL d   1     -49.630  15.634  23.476  0.00  0.00     0.019 A 
ATOM     14  C   UNL d   1     -50.407  15.751  23.653  0.00  0.00     0.002 A 
ATOM     15  C   UNL d   1     -50.993  15.476  23.138  0.00  0.00     0.000 A 
ATOM     16  C   UNL d   1     -50.776  15.077  22.435  0.00  0.00     0.002 A 
ATOM     17  C   UNL d   1     -49.973  14.971  22.279  0.00  0.00     0.019 A 
ENDBRANCH  10  12
ENDBRANCH   1   8
BRANCH   2  18
ATOM     18  C   UNL d   1     -45.499  13.351  22.430  0.00  0.00     0.299 C 
ATOM     19  O   UNL d   1     -45.185  14.005  22.836  0.00  0.00    -0.264 OA
ATOM     20  N   UNL d   1     -45.236  13.197  21.656  0.00  0.00    -0.102 N 
ENDBRANCH   2  18
TORSDOF 3
ENDMDL
MODEL 3
REMARK VINA RESULT:      -5.8      8.849      9.681
REMARK  3 active torsions:
REMARK  status: ('A' for Active; 'I' for Inactive)
REMARK    1  A    between atoms: N_5  and  C_1 
REMARK    2  A    between atoms: C_8  and  C_2 
REMARK       I    between atoms: C_7  and  N_5 
REMARK       I    between atoms: N_9  and  C_7 
REMARK    3  A    between atoms: C_13  and  N_9 
ROOT
ATOM      1  C   UNL d   1     -39.489  14.127  18.283  0.00  0.00     0.120 A 
ATOM      2  C   UNL d   1     -39.696  14.485  17.569  0.00  0.00     0.084 A 
ATOM      3  S   UNL d   1     -38.871  13.629  18.110  0.00  0.00    -0.068 SA
ATOM      4  C   UNL d   1     -39.211  14.200  17.001  0.00  0.00     0.013 A 
ATOM      5  C   UNL d   1     -38.711  13.683  17.323  0.00  0.00     0.031 A 
ATOM      6  C   UNL d   1     -39.225  14.414  16.182  0.00  0.00     0.001 C 
ATOM      7  C   UNL d   1     -38.122  13.272  16.896  0.00  0.00     0.007 C 
ENDROOT
BRANCH   1   8
ATOM      8  N   UNL d   1     -40.093  14.351  19.523  0.00  0.00    -0.184 NA
ATOM      9  C   UNL d   1     -39.662  14.315  20.208  0.00  0.00     0.369 C 
ATOM     10  N   UNL d   1     -40.006  14.445  20.951  0.00  0.00    -0.191 NA
ATOM     11  O   UNL d   1     -38.856  14.143  20.163  0.00  0.00    -0.242 OA
BRANCH  10  12
ATOM     12  C   UNL d   1     -39.562  14.406  21.629  0.00  0.00     0.086 A 
ATOM     13  C   UNL d   1     -39.267  15.100  21.976  0.00  0.00     0.019 A 
ATOM     14  C   UNL d   1     -38.825  15.073  22.648  0.00  0.00     0.002 A 
ATOM     15  C   UNL d   1     -38.659  14.345  23.003  0.00  0.00     0.000 A 
ATOM     16  C   UNL d   1     -38.950  13.639  22.663  0.00  0.00     0.002 A 
ATOM     17  C   UNL d   1     -39.401  13.695  21.974  0.00  0.00     0.019 A 
ENDBRANCH  10  12
ENDBRANCH   1   8
BRANCH   2  18
ATOM     18  C   UNL d   1     -40.304  15.043  17.467  0.00  0.00     0.299 C 
ATOM     19  O   UNL d   1     -41.083  14.795  17.325  0.00  0.00    -0.264 OA
ATOM     20  N   UNL d   1     -40.144  15.859  17.505  0.00  0.00    -0.102 N 
ENDBRANCH   2  18
TORSDOF 3
ENDMDL
MODEL 4
REMARK VINA RESULT:      -5.2      1.458      1.914
REMARK  3 active torsions:
REMARK  status: ('A' for Active; 'I' for Inactive)
REMARK    1  A    between atoms: N_5  and  C_1 
REMARK    2  A    between atoms: C_8  and  C_2 
REMARK       I    between atoms: C_7  and  N_5 
REMARK       I    between atoms: N_9  and  C_7 
REMARK    3  A    between atoms: C_13  and  N_9 
ROOT
ATOM      1  C   UNL d   1     -48.474  12.862  23.189  0.00  0.00     0.120 A 
ATOM      2  C   UNL d   1     -49.003  13.414  22.880  0.00  0.00     0.084 A 
ATOM      3  S   UNL d   1     -48.931  12.264  23.495  0.00  0.00    -0.068 SA
ATOM      4  C   UNL d   1     -49.744  13.141  23.005  0.00  0.00     0.013 A 
ATOM      5  C   UNL d   1     -49.705  12.446  23.375  0.00  0.00     0.031 A 
ATOM      6  C   UNL d   1     -50.462  13.528  22.778  0.00  0.00     0.001 C 
ATOM      7  C   UNL d   1     -50.373  11.994  23.597  0.00  0.00     0.007 C 
ENDROOT
BRANCH   1   8
ATOM      8  N   UNL d   1     -47.080  12.960  23.177  0.00  0.00    -0.184 NA
ATOM      9  C   UNL d   1     -46.616  12.298  23.233  0.00  0.00     0.369 C 
ATOM     10  N   UNL d   1     -45.788  12.340  23.227  0.00  0.00    -0.191 NA
ATOM     11  O   UNL d   1     -46.981  11.560  23.297  0.00  0.00    -0.242 OA
BRANCH  10  12
ATOM     12  C   UNL d   1     -45.336  11.669  23.283  0.00  0.00     0.086 A 
ATOM     13  C   UNL d   1     -44.563  11.659  22.981  0.00  0.00     0.019 A 
ATOM     14  C   UNL d   1     -44.106  10.998  23.032  0.00  0.00     0.002 A 
ATOM     15  C   UNL d   1     -44.406  10.315  23.390  0.00  0.00     0.000 A 
ATOM     16  C   UNL d   1     -45.183  10.314  23.698  0.00  0.00     0.002 A 
ATOM     17  C   UNL d   1     -45.630  11.004  23.633  0.00  0.00     0.019 A 
ENDBRANCH  10  12
ENDBRANCH   1   8
BRANCH   2  18
ATOM     18  C   UNL d   1     -48.795  14.126  22.507  0.00  0.00     0.299 C 
ATOM     19  O   UNL d   1     -48.823  14.192  21.679  0.00  0.00    -0.264 OA
ATOM     20  N   UNL d   1     -48.555  14.787  22.952  0.00  0.00    -0.102 N 
ENDBRANCH   2  18
TORSDOF 3
ENDMDL
