MODEL 1
REMARK VINA RESULT:     -10.4      0.000      0.000
REMARK  2 active torsions:
REMARK  status: ('A' for Active; 'I' for Inactive)
REMARK    1  A    between atoms: C_8  and  N_1 
REMARK    2  A    between atoms: N_5  and  C_9 
ROOT
ATOM      1  N   UNL d   1      52.328  33.494  53.381  0.00  0.00    -0.192 N 
ATOM      2  C   UNL d   1      52.750  33.983  53.900  0.00  0.00     0.281 A 
ATOM      3  N   UNL d   1      52.580  32.749  53.242  0.00  0.00    -0.120 NA
ATOM      4  C   UNL d   1      53.261  32.458  53.609  0.00  0.00     0.296 A 
ATOM      5  C   UNL d   1      53.431  33.708  54.275  0.00  0.00     0.063 A 
ATOM      6  C   UNL d   1      53.702  32.906  54.124  0.00  0.00     0.064 A 
ATOM      7  O   UNL d   1      52.498  34.758  54.053  0.00  0.00    -0.265 OA
ATOM      8  O   UNL d   1      53.508  31.702  53.460  0.00  0.00    -0.264 OA
ATOM      9  C   UNL d   1      53.858  34.182  54.791  0.00  0.00     0.005 A 
ATOM     10  C   UNL d   1      54.374  32.652  54.501  0.00  0.00     0.005 A 
ATOM     11  C   UNL d   1      54.545  33.886  55.161  0.00  0.00     0.000 A 
ATOM     12  C   UNL d   1      54.802  33.139  55.024  0.00  0.00     0.000 A 
ENDROOT
BRANCH   1  13
ATOM     13  C   UNL d   1      51.662  33.757  53.012  0.00  0.00     0.086 A 
ATOM     14  C   UNL d   1      51.708  34.102  52.263  0.00  0.00     0.021 A 
ATOM     15  C   UNL d   1      51.000  34.370  51.896  0.00  0.00     0.025 A 
ATOM     16  C   UNL d   1      50.268  34.282  52.294  0.00  0.00     0.127 A 
ATOM     17  C   UNL d   1      50.267  33.940  53.025  0.00  0.00     0.025 A 
ATOM     18  C   UNL d   1      50.930  33.673  53.403  0.00  0.00     0.021 A 
BRANCH  16  19
ATOM     19  N   UNL d   1      49.567  34.551  51.923  0.00  0.00    -0.114 N 
ATOM     20  O   UNL d   1      49.034  34.970  52.370  0.00  0.00    -0.532 OA
ATOM     21  O   UNL d   1      49.386  34.414  51.124  0.00  0.00    -0.532 OA
ENDBRANCH  16  19
ENDBRANCH   1  13
TORSDOF 2
ENDMDL
MODEL 2
REMARK VINA RESULT:      -9.3      1.700      3.637
REMARK  2 active torsions:
REMARK  status: ('A' for Active; 'I' for Inactive)
REMARK    1  A    between atoms: C_8  and  N_1 
REMARK    2  A    between atoms: N_5  and  C_9 
ROOT
ATOM      1  N   UNL d   1      52.787  32.646  53.460  0.00  0.00    -0.192 N 
ATOM      2  C   UNL d   1      53.114  33.078  54.087  0.00  0.00     0.281 A 
ATOM      3  N   UNL d   1      52.422  33.027  52.861  0.00  0.00    -0.120 NA
ATOM      4  C   UNL d   1      52.365  33.851  52.856  0.00  0.00     0.296 A 
ATOM      5  C   UNL d   1      53.066  33.901  54.098  0.00  0.00     0.063 A 
ATOM      6  C   UNL d   1      52.673  34.310  53.452  0.00  0.00     0.064 A 
ATOM      7  O   UNL d   1      53.496  32.695  54.715  0.00  0.00    -0.265 OA
ATOM      8  O   UNL d   1      51.993  34.226  52.244  0.00  0.00    -0.264 OA
ATOM      9  C   UNL d   1      53.386  34.342  54.712  0.00  0.00     0.005 A 
ATOM     10  C   UNL d   1      52.635  35.121  53.478  0.00  0.00     0.005 A 
ATOM     11  C   UNL d   1      53.327  35.174  54.706  0.00  0.00     0.000 A 
ATOM     12  C   UNL d   1      52.962  35.561  54.106  0.00  0.00     0.000 A 
ENDROOT
BRANCH   1  13
ATOM     13  C   UNL d   1      52.831  31.842  53.444  0.00  0.00     0.086 A 
ATOM     14  C   UNL d   1      53.564  31.464  53.394  0.00  0.00     0.021 A 
ATOM     15  C   UNL d   1      53.587  30.623  53.378  0.00  0.00     0.025 A 
ATOM     16  C   UNL d   1      52.871  30.189  53.414  0.00  0.00     0.127 A 
ATOM     17  C   UNL d   1      52.176  30.596  53.463  0.00  0.00     0.025 A 
ATOM     18  C   UNL d   1      52.123  31.403  53.479  0.00  0.00     0.021 A 
BRANCH  16  19
ATOM     19  N   UNL d   1      52.901  29.352  53.398  0.00  0.00    -0.114 N 
ATOM     20  O   UNL d   1      52.604  28.971  52.746  0.00  0.00    -0.532 OA
ATOM     21  O   UNL d   1      53.216  28.889  54.012  0.00  0.00    -0.532 OA
ENDBRANCH  16  19
ENDBRANCH   1  13
TORSDOF 2
ENDMDL
MODEL 3
REMARK VINA RESULT:      -9.1      2.302      3.350
REMARK  2 active torsions:
REMARK  status: ('A' for Active; 'I' for Inactive)
REMARK    1  A    between atoms: C_8  and  N_1 
REMARK    2  A    between atoms: N_5  and  C_9 
ROOT
ATOM      1  N   UNL d   1      53.181  32.273  53.753  0.00  0.00    -0.192 N 
ATOM      2  C   UNL d   1      53.373  31.670  54.288  0.00  0.00     0.281 A 
ATOM      3  N   UNL d   1      52.943  32.089  53.013  0.00  0.00    -0.120 NA
ATOM      4  C   UNL d   1      52.885  31.300  52.772  0.00  0.00     0.296 A 
ATOM      5  C   UNL d   1      53.319  30.878  54.064  0.00  0.00     0.063 A 
ATOM      6  C   UNL d   1      53.063  30.681  53.267  0.00  0.00     0.064 A 
ATOM      7  O   UNL d   1      53.621  31.848  55.059  0.00  0.00    -0.265 OA
ATOM      8  O   UNL d   1      52.642  31.126  52.020  0.00  0.00    -0.264 OA
ATOM      9  C   UNL d   1      53.505  30.271  54.583  0.00  0.00     0.005 A 
ATOM     10  C   UNL d   1      53.016  29.897  53.063  0.00  0.00     0.005 A 
ATOM     11  C   UNL d   1      53.446  29.476  54.339  0.00  0.00     0.000 A 
ATOM     12  C   UNL d   1      53.207  29.286  53.597  0.00  0.00     0.000 A 
ENDROOT
BRANCH   1  13
ATOM     13  C   UNL d   1      53.232  33.048  53.966  0.00  0.00     0.086 A 
ATOM     14  C   UNL d   1      53.967  33.394  54.116  0.00  0.00     0.021 A 
ATOM     15  C   UNL d   1      53.996  34.206  54.337  0.00  0.00     0.025 A 
ATOM     16  C   UNL d   1      53.285  34.643  54.402  0.00  0.00     0.127 A 
ATOM     17  C   UNL d   1      52.587  34.268  54.247  0.00  0.00     0.025 A 
ATOM     18  C   UNL d   1      52.527  33.490  54.033  0.00  0.00     0.021 A 
BRANCH  16  19
ATOM     19  N   UNL d   1      53.320  35.450  54.623  0.00  0.00    -0.114 N 
ATOM     20  O   UNL d   1      53.072  35.654  55.368  0.00  0.00    -0.532 OA
ATOM     21  O   UNL d   1      53.596  36.054  54.123  0.00  0.00    -0.532 OA
ENDBRANCH  16  19
ENDBRANCH   1  13
TORSDOF 2
ENDMDL
MODEL 4
REMARK VINA RESULT:      -7.5      1.780      4.905
REMARK  2 active torsions:
REMARK  status: ('A' for Active; 'I' for Inactive)
REMARK    1  A    between atoms: C_8  and  N_1 
REMARK    2  A    between atoms: N_5  and  C_9 
ROOT
ATOM      1  N   UNL d   1      49.808  34.694  52.685  0.00  0.00    -0.192 N 
ATOM      2  C   UNL d   1      49.335  34.623  52.008  0.00  0.00     0.281 A 
ATOM      3  N   UNL d   1      49.586  35.183  53.277  0.00  0.00    -0.120 NA
ATOM      4  C   UNL d   1      48.887  35.622  53.223  0.00  0.00     0.296 A 
ATOM      5  C   UNL d   1      48.635  35.053  51.938  0.00  0.00     0.063 A 
ATOM      6  C   UNL d   1      48.397  35.580  52.576  0.00  0.00     0.064 A 
ATOM      7  O   UNL d   1      49.554  34.119  51.388  0.00  0.00    -0.265 OA
ATOM      8  O   UNL d   1      48.672  36.114  53.828  0.00  0.00    -0.264 OA
ATOM      9  C   UNL d   1      48.158  34.992  51.274  0.00  0.00     0.005 A 
ATOM     10  C   UNL d   1      47.706  35.996  52.490  0.00  0.00     0.005 A 
ATOM     11  C   UNL d   1      47.453  35.436  51.221  0.00  0.00     0.000 A 
ATOM     12  C   UNL d   1      47.226  35.928  51.812  0.00  0.00     0.000 A 
ENDROOT
BRANCH   1  13
ATOM     13  C   UNL d   1      50.492  34.277  52.759  0.00  0.00     0.086 A 
ATOM     14  C   UNL d   1      51.180  34.531  52.380  0.00  0.00     0.021 A 
ATOM     15  C   UNL d   1      51.885  34.080  52.471  0.00  0.00     0.025 A 
ATOM     16  C   UNL d   1      51.874  33.386  52.940  0.00  0.00     0.127 A 
ATOM     17  C   UNL d   1      51.181  33.171  53.293  0.00  0.00     0.025 A 
ATOM     18  C   UNL d   1      50.488  33.585  53.225  0.00  0.00     0.021 A 
BRANCH  16  19
ATOM     19  N   UNL d   1      52.578  32.941  53.026  0.00  0.00    -0.114 N 
ATOM     20  O   UNL d   1      53.104  33.164  53.603  0.00  0.00    -0.532 OA
ATOM     21  O   UNL d   1      52.769  32.283  52.556  0.00  0.00    -0.532 OA
ENDBRANCH  16  19
ENDBRANCH   1  13
TORSDOF 2
ENDMDL
MODEL 5
REMARK VINA RESULT:      -7.4      1.574      4.225
REMARK  2 active torsions:
REMARK  status: ('A' for Active; 'I' for Inactive)
REMARK    1  A    between atoms: C_8  and  N_1 
REMARK    2  A    between atoms: N_5  and  C_9 
ROOT
ATOM      1  N   UNL d   1      52.374  33.725  53.565  0.00  0.00    -0.192 N 
ATOM      2  C   UNL d   1      52.291  34.149  52.858  0.00  0.00     0.281 A 
ATOM      3  N   UNL d   1      51.758  33.307  53.854  0.00  0.00    -0.120 NA
ATOM      4  C   UNL d   1      51.034  33.292  53.456  0.00  0.00     0.296 A 
ATOM      5  C   UNL d   1      51.575  34.145  52.448  0.00  0.00     0.063 A 
ATOM      6  C   UNL d   1      50.913  33.695  52.761  0.00  0.00     0.064 A 
ATOM      7  O   UNL d   1      52.923  34.586  52.547  0.00  0.00    -0.265 OA
ATOM      8  O   UNL d   1      50.416  32.865  53.758  0.00  0.00    -0.264 OA
ATOM      9  C   UNL d   1      51.479  34.560  51.747  0.00  0.00     0.005 A 
ATOM     10  C   UNL d   1      50.215  33.701  52.345  0.00  0.00     0.005 A 
ATOM     11  C   UNL d   1      50.747  34.544  51.347  0.00  0.00     0.000 A 
ATOM     12  C   UNL d   1      50.126  34.126  51.633  0.00  0.00     0.000 A 
ENDROOT
BRANCH   1  13
ATOM     13  C   UNL d   1      53.071  33.725  53.969  0.00  0.00     0.086 A 
ATOM     14  C   UNL d   1      53.651  33.161  53.804  0.00  0.00     0.021 A 
ATOM     15  C   UNL d   1      54.371  33.180  54.239  0.00  0.00     0.025 A 
ATOM     16  C   UNL d   1      54.485  33.767  54.826  0.00  0.00     0.127 A 
ATOM     17  C   UNL d   1      53.894  34.300  54.956  0.00  0.00     0.025 A 
ATOM     18  C   UNL d   1      53.191  34.307  54.555  0.00  0.00     0.021 A 
BRANCH  16  19
ATOM     19  N   UNL d   1      55.204  33.780  55.255  0.00  0.00    -0.114 N 
ATOM     20  O   UNL d   1      55.897  33.847  54.838  0.00  0.00    -0.532 OA
ATOM     21  O   UNL d   1      55.249  33.730  56.083  0.00  0.00    -0.532 OA
ENDBRANCH  16  19
ENDBRANCH   1  13
TORSDOF 2
ENDMDL
