MODEL 1
REMARK VINA RESULT:      60.6      0.000      0.000
REMARK  2 active torsions:
REMARK  status: ('A' for Active; 'I' for Inactive)
REMARK       I    between atoms: N_2  and  C_1 
REMARK    1  A    between atoms: C_4  and  C_1 
REMARK    2  A    between atoms: C_3  and  N_2 
ROOT
ATOM      1  C   UNL d   1      59.437  49.037  50.856  0.00  0.00     0.085 A 
ATOM      2  C   UNL d   1      60.627  48.263  50.875  0.00  0.00     0.002 A 
ATOM      3  C   UNL d   1      59.809  48.327  50.969  0.00  0.00     0.018 A 
ATOM      4  C   UNL d   1      61.075  48.913  50.667  0.00  0.00     0.000 A 
ATOM      5  C   UNL d   1      61.005  47.546  50.989  0.00  0.00     0.000 A 
ATOM      6  C   UNL d   1      59.883  49.707  50.643  0.00  0.00     0.019 A 
ATOM      7  C   UNL d   1      60.703  49.643  50.549  0.00  0.00     0.002 A 
ATOM      8  C   UNL d   1      61.863  48.681  50.616  0.00  0.00     0.000 A 
ATOM      9  C   UNL d   1      61.808  47.652  50.859  0.00  0.00     0.000 A 
ATOM     10  C   UNL d   1      59.361  47.674  51.178  0.00  0.00     0.002 A 
ATOM     11  C   UNL d   1      59.737  46.931  51.298  0.00  0.00     0.000 A 
ATOM     12  C   UNL d   1      60.555  46.867  51.204  0.00  0.00     0.000 A 
ENDROOT
BRANCH   1  13
ATOM     13  N   UNL d   1      58.626  49.100  50.949  0.00  0.00    -0.206 NA
ATOM     14  C   UNL d   1      58.192  49.449  50.362  0.00  0.00     0.302 C 
ATOM     15  O   UNL d   1      58.567  49.700  49.753  0.00  0.00    -0.263 OA
BRANCH  14  16
ATOM     16  C   UNL d   1      57.370  49.544  50.394  0.00  0.00     0.158 A 
ATOM     17  O   UNL d   1      56.937  49.575  51.089  0.00  0.00    -0.300 OA
ATOM     18  C   UNL d   1      56.124  49.676  50.879  0.00  0.00     0.123 A 
ATOM     19  C   UNL d   1      56.071  49.706  50.071  0.00  0.00     0.029 A 
ATOM     20  C   UNL d   1      56.828  49.627  49.746  0.00  0.00     0.032 A 
ENDBRANCH  14  16
ENDBRANCH   1  13
TORSDOF 2
ENDMDL
