MODEL 1
REMARK VINA RESULT:      47.6      0.000      0.000
REMARK  6 active torsions:
REMARK  status: ('A' for Active; 'I' for Inactive)
REMARK    1  A    between atoms: S_5  and  C_2 
REMARK    2  A    between atoms: C_13  and  S_5 
REMARK    3  A    between atoms: N_17  and  C_10 
REMARK    4  A    between atoms: C_24  and  N_17 
REMARK    5  A    between atoms: C_25  and  C_24 
REMARK    6  A    between atoms: C_26  and  C_25 
ROOT
ATOM      1  C   UNL d   1      13.735  14.082  -3.570  0.00  0.00     0.198 A 
ATOM      2  C   UNL d   1      13.876  14.886  -3.578  0.00  0.00     0.227 A 
ATOM      3  N   UNL d   1      13.394  13.878  -4.282  0.00  0.00    -0.192 N 
ATOM      4  N   UNL d   1      13.878  13.502  -2.991  0.00  0.00    -0.205 NA
ATOM      5  N   UNL d   1      13.619  15.184  -4.304  0.00  0.00    -0.115 NA
ATOM      6  N   UNL d   1      13.322  14.559  -4.735  0.00  0.00    -0.058 NA
ATOM      7  C   UNL d   1      13.189  13.088  -4.429  0.00  0.00     0.096 A 
ATOM      8  C   UNL d   1      13.332  12.509  -3.849  0.00  0.00     0.083 A 
ATOM      9  C   UNL d   1      13.675  12.716  -3.136  0.00  0.00     0.172 A 
ATOM     10  S   UNL d   1      13.072  11.779  -4.150  0.00  0.00    -0.082 SA
ATOM     11  C   UNL d   1      12.841  12.713  -5.083  0.00  0.00     0.027 A 
ATOM     12  C   UNL d   1      12.769  11.908  -4.913  0.00  0.00     0.037 A 
ENDROOT
BRANCH   2  13
ATOM     13  S   UNL d   1      14.217  15.337  -2.972  0.00  0.00     0.231 S 
ATOM     14  O   UNL d   1      14.871  15.460  -3.466  0.00  0.00    -0.215 OA
ATOM     15  O   UNL d   1      13.566  15.216  -2.477  0.00  0.00    -0.215 OA
BRANCH  13  16
ATOM     16  C   UNL d   1      14.600  15.795  -2.399  0.00  0.00     0.090 A 
ATOM     17  C   UNL d   1      14.585  16.619  -2.452  0.00  0.00     0.012 A 
ATOM     18  C   UNL d   1      14.966  17.071  -1.883  0.00  0.00     0.007 A 
ATOM     19  C   UNL d   1      15.365  16.708  -1.254  0.00  0.00     0.035 A 
ATOM     20  C   UNL d   1      15.377  15.883  -1.205  0.00  0.00     0.007 A 
ATOM     21 BR   UNL d   1      15.745  17.160  -0.686  0.00  0.00    -0.049 Br
ATOM     22  C   UNL d   1      14.996  15.426  -1.775  0.00  0.00     0.012 A 
ENDBRANCH  13  16
ENDBRANCH   2  13
BRANCH   9  23
ATOM     23  N   UNL d   1      13.818  12.139  -2.559  0.00  0.00    -0.225 NA
BRANCH  23  24
ATOM     24  C   UNL d   1      14.119  12.359  -1.823  0.00  0.00     0.101 C 
BRANCH  24  25
ATOM     25  C   UNL d   1      14.340  11.780  -1.280  0.00  0.00     0.021 C 
BRANCH  25  26
ATOM     26  C   UNL d   1      14.279  11.927  -0.474  0.00  0.00     0.002 C 
ATOM     27  C   UNL d   1      14.958  12.041  -0.023  0.00  0.00     0.000 C 
ATOM     28  C   UNL d   1      13.540  11.961  -0.108  0.00  0.00     0.000 C 
ENDBRANCH  25  26
ENDBRANCH  24  25
ENDBRANCH  23  24
ENDBRANCH   9  23
TORSDOF 6
ENDMDL
