MODEL 1
REMARK VINA RESULT:      -6.7      0.000      0.000
REMARK  4 active torsions:
REMARK  status: ('A' for Active; 'I' for Inactive)
REMARK    1  A    between atoms: C_2  and  S_1 
REMARK    2  A    between atoms: N_3  and  S_1 
REMARK    3  A    between atoms: C_10  and  N_3 
REMARK    4  A    between atoms: C_5  and  C_10 
ROOT
ATOM      1  S   UNL d   1     -48.106  14.010  22.699  0.00  0.00     0.285 S 
ATOM      2  O   UNL d   1     -47.806  14.322  23.396  0.00  0.00    -0.198 OA
ATOM      3  O   UNL d   1     -48.419  13.690  21.982  0.00  0.00    -0.198 OA
ENDROOT
BRANCH   1   4
ATOM      4  C   UNL d   1     -48.860  14.377  22.861  0.00  0.00     0.105 A 
ATOM      5  C   UNL d   1     -49.480  13.931  23.182  0.00  0.00     0.013 A 
ATOM      6  C   UNL d   1     -50.204  14.291  23.335  0.00  0.00     0.001 A 
ATOM      7  C   UNL d   1     -50.828  13.828  23.661  0.00  0.00     0.000 C 
ATOM      8  C   UNL d   1     -50.313  15.089  23.171  0.00  0.00     0.000 A 
ATOM      9  C   UNL d   1     -49.694  15.525  22.853  0.00  0.00     0.001 A 
ATOM     10  C   UNL d   1     -51.063  15.455  23.331  0.00  0.00     0.000 C 
ATOM     11  C   UNL d   1     -48.965  15.173  22.696  0.00  0.00     0.013 A 
ENDBRANCH   1   4
BRANCH   1  12
ATOM     12  N   UNL d   1     -47.359  13.648  22.540  0.00  0.00    -0.155 NA
BRANCH  12  13
ATOM     13  C   UNL d   1     -46.637  13.740  22.901  0.00  0.00     0.137 C 
BRANCH  13  14
ATOM     14  C   UNL d   1     -45.990  13.290  22.651  0.00  0.00     0.120 A 
ATOM     15  O   UNL d   1     -45.762  12.512  22.920  0.00  0.00    -0.304 OA
ATOM     16  C   UNL d   1     -45.079  12.310  22.500  0.00  0.00     0.123 A 
ATOM     17  C   UNL d   1     -44.891  12.959  21.977  0.00  0.00     0.029 A 
ATOM     18  C   UNL d   1     -45.459  13.526  22.098  0.00  0.00     0.028 A 
ENDBRANCH  13  14
ENDBRANCH  12  13
ENDBRANCH   1  12
TORSDOF 4
ENDMDL
MODEL 2
REMARK VINA RESULT:      -6.7      1.257      2.137
REMARK  4 active torsions:
REMARK  status: ('A' for Active; 'I' for Inactive)
REMARK    1  A    between atoms: C_2  and  S_1 
REMARK    2  A    between atoms: N_3  and  S_1 
REMARK    3  A    between atoms: C_10  and  N_3 
REMARK    4  A    between atoms: C_5  and  C_10 
ROOT
ATOM      1  S   UNL d   1     -46.385  13.339  22.662  0.00  0.00     0.285 S 
ATOM      2  O   UNL d   1     -46.615  12.978  21.962  0.00  0.00    -0.198 OA
ATOM      3  O   UNL d   1     -46.151  13.712  23.384  0.00  0.00    -0.198 OA
ENDROOT
BRANCH   1   4
ATOM      4  C   UNL d   1     -47.193  13.574  22.806  0.00  0.00     0.105 A 
ATOM      5  C   UNL d   1     -47.450  14.334  22.600  0.00  0.00     0.013 A 
ATOM      6  C   UNL d   1     -48.230  14.553  22.742  0.00  0.00     0.001 A 
ATOM      7  C   UNL d   1     -48.480  15.328  22.529  0.00  0.00     0.000 C 
ATOM      8  C   UNL d   1     -48.754  14.020  23.085  0.00  0.00     0.000 A 
ATOM      9  C   UNL d   1     -48.494  13.268  23.286  0.00  0.00     0.001 A 
ATOM     10  C   UNL d   1     -49.559  14.252  23.229  0.00  0.00     0.000 C 
ATOM     11  C   UNL d   1     -47.713  13.039  23.149  0.00  0.00     0.013 A 
ENDBRANCH   1   4
BRANCH   1  12
ATOM     12  N   UNL d   1     -45.585  13.106  22.519  0.00  0.00    -0.155 NA
BRANCH  12  13
ATOM     13  C   UNL d   1     -45.175  13.017  21.824  0.00  0.00     0.137 C 
BRANCH  13  14
ATOM     14  C   UNL d   1     -44.394  12.745  21.837  0.00  0.00     0.120 A 
ATOM     15  O   UNL d   1     -44.072  12.105  22.303  0.00  0.00    -0.304 OA
ATOM     16  C   UNL d   1     -43.269  12.059  22.113  0.00  0.00     0.123 A 
ATOM     17  C   UNL d   1     -43.100  12.665  21.536  0.00  0.00     0.029 A 
ATOM     18  C   UNL d   1     -43.798  13.054  21.397  0.00  0.00     0.028 A 
ENDBRANCH  13  14
ENDBRANCH  12  13
ENDBRANCH   1  12
TORSDOF 4
ENDMDL
MODEL 3
REMARK VINA RESULT:      -6.6      1.030      4.369
REMARK  4 active torsions:
REMARK  status: ('A' for Active; 'I' for Inactive)
REMARK    1  A    between atoms: C_2  and  S_1 
REMARK    2  A    between atoms: N_3  and  S_1 
REMARK    3  A    between atoms: C_10  and  N_3 
REMARK    4  A    between atoms: C_5  and  C_10 
ROOT
ATOM      1  S   UNL d   1     -48.108  13.548  22.956  0.00  0.00     0.285 S 
ATOM      2  O   UNL d   1     -47.735  14.178  23.326  0.00  0.00    -0.198 OA
ATOM      3  O   UNL d   1     -48.490  12.897  22.575  0.00  0.00    -0.198 OA
ENDROOT
BRANCH   1   4
ATOM      4  C   UNL d   1     -47.374  13.111  22.962  0.00  0.00     0.105 A 
ATOM      5  C   UNL d   1     -46.708  13.410  22.572  0.00  0.00     0.013 A 
ATOM      6  C   UNL d   1     -46.005  12.983  22.582  0.00  0.00     0.001 A 
ATOM      7  C   UNL d   1     -45.333  13.297  22.182  0.00  0.00     0.000 C 
ATOM      8  C   UNL d   1     -45.962  12.264  22.977  0.00  0.00     0.000 A 
ATOM      9  C   UNL d   1     -46.626  11.973  23.362  0.00  0.00     0.001 A 
ATOM     10  C   UNL d   1     -45.232  11.827  22.984  0.00  0.00     0.000 C 
ATOM     11  C   UNL d   1     -47.336  12.393  23.358  0.00  0.00     0.013 A 
ENDBRANCH   1   4
BRANCH   1  12
ATOM     12  N   UNL d   1     -48.834  13.981  22.951  0.00  0.00    -0.155 NA
BRANCH  12  13
ATOM     13  C   UNL d   1     -48.974  14.781  22.936  0.00  0.00     0.137 C 
BRANCH  13  14
ATOM     14  C   UNL d   1     -49.741  15.069  23.048  0.00  0.00     0.120 A 
ATOM     15  O   UNL d   1     -50.447  14.852  22.618  0.00  0.00    -0.304 OA
ATOM     16  C   UNL d   1     -51.064  15.295  22.944  0.00  0.00     0.123 A 
ATOM     17  C   UNL d   1     -50.740  15.779  23.568  0.00  0.00     0.029 A 
ATOM     18  C   UNL d   1     -49.945  15.615  23.600  0.00  0.00     0.028 A 
ENDBRANCH  13  14
ENDBRANCH  12  13
ENDBRANCH   1  12
TORSDOF 4
ENDMDL
MODEL 4
REMARK VINA RESULT:      -6.1      2.112      2.353
REMARK  4 active torsions:
REMARK  status: ('A' for Active; 'I' for Inactive)
REMARK    1  A    between atoms: C_2  and  S_1 
REMARK    2  A    between atoms: N_3  and  S_1 
REMARK    3  A    between atoms: C_10  and  N_3 
REMARK    4  A    between atoms: C_5  and  C_10 
ROOT
ATOM      1  S   UNL d   1     -47.946  11.819  22.960  0.00  0.00     0.285 S 
ATOM      2  O   UNL d   1     -48.215  11.047  22.895  0.00  0.00    -0.198 OA
ATOM      3  O   UNL d   1     -47.671  12.617  23.025  0.00  0.00    -0.198 OA
ENDROOT
BRANCH   1   4
ATOM      4  C   UNL d   1     -48.699  12.105  22.676  0.00  0.00     0.105 A 
ATOM      5  C   UNL d   1     -49.383  11.998  23.129  0.00  0.00     0.013 A 
ATOM      6  C   UNL d   1     -50.105  12.276  22.849  0.00  0.00     0.001 A 
ATOM      7  C   UNL d   1     -50.795  12.162  23.319  0.00  0.00     0.000 C 
ATOM      8  C   UNL d   1     -50.148  12.658  22.123  0.00  0.00     0.000 A 
ATOM      9  C   UNL d   1     -49.466  12.761  21.678  0.00  0.00     0.001 A 
ATOM     10  C   UNL d   1     -50.898  12.943  21.838  0.00  0.00     0.000 C 
ATOM     11  C   UNL d   1     -48.737  12.486  21.950  0.00  0.00     0.013 A 
ENDBRANCH   1   4
BRANCH   1  12
ATOM     12  N   UNL d   1     -47.201  11.536  23.241  0.00  0.00    -0.155 NA
BRANCH  12  13
ATOM     13  C   UNL d   1     -46.463  11.876  23.224  0.00  0.00     0.137 C 
BRANCH  13  14
ATOM     14  C   UNL d   1     -45.790  11.408  23.334  0.00  0.00     0.120 A 
ATOM     15  O   UNL d   1     -45.745  10.637  23.698  0.00  0.00    -0.304 OA
ATOM     16  C   UNL d   1     -44.950  10.411  23.670  0.00  0.00     0.123 A 
ATOM     17  C   UNL d   1     -44.512  11.038  23.291  0.00  0.00     0.029 A 
ATOM     18  C   UNL d   1     -45.050  11.617  23.105  0.00  0.00     0.028 A 
ENDBRANCH  13  14
ENDBRANCH  12  13
ENDBRANCH   1  12
TORSDOF 4
ENDMDL
MODEL 5
REMARK VINA RESULT:      -5.6      8.443      9.479
REMARK  4 active torsions:
REMARK  status: ('A' for Active; 'I' for Inactive)
REMARK    1  A    between atoms: C_2  and  S_1 
REMARK    2  A    between atoms: N_3  and  S_1 
REMARK    3  A    between atoms: C_10  and  N_3 
REMARK    4  A    between atoms: C_5  and  C_10 
ROOT
ATOM      1  S   UNL d   1     -40.062  14.746  19.635  0.00  0.00     0.285 S 
ATOM      2  O   UNL d   1     -40.422  14.027  19.475  0.00  0.00    -0.198 OA
ATOM      3  O   UNL d   1     -39.689  15.487  19.803  0.00  0.00    -0.198 OA
ENDROOT
BRANCH   1   4
ATOM      4  C   UNL d   1     -39.767  14.433  20.373  0.00  0.00     0.105 A 
ATOM      5  C   UNL d   1     -39.011  14.096  20.410  0.00  0.00     0.013 A 
ATOM      6  C   UNL d   1     -38.734  13.796  21.124  0.00  0.00     0.001 A 
ATOM      7  C   UNL d   1     -37.964  13.455  21.151  0.00  0.00     0.000 C 
ATOM      8  C   UNL d   1     -39.202  13.832  21.798  0.00  0.00     0.000 A 
ATOM      9  C   UNL d   1     -39.950  14.168  21.755  0.00  0.00     0.001 A 
ATOM     10  C   UNL d   1     -38.910  13.521  22.534  0.00  0.00     0.000 C 
ATOM     11  C   UNL d   1     -40.238  14.471  21.044  0.00  0.00     0.013 A 
ENDBRANCH   1   4
BRANCH   1  12
ATOM     12  N   UNL d   1     -40.355  15.055  18.905  0.00  0.00    -0.155 NA
BRANCH  12  13
ATOM     13  C   UNL d   1     -40.389  14.722  18.164  0.00  0.00     0.137 C 
BRANCH  13  14
ATOM     14  C   UNL d   1     -40.670  15.166  17.525  0.00  0.00     0.120 A 
ATOM     15  O   UNL d   1     -41.483  15.323  17.317  0.00  0.00    -0.304 OA
ATOM     16  C   UNL d   1     -41.464  15.791  16.635  0.00  0.00     0.123 A 
ATOM     17  C   UNL d   1     -40.645  15.919  16.428  0.00  0.00     0.029 A 
ATOM     18  C   UNL d   1     -40.201  15.529  16.984  0.00  0.00     0.028 A 
ENDBRANCH  13  14
ENDBRANCH  12  13
ENDBRANCH   1  12
TORSDOF 4
ENDMDL
MODEL 6
REMARK VINA RESULT:      -5.4      8.681      9.203
REMARK  4 active torsions:
REMARK  status: ('A' for Active; 'I' for Inactive)
REMARK    1  A    between atoms: C_2  and  S_1 
REMARK    2  A    between atoms: N_3  and  S_1 
REMARK    3  A    between atoms: C_10  and  N_3 
REMARK    4  A    between atoms: C_5  and  C_10 
ROOT
ATOM      1  S   UNL d   1     -39.763  14.836  20.107  0.00  0.00     0.285 S 
ATOM      2  O   UNL d   1     -39.051  15.194  19.910  0.00  0.00    -0.198 OA
ATOM      3  O   UNL d   1     -40.498  14.468  20.306  0.00  0.00    -0.198 OA
ENDROOT
BRANCH   1   4
ATOM      4  C   UNL d   1     -40.050  14.974  19.314  0.00  0.00     0.105 A 
ATOM      5  C   UNL d   1     -39.866  14.442  18.706  0.00  0.00     0.013 A 
ATOM      6  C   UNL d   1     -40.146  14.581  17.945  0.00  0.00     0.001 A 
ATOM      7  C   UNL d   1     -39.953  14.034  17.335  0.00  0.00     0.000 C 
ATOM      8  C   UNL d   1     -40.606  15.243  17.788  0.00  0.00     0.000 A 
ATOM      9  C   UNL d   1     -40.785  15.766  18.394  0.00  0.00     0.001 A 
ATOM     10  C   UNL d   1     -40.893  15.381  16.999  0.00  0.00     0.000 C 
ATOM     11  C   UNL d   1     -40.509  15.636  19.161  0.00  0.00     0.013 A 
ENDBRANCH   1   4
BRANCH   1  12
ATOM     12  N   UNL d   1     -39.478  14.701  20.891  0.00  0.00    -0.155 NA
BRANCH  12  13
ATOM     13  C   UNL d   1     -39.587  14.072  21.393  0.00  0.00     0.137 C 
BRANCH  13  14
ATOM     14  C   UNL d   1     -39.170  14.037  22.107  0.00  0.00     0.120 A 
ATOM     15  O   UNL d   1     -39.062  14.663  22.678  0.00  0.00    -0.304 OA
ATOM     16  C   UNL d   1     -38.606  14.345  23.290  0.00  0.00     0.123 A 
ATOM     17  C   UNL d   1     -38.436  13.531  23.095  0.00  0.00     0.029 A 
ATOM     18  C   UNL d   1     -38.791  13.384  22.380  0.00  0.00     0.028 A 
ENDBRANCH  13  14
ENDBRANCH  12  13
ENDBRANCH   1  12
TORSDOF 4
ENDMDL
