MODEL 1
REMARK VINA RESULT:      77.0      0.000      0.000
REMARK  3 active torsions:
REMARK  status: ('A' for Active; 'I' for Inactive)
REMARK    1  A    between atoms: N_4  and  C_8 
REMARK    2  A    between atoms: N_12  and  C_6 
REMARK       I    between atoms: C_11  and  N_12 
REMARK    3  A    between atoms: C_14  and  C_11 
ROOT
ATOM      1  C   UNL d   1     -50.988  26.557  35.690  0.00  0.00     0.279 C 
ATOM      2  N   UNL d   1     -51.476  26.318  36.269  0.00  0.00    -0.208 NA
ATOM      3  O   UNL d   1     -50.293  27.014  35.866  0.00  0.00    -0.265 OA
ENDROOT
BRANCH   1   4
ATOM      4  C   UNL d   1     -51.144  26.367  34.905  0.00  0.00     0.059 A 
ATOM      5  C   UNL d   1     -51.370  25.597  34.690  0.00  0.00     0.022 A 
ATOM      6  C   UNL d   1     -51.523  25.420  33.901  0.00  0.00     0.070 A 
ATOM      7  C   UNL d   1     -51.472  25.939  33.309  0.00  0.00     0.018 A 
ATOM      8  C   UNL d   1     -51.253  26.707  33.478  0.00  0.00     0.002 A 
ATOM      9  C   UNL d   1     -51.082  26.959  34.259  0.00  0.00     0.005 A 
BRANCH   6  10
ATOM     10  N   UNL d   1     -51.757  24.610  33.700  0.00  0.00    -0.242 N 
ATOM     11  C   UNL d   1     -51.188  24.064  33.457  0.00  0.00     0.267 A 
ATOM     12  C   UNL d   1     -51.586  23.358  33.311  0.00  0.00     0.066 A 
ATOM     13  O   UNL d   1     -50.324  24.232  33.377  0.00  0.00    -0.267 OA
ATOM     14  C   UNL d   1     -52.365  23.455  33.456  0.00  0.00     0.066 A 
ATOM     15  C   UNL d   1     -52.487  24.247  33.704  0.00  0.00     0.267 A 
ATOM     16  O   UNL d   1     -53.218  24.628  33.924  0.00  0.00    -0.267 OA
ENDBRANCH   6  10
ENDBRANCH   1   4
BRANCH   2  17
ATOM     17  C   UNL d   1     -51.314  26.515  37.084  0.00  0.00     0.089 A 
ATOM     18  C   UNL d   1     -51.746  26.194  37.707  0.00  0.00     0.080 A 
ATOM     19  C   UNL d   1     -52.394  25.645  37.716  0.00  0.00     0.283 A 
ATOM     20  C   UNL d   1     -51.581  26.395  38.540  0.00  0.00     0.064 A 
ATOM     21  N   UNL d   1     -52.611  25.518  38.506  0.00  0.00    -0.169 NA
ATOM     22  O   UNL d   1     -52.769  25.276  37.031  0.00  0.00    -0.265 OA
ATOM     23  C   UNL d   1     -52.113  25.978  39.013  0.00  0.00     0.282 A 
ATOM     24  O   UNL d   1     -52.135  26.022  39.868  0.00  0.00    -0.265 OA
ATOM     25  C   UNL d   1     -50.975  26.920  38.691  0.00  0.00     0.005 A 
ATOM     26  C   UNL d   1     -50.539  27.247  38.093  0.00  0.00     0.002 A 
ATOM     27  C   UNL d   1     -50.693  27.055  37.262  0.00  0.00     0.019 A 
ENDBRANCH   2  17
TORSDOF 3
ENDMDL
MODEL 2
REMARK VINA RESULT:      77.4      3.447      4.643
REMARK  3 active torsions:
REMARK  status: ('A' for Active; 'I' for Inactive)
REMARK    1  A    between atoms: N_4  and  C_8 
REMARK    2  A    between atoms: N_12  and  C_6 
REMARK       I    between atoms: C_11  and  N_12 
REMARK    3  A    between atoms: C_14  and  C_11 
ROOT
ATOM      1  C   UNL d   1     -49.273  28.360  34.321  0.00  0.00     0.279 C 
ATOM      2  N   UNL d   1     -49.214  29.151  34.341  0.00  0.00    -0.208 NA
ATOM      3  O   UNL d   1     -48.657  27.868  34.639  0.00  0.00    -0.265 OA
ENDROOT
BRANCH   1   4
ATOM      4  C   UNL d   1     -49.934  27.996  33.991  0.00  0.00     0.059 A 
ATOM      5  C   UNL d   1     -49.965  27.171  33.899  0.00  0.00     0.022 A 
ATOM      6  C   UNL d   1     -50.631  26.820  33.567  0.00  0.00     0.070 A 
ATOM      7  C   UNL d   1     -51.267  27.215  33.320  0.00  0.00     0.018 A 
ATOM      8  C   UNL d   1     -51.277  28.028  33.393  0.00  0.00     0.002 A 
ATOM      9  C   UNL d   1     -50.634  28.453  33.721  0.00  0.00     0.005 A 
BRANCH   6  10
ATOM     10  N   UNL d   1     -50.640  25.958  33.482  0.00  0.00    -0.242 N 
ATOM     11  C   UNL d   1     -49.931  25.542  33.412  0.00  0.00     0.267 A 
ATOM     12  C   UNL d   1     -50.130  24.746  33.341  0.00  0.00     0.066 A 
ATOM     13  O   UNL d   1     -49.125  25.907  33.416  0.00  0.00    -0.267 OA
ATOM     14  C   UNL d   1     -50.924  24.666  33.364  0.00  0.00     0.066 A 
ATOM     15  C   UNL d   1     -51.260  25.428  33.454  0.00  0.00     0.267 A 
ATOM     16  O   UNL d   1     -52.084  25.643  33.508  0.00  0.00    -0.267 OA
ENDBRANCH   6  10
ENDBRANCH   1   4
BRANCH   2  17
ATOM     17  C   UNL d   1     -48.530  29.528  34.684  0.00  0.00     0.089 A 
ATOM     18  C   UNL d   1     -48.409  30.342  34.641  0.00  0.00     0.080 A 
ATOM     19  C   UNL d   1     -48.874  30.959  34.289  0.00  0.00     0.283 A 
ATOM     20  C   UNL d   1     -47.709  30.727  34.991  0.00  0.00     0.064 A 
ATOM     21  N   UNL d   1     -48.481  31.678  34.417  0.00  0.00    -0.169 NA
ATOM     22  O   UNL d   1     -49.624  30.869  33.870  0.00  0.00    -0.265 OA
ATOM     23  C   UNL d   1     -47.766  31.538  34.847  0.00  0.00     0.282 A 
ATOM     24  O   UNL d   1     -47.186  32.114  35.102  0.00  0.00    -0.265 OA
ATOM     25  C   UNL d   1     -47.164  30.253  35.370  0.00  0.00     0.005 A 
ATOM     26  C   UNL d   1     -47.263  29.451  35.422  0.00  0.00     0.002 A 
ATOM     27  C   UNL d   1     -47.954  29.057  35.079  0.00  0.00     0.019 A 
ENDBRANCH   2  17
TORSDOF 3
ENDMDL
