MODEL 1
REMARK VINA RESULT:      -5.7      0.000      0.000
REMARK  4 active torsions:
REMARK  status: ('A' for Active; 'I' for Inactive)
REMARK    1  A    between atoms: N_4  and  C_1 
REMARK       I    between atoms: C_10  and  N_4 
REMARK    2  A    between atoms: C_7  and  C_8 
REMARK    3  A    between atoms: O_15  and  C_7 
REMARK    4  A    between atoms: C_17  and  O_15 
ROOT
ATOM      1  C   UNL d   1     -41.397-122.352 -53.570  0.00  0.00     0.197 A 
ATOM      2  N   UNL d   1     -41.228-121.703 -53.073  0.00  0.00    -0.221 NA
ATOM      3  S   UNL d   1     -41.563-123.000 -53.089  0.00  0.00    -0.047 SA
ATOM      4  C   UNL d   1     -41.500-122.769 -52.297  0.00  0.00     0.050 A 
ATOM      5  C   UNL d   1     -41.291-121.960 -52.287  0.00  0.00     0.090 A 
ATOM      6  C   UNL d   1     -41.500-122.787 -50.878  0.00  0.00     0.064 A 
ATOM      7  C   UNL d   1     -41.603-123.178 -51.588  0.00  0.00     0.013 A 
ATOM      8  C   UNL d   1     -41.189-121.577 -51.568  0.00  0.00     0.020 A 
ATOM      9  C   UNL d   1     -41.291-121.978 -50.868  0.00  0.00     0.007 A 
ENDROOT
BRANCH   6  10
ATOM     10  C   UNL d   1     -41.600-123.184 -50.160  0.00  0.00     0.300 C 
ATOM     11  O   UNL d   1     -41.123-123.815 -49.968  0.00  0.00    -0.259 OA
BRANCH  10  12
ATOM     12  O   UNL d   1     -42.194-122.930 -49.638  0.00  0.00    -0.271 OA
BRANCH  12  13
ATOM     13  C   UNL d   1     -42.380-123.377 -48.968  0.00  0.00     0.126 C 
ATOM     14  C   UNL d   1     -42.711-123.021 -48.315  0.00  0.00     0.029 C 
ENDBRANCH  12  13
ENDBRANCH  10  12
ENDBRANCH   6  10
BRANCH   1  15
ATOM     15  N   UNL d   1     -41.398-122.342 -54.397  0.00  0.00    -0.183 NA
ATOM     16  C   UNL d   1     -42.059-122.067 -54.806  0.00  0.00     0.281 C 
ATOM     17  O   UNL d   1     -42.729-121.800 -54.384  0.00  0.00    -0.265 OA
ATOM     18  C   UNL d   1     -42.060-122.057 -55.620  0.00  0.00     0.068 C 
ENDBRANCH   1  15
TORSDOF 4
ENDMDL
MODEL 2
REMARK VINA RESULT:      -5.2      1.514      4.215
REMARK  4 active torsions:
REMARK  status: ('A' for Active; 'I' for Inactive)
REMARK    1  A    between atoms: N_4  and  C_1 
REMARK       I    between atoms: C_10  and  N_4 
REMARK    2  A    between atoms: C_7  and  C_8 
REMARK    3  A    between atoms: O_15  and  C_7 
REMARK    4  A    between atoms: C_17  and  O_15 
ROOT
ATOM      1  C   UNL d   1     -41.569-123.185 -50.110  0.00  0.00     0.197 A 
ATOM      2  N   UNL d   1     -41.346-122.417 -50.353  0.00  0.00    -0.221 NA
ATOM      3  S   UNL d   1     -41.674-123.642 -50.787  0.00  0.00    -0.047 SA
ATOM      4  C   UNL d   1     -41.520-123.174 -51.452  0.00  0.00     0.050 A 
ATOM      5  C   UNL d   1     -41.315-122.411 -51.181  0.00  0.00     0.090 A 
ATOM      6  C   UNL d   1     -41.353-122.742 -52.794  0.00  0.00     0.064 A 
ATOM      7  C   UNL d   1     -41.537-123.334 -52.261  0.00  0.00     0.013 A 
ATOM      8  C   UNL d   1     -41.132-121.824 -51.725  0.00  0.00     0.020 A 
ATOM      9  C   UNL d   1     -41.148-121.979 -52.523  0.00  0.00     0.007 A 
ENDROOT
BRANCH   6  10
ATOM     10  C   UNL d   1     -41.366-122.889 -53.607  0.00  0.00     0.300 C 
ATOM     11  O   UNL d   1     -41.126-123.610 -53.900  0.00  0.00    -0.259 OA
BRANCH  10  12
ATOM     12  O   UNL d   1     -41.627-122.290 -54.120  0.00  0.00    -0.271 OA
BRANCH  12  13
ATOM     13  C   UNL d   1     -41.784-122.460 -54.914  0.00  0.00     0.126 C 
ATOM     14  C   UNL d   1     -42.180-121.922 -55.379  0.00  0.00     0.029 C 
ENDBRANCH  12  13
ENDBRANCH  10  12
ENDBRANCH   6  10
BRANCH   1  15
ATOM     15  N   UNL d   1     -41.666-123.436 -49.328  0.00  0.00    -0.183 NA
ATOM     16  C   UNL d   1     -42.376-123.292 -48.933  0.00  0.00     0.281 C 
ATOM     17  O   UNL d   1     -42.996-122.891 -49.324  0.00  0.00    -0.265 OA
ATOM     18  C   UNL d   1     -42.471-123.539 -48.164  0.00  0.00     0.068 C 
ENDBRANCH   1  15
TORSDOF 4
ENDMDL
MODEL 3
REMARK VINA RESULT:      -4.9      1.497      4.302
REMARK  4 active torsions:
REMARK  status: ('A' for Active; 'I' for Inactive)
REMARK    1  A    between atoms: N_4  and  C_1 
REMARK       I    between atoms: C_10  and  N_4 
REMARK    2  A    between atoms: C_7  and  C_8 
REMARK    3  A    between atoms: O_15  and  C_7 
REMARK    4  A    between atoms: C_17  and  O_15 
ROOT
ATOM      1  C   UNL d   1     -41.526-122.979 -50.165  0.00  0.00     0.197 A 
ATOM      2  N   UNL d   1     -41.269-123.598 -50.663  0.00  0.00    -0.221 NA
ATOM      3  S   UNL d   1     -41.714-122.335 -50.643  0.00  0.00    -0.047 SA
ATOM      4  C   UNL d   1     -41.580-122.540 -51.433  0.00  0.00     0.050 A 
ATOM      5  C   UNL d   1     -41.303-123.327 -51.446  0.00  0.00     0.090 A 
ATOM      6  C   UNL d   1     -41.489-122.485 -52.848  0.00  0.00     0.064 A 
ATOM      7  C   UNL d   1     -41.671-122.123 -52.139  0.00  0.00     0.013 A 
ATOM      8  C   UNL d   1     -41.123-123.682 -52.164  0.00  0.00     0.020 A 
ATOM      9  C   UNL d   1     -41.212-123.273 -52.861  0.00  0.00     0.007 A 
ENDROOT
BRANCH   6  10
ATOM     10  C   UNL d   1     -41.575-122.079 -53.563  0.00  0.00     0.300 C 
ATOM     11  O   UNL d   1     -41.123-121.421 -53.721  0.00  0.00    -0.259 OA
BRANCH  10  12
ATOM     12  O   UNL d   1     -42.130-122.353 -54.118  0.00  0.00    -0.271 OA
BRANCH  12  13
ATOM     13  C   UNL d   1     -42.209-121.977 -54.850  0.00  0.00     0.126 C 
ATOM     14  C   UNL d   1     -42.754-122.243 -55.392  0.00  0.00     0.029 C 
ENDBRANCH  12  13
ENDBRANCH  10  12
ENDBRANCH   6  10
BRANCH   1  15
ATOM     15  N   UNL d   1     -41.579-123.011 -49.341  0.00  0.00    -0.183 NA
ATOM     16  C   UNL d   1     -42.277-123.262 -48.981  0.00  0.00     0.281 C 
ATOM     17  O   UNL d   1     -42.931-123.485 -49.451  0.00  0.00    -0.265 OA
ATOM     18  C   UNL d   1     -42.330-123.294 -48.170  0.00  0.00     0.068 C 
ENDBRANCH   1  15
TORSDOF 4
ENDMDL
