MODEL 1
REMARK VINA RESULT:     112.1      0.000      0.000
REMARK  7 active torsions:
REMARK  status: ('A' for Active; 'I' for Inactive)
REMARK    1  A    between atoms: C_7  and  C_1 
REMARK    2  A    between atoms: C_10  and  C_2 
REMARK    3  A    between atoms: S_12  and  C_5 
REMARK    4  A    between atoms: C_11  and  C_6 
REMARK    5  A    between atoms: O_15  and  C_7 
REMARK    6  A    between atoms: C_21  and  S_12 
REMARK    7  A    between atoms: C_22  and  O_15 
ROOT
ATOM      1  C   UNL d   1      58.533  48.368  50.639  0.00  0.00     0.082 A 
ATOM      2  C   UNL d   1      57.736  48.125  50.503  0.00  0.00     0.087 A 
ATOM      3  C   UNL d   1      58.870  47.073  51.086  0.00  0.00     0.092 A 
ATOM      4  N   UNL d   1      57.523  47.323  50.672  0.00  0.00    -0.238 NA
ATOM      5  C   UNL d   1      58.096  46.816  50.960  0.00  0.00     0.120 A 
ATOM      6  C   UNL d   1      59.088  47.843  50.928  0.00  0.00     0.020 A 
ATOM      7  C   UNL d   1      59.448  46.535  51.384  0.00  0.00     0.103 C 
ATOM      8  N   UNL d   1      60.031  45.996  51.683  0.00  0.00    -0.191 NA
ENDROOT
BRANCH   6   9
ATOM      9  C   UNL d   1      59.861  48.100  51.054  0.00  0.00     0.020 A 
ATOM     10  C   UNL d   1      60.022  48.604  51.686  0.00  0.00     0.099 A 
ATOM     11  N   UNL d   1      60.796  48.862  51.812  0.00  0.00    -0.242 NA
ATOM     12  C   UNL d   1      61.408  48.615  51.307  0.00  0.00     0.099 A 
ATOM     13  C   UNL d   1      61.231  48.110  50.678  0.00  0.00     0.021 A 
ATOM     14  C   UNL d   1      60.458  47.853  50.551  0.00  0.00     0.003 A 
ENDBRANCH   6   9
BRANCH   5  15
ATOM     15  S   UNL d   1      57.869  46.009  51.126  0.00  0.00    -0.067 SA
BRANCH  15  16
ATOM     16  C   UNL d   1      57.110  45.838  51.432  0.00  0.00     0.037 C 
ATOM     17  C   UNL d   1      56.723  45.155  51.212  0.00  0.00     0.007 C 
ENDBRANCH  15  16
ENDBRANCH   5  15
BRANCH   1  18
ATOM     18  C   UNL d   1      58.746  49.170  50.471  0.00  0.00     0.302 C 
ATOM     19  O   UNL d   1      58.749  49.706  51.101  0.00  0.00    -0.259 OA
BRANCH  18  20
ATOM     20  O   UNL d   1      58.934  49.386  49.722  0.00  0.00    -0.271 OA
BRANCH  20  21
ATOM     21  C   UNL d   1      59.680  49.707  49.548  0.00  0.00     0.126 C 
ATOM     22  C   UNL d   1      60.065  49.524  48.842  0.00  0.00     0.029 C 
ENDBRANCH  20  21
ENDBRANCH  18  20
ENDBRANCH   1  18
BRANCH   2  23
ATOM     23  C   UNL d   1      57.177  48.648  50.214  0.00  0.00     0.018 A 
ATOM     24  C   UNL d   1      57.085  48.746  49.418  0.00  0.00     0.002 A 
ATOM     25  C   UNL d   1      56.521  49.275  49.121  0.00  0.00     0.000 A 
ATOM     26  C   UNL d   1      56.046  49.707  49.639  0.00  0.00     0.000 A 
ATOM     27  C   UNL d   1      56.145  49.601  50.471  0.00  0.00     0.000 A 
ATOM     28  C   UNL d   1      56.707  49.075  50.741  0.00  0.00     0.002 A 
ENDBRANCH   2  23
TORSDOF 7
ENDMDL
