MODEL 1
REMARK VINA RESULT:      31.7      0.000      0.000
REMARK  4 active torsions:
REMARK  status: ('A' for Active; 'I' for Inactive)
REMARK    1  A    between atoms: C_7  and  C_1 
REMARK    2  A    between atoms: C_9  and  C_3 
REMARK    3  A    between atoms: O_13  and  C_7 
REMARK    4  A    between atoms: C_18  and  O_13 
ROOT
ATOM      1  C   UNL d   1     -51.250  25.079  33.800  0.00  0.00     0.099 A 
ATOM      2  C   UNL d   1     -50.472  25.299  33.729  0.00  0.00     0.093 A 
ATOM      3  C   UNL d   1     -51.466  24.268  33.711  0.00  0.00     0.093 A 
ATOM      4  C   UNL d   1     -50.107  23.934  33.485  0.00  0.00     0.369 A 
ATOM      5  N   UNL d   1     -49.884  24.716  33.568  0.00  0.00    -0.191 NA
ATOM      6  N   UNL d   1     -50.905  23.708  33.557  0.00  0.00    -0.191 NA
ATOM      7  O   UNL d   1     -49.509  23.369  33.326  0.00  0.00    -0.242 OA
ATOM      8  C   UNL d   1     -50.251  26.086  33.813  0.00  0.00     0.021 C 
ENDROOT
BRANCH   3   9
ATOM      9  C   UNL d   1     -52.267  24.040  33.784  0.00  0.00     0.018 A 
ATOM     10  C   UNL d   1     -52.850  24.416  33.307  0.00  0.00     0.002 A 
ATOM     11  C   UNL d   1     -53.637  24.193  33.378  0.00  0.00     0.000 A 
ATOM     12  C   UNL d   1     -53.847  23.593  33.927  0.00  0.00     0.000 A 
ATOM     13  C   UNL d   1     -53.275  23.236  34.383  0.00  0.00     0.000 A 
ATOM     14  C   UNL d   1     -52.477  23.462  34.311  0.00  0.00     0.002 A 
ENDBRANCH   3   9
BRANCH   1  15
ATOM     15  C   UNL d   1     -51.837  25.655  33.959  0.00  0.00     0.303 C 
ATOM     16  O   UNL d   1     -52.048  25.841  34.734  0.00  0.00    -0.259 OA
BRANCH  15  17
ATOM     17  O   UNL d   1     -52.196  26.028  33.335  0.00  0.00    -0.271 OA
BRANCH  17  18
ATOM     18  C   UNL d   1     -52.514  26.784  33.439  0.00  0.00     0.126 C 
ATOM     19  C   UNL d   1     -52.026  27.424  33.517  0.00  0.00     0.029 C 
ENDBRANCH  17  18
ENDBRANCH  15  17
ENDBRANCH   1  15
TORSDOF 4
ENDMDL
MODEL 2
REMARK VINA RESULT:      33.4      0.786      1.062
REMARK  4 active torsions:
REMARK  status: ('A' for Active; 'I' for Inactive)
REMARK    1  A    between atoms: C_7  and  C_1 
REMARK    2  A    between atoms: C_9  and  C_3 
REMARK    3  A    between atoms: O_13  and  C_7 
REMARK    4  A    between atoms: C_18  and  O_13 
ROOT
ATOM      1  C   UNL d   1     -51.011  25.770  33.651  0.00  0.00     0.099 A 
ATOM      2  C   UNL d   1     -50.350  26.238  33.607  0.00  0.00     0.093 A 
ATOM      3  C   UNL d   1     -50.938  24.932  33.579  0.00  0.00     0.093 A 
ATOM      4  C   UNL d   1     -49.537  25.071  33.423  0.00  0.00     0.369 A 
ATOM      5  N   UNL d   1     -49.593  25.884  33.490  0.00  0.00    -0.191 NA
ATOM      6  N   UNL d   1     -50.215  24.591  33.468  0.00  0.00    -0.191 NA
ATOM      7  O   UNL d   1     -48.776  24.738  33.307  0.00  0.00    -0.242 OA
ATOM      8  C   UNL d   1     -50.409  27.054  33.675  0.00  0.00     0.021 C 
ENDROOT
BRANCH   3   9
ATOM      9  C   UNL d   1     -51.620  24.450  33.625  0.00  0.00     0.018 A 
ATOM     10  C   UNL d   1     -51.596  23.668  33.316  0.00  0.00     0.002 A 
ATOM     11  C   UNL d   1     -52.265  23.194  33.361  0.00  0.00     0.000 A 
ATOM     12  C   UNL d   1     -52.963  23.500  33.714  0.00  0.00     0.000 A 
ATOM     13  C   UNL d   1     -52.975  24.258  34.009  0.00  0.00     0.000 A 
ATOM     14  C   UNL d   1     -52.296  24.738  33.964  0.00  0.00     0.002 A 
ENDBRANCH   3   9
BRANCH   1  15
ATOM     15  C   UNL d   1     -51.764  26.118  33.767  0.00  0.00     0.303 C 
ATOM     16  O   UNL d   1     -52.283  25.825  34.336  0.00  0.00    -0.259 OA
BRANCH  15  17
ATOM     17  O   UNL d   1     -51.977  26.751  33.306  0.00  0.00    -0.271 OA
BRANCH  17  18
ATOM     18  C   UNL d   1     -52.463  27.341  33.620  0.00  0.00     0.126 C 
ATOM     19  C   UNL d   1     -52.324  28.118  33.446  0.00  0.00     0.029 C 
ENDBRANCH  17  18
ENDBRANCH  15  17
ENDBRANCH   1  15
TORSDOF 4
ENDMDL
