MODEL 1
REMARK VINA RESULT:      73.1      0.000      0.000
REMARK  4 active torsions:
REMARK  status: ('A' for Active; 'I' for Inactive)
REMARK    1  A    between atoms: C_14  and  N_3 
REMARK    2  A    between atoms: C_13  and  N_7 
REMARK       I    between atoms: N_9  and  C_10 
REMARK    3  A    between atoms: C_10  and  C_13 
REMARK    4  A    between atoms: C_19  and  C_14 
ROOT
ATOM      1  C   UNL d   1     -48.528  28.093  34.713  0.00  0.00     0.191 A 
ATOM      2  C   UNL d   1     -49.204  27.781  35.067  0.00  0.00     0.196 A 
ATOM      3  N   UNL d   1     -48.145  28.561  35.264  0.00  0.00    -0.191 N 
ATOM      4  N   UNL d   1     -48.347  27.904  33.920  0.00  0.00    -0.204 NA
ATOM      5  N   UNL d   1     -49.228  28.067  35.844  0.00  0.00    -0.122 NA
ATOM      6  N   UNL d   1     -48.571  28.548  35.957  0.00  0.00    -0.058 NA
ATOM      7  N   UNL d   1     -49.533  27.092  33.860  0.00  0.00    -0.249 N 
ATOM      8  C   UNL d   1     -49.706  27.286  34.653  0.00  0.00     0.289 A 
ATOM      9  C   UNL d   1     -48.853  27.401  33.490  0.00  0.00     0.187 A 
ATOM     10  O   UNL d   1     -50.382  26.974  35.007  0.00  0.00    -0.265 OA
ENDROOT
BRANCH   7  11
ATOM     11  C   UNL d   1     -50.024  26.599  33.430  0.00  0.00     0.146 C 
BRANCH  11  12
ATOM     12  C   UNL d   1     -50.834  26.710  33.400  0.00  0.00     0.283 C 
ATOM     13  N   UNL d   1     -51.362  26.066  33.369  0.00  0.00    -0.272 N 
ATOM     14  C   UNL d   1     -51.058  25.291  33.368  0.00  0.00     0.067 A 
ATOM     15  C   UNL d   1     -52.161  26.192  33.339  0.00  0.00     0.083 A 
ATOM     16  C   UNL d   1     -51.586  24.646  33.337  0.00  0.00     0.016 A 
ATOM     17  C   UNL d   1     -50.252  25.154  33.398  0.00  0.00     0.018 A 
ATOM     18  C   UNL d   1     -51.282  23.871  33.337  0.00  0.00     0.001 A 
ATOM     19  C   UNL d   1     -52.383  24.789  33.308  0.00  0.00     0.003 A 
ATOM     20  C   UNL d   1     -50.475  23.743  33.367  0.00  0.00     0.000 A 
ATOM     21  C   UNL d   1     -49.947  24.387  33.398  0.00  0.00     0.002 A 
ATOM     22  C   UNL d   1     -52.690  25.549  33.308  0.00  0.00     0.019 A 
ATOM     23  O   UNL d   1     -51.138  27.486  33.400  0.00  0.00    -0.265 OA
ENDBRANCH  11  12
ENDBRANCH   7  11
BRANCH   3  24
ATOM     24  C   UNL d   1     -47.441  28.978  35.133  0.00  0.00     0.104 C 
BRANCH  24  25
ATOM     25  C   UNL d   1     -47.395  29.770  35.303  0.00  0.00     0.019 A 
ATOM     26  C   UNL d   1     -47.518  30.329  34.710  0.00  0.00     0.002 A 
ATOM     27  C   UNL d   1     -47.470  31.121  34.887  0.00  0.00     0.000 A 
ATOM     28  C   UNL d   1     -47.301  31.376  35.648  0.00  0.00     0.000 A 
ATOM     29  C   UNL d   1     -47.178  30.816  36.242  0.00  0.00     0.000 A 
ATOM     30  C   UNL d   1     -47.225  30.025  36.072  0.00  0.00     0.002 A 
ENDBRANCH  24  25
ENDBRANCH   3  24
TORSDOF 4
ENDMDL
