MODEL 1
REMARK VINA RESULT:      -5.2      0.000      0.000
REMARK  4 active torsions:
REMARK  status: ('A' for Active; 'I' for Inactive)
REMARK    1  A    between atoms: N_3  and  S_1 
REMARK    2  A    between atoms: C_4  and  S_1 
REMARK    3  A    between atoms: C_13  and  N_3 
REMARK    4  A    between atoms: C_16  and  N_3 
ROOT
ATOM      1  S   UNL d   1     -41.677-122.379 -51.817  0.00  0.00     0.271 S 
ATOM      2  O   UNL d   1     -41.123-122.777 -51.355  0.00  0.00    -0.200 OA
ATOM      3  O   UNL d   1     -42.218-121.871 -51.464  0.00  0.00    -0.200 OA
ENDROOT
BRANCH   1   4
ATOM      4  N   UNL d   1     -41.671-122.264 -51.003  0.00  0.00    -0.231 N 
BRANCH   4   5
ATOM      5  C   UNL d   1     -42.226-122.662 -50.521  0.00  0.00     0.075 A 
ATOM      6  C   UNL d   1     -42.047-123.405 -50.222  0.00  0.00     0.018 A 
ATOM      7  C   UNL d   1     -42.593-123.798 -49.747  0.00  0.00     0.002 A 
ATOM      8  C   UNL d   1     -43.320-123.448 -49.571  0.00  0.00     0.000 A 
ATOM      9  C   UNL d   1     -43.500-122.707 -49.869  0.00  0.00     0.002 A 
ATOM     10  C   UNL d   1     -42.953-122.309 -50.347  0.00  0.00     0.018 A 
ENDBRANCH   4   5
BRANCH   4  11
ATOM     11  C   UNL d   1     -41.122-121.758 -50.662  0.00  0.00     0.092 C 
ATOM     12  C   UNL d   1     -41.167-120.946 -50.791  0.00  0.00     0.021 C 
ENDBRANCH   4  11
ENDBRANCH   1   4
BRANCH   1  13
ATOM     13  C   UNL d   1     -41.689-122.489 -52.632  0.00  0.00     0.106 A 
ATOM     14  C   UNL d   1     -42.066-121.939 -53.113  0.00  0.00     0.034 A 
ATOM     15  C   UNL d   1     -42.080-122.047 -53.935  0.00  0.00     0.105 A 
ATOM     16  N   UNL d   1     -42.408-121.600 -54.549  0.00  0.00    -0.189 NA
ATOM     17  C   UNL d   1     -41.711-122.712 -54.272  0.00  0.00     0.104 A 
ATOM     18  C   UNL d   1     -42.244-121.988 -55.269  0.00  0.00     0.369 A 
ATOM     19  O   UNL d   1     -42.469-121.733 -56.020  0.00  0.00    -0.242 OA
ATOM     20  N   UNL d   1     -41.814-122.672 -55.092  0.00  0.00    -0.189 NA
ATOM     21  C   UNL d   1     -41.331-123.264 -53.783  0.00  0.00     0.021 A 
ATOM     22  C   UNL d   1     -41.323-123.148 -52.965  0.00  0.00     0.015 A 
ENDBRANCH   1  13
TORSDOF 4
ENDMDL
MODEL 2
REMARK VINA RESULT:      -4.0      1.728      2.542
REMARK  4 active torsions:
REMARK  status: ('A' for Active; 'I' for Inactive)
REMARK    1  A    between atoms: N_3  and  S_1 
REMARK    2  A    between atoms: C_4  and  S_1 
REMARK    3  A    between atoms: C_13  and  N_3 
REMARK    4  A    between atoms: C_16  and  N_3 
ROOT
ATOM      1  S   UNL d   1     -42.273-123.068 -50.055  0.00  0.00     0.271 S 
ATOM      2  O   UNL d   1     -42.026-123.817 -49.816  0.00  0.00    -0.200 OA
ATOM      3  O   UNL d   1     -42.819-122.651 -49.605  0.00  0.00    -0.200 OA
ENDROOT
BRANCH   1   4
ATOM      4  N   UNL d   1     -42.577-123.392 -49.364  0.00  0.00    -0.231 N 
BRANCH   4   5
ATOM      5  C   UNL d   1     -42.171-123.287 -48.640  0.00  0.00     0.075 A 
ATOM      6  C   UNL d   1     -42.371-122.662 -48.149  0.00  0.00     0.018 A 
ATOM      7  C   UNL d   1     -41.971-122.559 -47.435  0.00  0.00     0.002 A 
ATOM      8  C   UNL d   1     -41.372-123.082 -47.213  0.00  0.00     0.000 A 
ATOM      9  C   UNL d   1     -41.173-123.706 -47.704  0.00  0.00     0.002 A 
ATOM     10  C   UNL d   1     -41.572-123.814 -48.421  0.00  0.00     0.018 A 
ENDBRANCH   4   5
BRANCH   4  11
ATOM     11  C   UNL d   1     -43.278-123.817 -49.382  0.00  0.00     0.092 C 
ATOM     12  C   UNL d   1     -44.003-123.431 -49.323  0.00  0.00     0.021 C 
ENDBRANCH   4  11
ENDBRANCH   1   4
BRANCH   1  13
ATOM     13  C   UNL d   1     -41.973-122.737 -50.746  0.00  0.00     0.106 A 
ATOM     14  C   UNL d   1     -42.019-123.154 -51.453  0.00  0.00     0.034 A 
ATOM     15  C   UNL d   1     -41.718-122.823 -52.152  0.00  0.00     0.105 A 
ATOM     16  N   UNL d   1     -41.684-123.101 -52.930  0.00  0.00    -0.189 NA
ATOM     17  C   UNL d   1     -41.370-122.068 -52.135  0.00  0.00     0.104 A 
ATOM     18  C   UNL d   1     -41.314-122.519 -53.398  0.00  0.00     0.369 A 
ATOM     19  O   UNL d   1     -41.167-122.568 -54.207  0.00  0.00    -0.242 OA
ATOM     20  N   UNL d   1     -41.123-121.884 -52.902  0.00  0.00    -0.189 NA
ATOM     21  C   UNL d   1     -41.326-121.650 -51.419  0.00  0.00     0.021 A 
ATOM     22  C   UNL d   1     -41.628-121.989 -50.729  0.00  0.00     0.015 A 
ENDBRANCH   1  13
TORSDOF 4
ENDMDL
MODEL 3
REMARK VINA RESULT:      -2.4      1.643      4.447
REMARK  4 active torsions:
REMARK  status: ('A' for Active; 'I' for Inactive)
REMARK    1  A    between atoms: N_3  and  S_1 
REMARK    2  A    between atoms: C_4  and  S_1 
REMARK    3  A    between atoms: C_13  and  N_3 
REMARK    4  A    between atoms: C_16  and  N_3 
ROOT
ATOM      1  S   UNL d   1     -42.146-122.405 -50.952  0.00  0.00     0.271 S 
ATOM      2  O   UNL d   1     -42.678-121.973 -51.409  0.00  0.00    -0.200 OA
ATOM      3  O   UNL d   1     -41.358-122.460 -51.179  0.00  0.00    -0.200 OA
ENDROOT
BRANCH   1   4
ATOM      4  N   UNL d   1     -41.881-122.031 -51.635  0.00  0.00    -0.231 N 
BRANCH   4   5
ATOM      5  C   UNL d   1     -41.658-122.485 -52.300  0.00  0.00     0.075 A 
ATOM      6  C   UNL d   1     -41.751-122.175 -53.054  0.00  0.00     0.018 A 
ATOM      7  C   UNL d   1     -41.530-122.623 -53.710  0.00  0.00     0.002 A 
ATOM      8  C   UNL d   1     -41.216-123.380 -53.612  0.00  0.00     0.000 A 
ATOM      9  C   UNL d   1     -41.123-123.689 -52.860  0.00  0.00     0.002 A 
ATOM     10  C   UNL d   1     -41.343-123.243 -52.197  0.00  0.00     0.018 A 
ENDBRANCH   4   5
BRANCH   4  11
ATOM     11  C   UNL d   1     -41.837-121.212 -51.664  0.00  0.00     0.092 C 
ATOM     12  C   UNL d   1     -41.123-120.827 -51.519  0.00  0.00     0.021 C 
ENDBRANCH   4  11
ENDBRANCH   1   4
BRANCH   1  13
ATOM     13  C   UNL d   1     -42.402-122.783 -50.268  0.00  0.00     0.106 A 
ATOM     14  C   UNL d   1     -42.117-122.540 -49.536  0.00  0.00     0.034 A 
ATOM     15  C   UNL d   1     -42.373-122.919 -48.843  0.00  0.00     0.105 A 
ATOM     16  N   UNL d   1     -42.190-122.803 -48.045  0.00  0.00    -0.189 NA
ATOM     17  C   UNL d   1     -42.919-123.544 -48.892  0.00  0.00     0.104 A 
ATOM     18  C   UNL d   1     -42.623-123.356 -47.596  0.00  0.00     0.369 A 
ATOM     19  O   UNL d   1     -42.606-123.435 -46.776  0.00  0.00    -0.242 OA
ATOM     20  N   UNL d   1     -43.070-123.810 -48.124  0.00  0.00    -0.189 NA
ATOM     21  C   UNL d   1     -43.204-123.785 -49.633  0.00  0.00     0.021 A 
ATOM     22  C   UNL d   1     -42.943-123.402 -50.316  0.00  0.00     0.015 A 
ENDBRANCH   1  13
TORSDOF 4
ENDMDL
