MODEL 1
REMARK VINA RESULT:      -4.9      0.000      0.000
REMARK  4 active torsions:
REMARK  status: ('A' for Active; 'I' for Inactive)
REMARK    1  A    between atoms: N_4  and  S_1 
REMARK    2  A    between atoms: C_5  and  S_1 
REMARK    3  A    between atoms: S_2  and  N_3 
REMARK    4  A    between atoms: C_6  and  S_2 
ROOT
ATOM      1  N   UNL d   1      58.338  -0.042  29.803  0.00  0.00    -0.226 N 
ATOM      2  N   UNL d   1      57.360  -0.257  31.113  0.00  0.00    -0.226 N 
ATOM      3  C   UNL d   1      58.018   0.627  30.208  0.00  0.00     0.111 A 
ATOM      4  C   UNL d   1      57.534   0.514  30.856  0.00  0.00     0.111 A 
ATOM      5  C   UNL d   1      57.674  -0.913  30.716  0.00  0.00     0.111 A 
ATOM      6  C   UNL d   1      58.167  -0.807  30.055  0.00  0.00     0.111 A 
ENDROOT
BRANCH   1   7
ATOM      7  S   UNL d   1      58.852   0.044  29.114  0.00  0.00     0.277 S 
ATOM      8  O   UNL d   1      58.203  -0.048  28.597  0.00  0.00    -0.199 OA
ATOM      9  O   UNL d   1      59.370   0.131  28.456  0.00  0.00    -0.199 OA
BRANCH   7  10
ATOM     10  C   UNL d   1      59.520   0.140  29.634  0.00  0.00     0.133 A 
ATOM     11  S   UNL d   1      59.701   0.682  30.189  0.00  0.00    -0.074 SA
ATOM     12  C   UNL d   1      60.420   0.485  30.507  0.00  0.00     0.036 A 
ATOM     13  C   UNL d   1      60.707  -0.192  30.153  0.00  0.00     0.008 A 
ATOM     14  C   UNL d   1      60.148  -0.417  29.603  0.00  0.00     0.020 A 
ENDBRANCH   7  10
ENDBRANCH   1   7
BRANCH   2  15
ATOM     15  S   UNL d   1      56.863  -0.367  31.780  0.00  0.00     0.277 S 
ATOM     16  O   UNL d   1      56.757  -1.159  31.562  0.00  0.00    -0.199 OA
ATOM     17  O   UNL d   1      56.981   0.435  31.983  0.00  0.00    -0.199 OA
BRANCH  15  18
ATOM     18  C   UNL d   1      56.374  -0.469  32.437  0.00  0.00     0.133 A 
ATOM     19  S   UNL d   1      56.106   0.053  33.017  0.00  0.00    -0.074 SA
ATOM     20  C   UNL d   1      55.626  -0.376  33.538  0.00  0.00     0.036 A 
ATOM     21  C   UNL d   1      55.601  -1.145  33.281  0.00  0.00     0.008 A 
ATOM     22  C   UNL d   1      56.058  -1.217  32.602  0.00  0.00     0.020 A 
ENDBRANCH  15  18
ENDBRANCH   2  15
TORSDOF 4
ENDMDL
MODEL 2
REMARK VINA RESULT:      -1.9      1.498      4.173
REMARK  4 active torsions:
REMARK  status: ('A' for Active; 'I' for Inactive)
REMARK    1  A    between atoms: N_4  and  S_1 
REMARK    2  A    between atoms: C_5  and  S_1 
REMARK    3  A    between atoms: S_2  and  N_3 
REMARK    4  A    between atoms: C_6  and  S_2 
ROOT
ATOM      1  N   UNL d   1      56.339   0.067  32.347  0.00  0.00    -0.226 N 
ATOM      2  N   UNL d   1      57.296  -0.298  31.054  0.00  0.00    -0.226 N 
ATOM      3  C   UNL d   1      56.561  -0.734  32.196  0.00  0.00     0.111 A 
ATOM      4  C   UNL d   1      57.035  -0.909  31.554  0.00  0.00     0.111 A 
ATOM      5  C   UNL d   1      57.079   0.488  31.203  0.00  0.00     0.111 A 
ATOM      6  C   UNL d   1      56.597   0.675  31.853  0.00  0.00     0.111 A 
ENDROOT
BRANCH   1   7
ATOM      7  S   UNL d   1      55.840   0.284  33.018  0.00  0.00     0.277 S 
ATOM      8  O   UNL d   1      55.150   0.158  32.565  0.00  0.00    -0.199 OA
ATOM      9  O   UNL d   1      55.370   0.499  33.682  0.00  0.00    -0.199 OA
BRANCH   7  10
ATOM     10  C   UNL d   1      56.538   0.416  33.487  0.00  0.00     0.133 A 
ATOM     11  S   UNL d   1      57.273   0.664  33.306  0.00  0.00    -0.074 SA
ATOM     12  C   UNL d   1      57.708   0.682  33.990  0.00  0.00     0.036 A 
ATOM     13  C   UNL d   1      57.247   0.442  34.620  0.00  0.00     0.008 A 
ATOM     14  C   UNL d   1      56.510   0.273  34.314  0.00  0.00     0.020 A 
ENDBRANCH   7  10
ENDBRANCH   1   7
BRANCH   2  15
ATOM     15  S   UNL d   1      57.782  -0.484  30.397  0.00  0.00     0.277 S 
ATOM     16  O   UNL d   1      57.758   0.310  30.163  0.00  0.00    -0.199 OA
ATOM     17  O   UNL d   1      57.795  -1.280  30.648  0.00  0.00    -0.199 OA
BRANCH  15  18
ATOM     18  C   UNL d   1      58.261  -0.672  29.751  0.00  0.00     0.133 A 
ATOM     19  S   UNL d   1      58.585  -1.384  29.488  0.00  0.00    -0.074 SA
ATOM     20  C   UNL d   1      59.020  -1.223  28.803  0.00  0.00     0.036 A 
ATOM     21  C   UNL d   1      58.963  -0.429  28.649  0.00  0.00     0.008 A 
ATOM     22  C   UNL d   1      58.497  -0.076  29.227  0.00  0.00     0.020 A 
ENDBRANCH  15  18
ENDBRANCH   2  15
TORSDOF 4
ENDMDL
