MODEL 1
REMARK VINA RESULT:      43.6      0.000      0.000
REMARK  5 active torsions:
REMARK  status: ('A' for Active; 'I' for Inactive)
REMARK    1  A    between atoms: C_10  and  C_3 
REMARK    2  A    between atoms: N_12  and  C_4 
REMARK    3  A    between atoms: N_11  and  C_15 
REMARK    4  A    between atoms: C_14  and  N_12 
REMARK    5  A    between atoms: C_15  and  C_14 
ROOT
ATOM      1  C   UNL d   1      13.300  13.658  -4.319  0.00  0.00     0.167 A 
ATOM      2  N   UNL d   1      13.273  13.376  -3.540  0.00  0.00    -0.195 N 
ATOM      3  C   UNL d   1      13.419  14.465  -4.285  0.00  0.00     0.057 A 
ATOM      4  C   UNL d   1      13.158  12.576  -3.401  0.00  0.00     0.167 A 
ATOM      5  N   UNL d   1      13.376  14.016  -3.043  0.00  0.00    -0.161 NA
ATOM      6  N   UNL d   1      13.211  13.135  -4.945  0.00  0.00    -0.227 NA
ATOM      7  C   UNL d   1      13.069  12.052  -4.036  0.00  0.00     0.058 A 
ATOM      8  C   UNL d   1      13.466  14.682  -3.490  0.00  0.00     0.124 A 
ATOM      9  C   UNL d   1      13.095  12.328  -4.798  0.00  0.00     0.086 A 
ATOM     10  C   UNL d   1      13.004  11.791  -5.425  0.00  0.00     0.021 C 
ENDROOT
BRANCH   4  11
ATOM     11  N   UNL d   1      13.131  12.294  -2.623  0.00  0.00    -0.224 NA
BRANCH  11  12
ATOM     12  C   UNL d   1      13.798  11.951  -2.289  0.00  0.00     0.120 C 
BRANCH  12  13
ATOM     13  C   UNL d   1      13.813  11.781  -1.479  0.00  0.00     0.101 C 
BRANCH  13  14
ATOM     14  N   UNL d   1      14.388  12.117  -0.993  0.00  0.00    -0.298 N 
ATOM     15  C   UNL d   1      14.189  12.760  -0.516  0.00  0.00     0.107 A 
ATOM     16  C   UNL d   1      14.767  13.101  -0.023  0.00  0.00     0.142 A 
ATOM     17  O   UNL d   1      15.529  12.800  -0.014  0.00  0.00    -0.300 OA
ATOM     18  C   UNL d   1      15.726  12.151  -0.498  0.00  0.00     0.142 A 
ATOM     19  C   UNL d   1      15.154  11.813  -0.984  0.00  0.00     0.107 A 
ENDBRANCH  13  14
ENDBRANCH  12  13
ENDBRANCH  11  12
ENDBRANCH   4  11
BRANCH   3  20
ATOM     20  C   UNL d   1      13.471  14.910  -4.979  0.00  0.00     0.004 A 
ATOM     21  C   UNL d   1      14.182  14.915  -5.410  0.00  0.00     0.000 A 
ATOM     22  C   UNL d   1      14.241  15.352  -6.096  0.00  0.00     0.000 A 
ATOM     23  C   UNL d   1      13.590  15.794  -6.368  0.00  0.00     0.000 A 
ATOM     24  C   UNL d   1      12.890  15.790  -5.944  0.00  0.00     0.000 A 
ATOM     25  C   UNL d   1      12.833  15.347  -5.250  0.00  0.00     0.000 A 
ENDBRANCH   3  20
TORSDOF 5
ENDMDL
