MODEL 1
REMARK VINA RESULT:      20.9      0.000      0.000
REMARK  4 active torsions:
REMARK  status: ('A' for Active; 'I' for Inactive)
REMARK    1  A    between atoms: C_17  and  C_4 
REMARK    2  A    between atoms: C_6  and  C_8 
REMARK       I    between atoms: C_8  and  N_16 
REMARK    3  A    between atoms: N_16  and  C_18 
REMARK    4  A    between atoms: C_18  and  C_17 
ROOT
ATOM      1  C   UNL d   1     -56.716 -98.756 -45.087  0.00  0.00     0.042 C 
ENDROOT
BRANCH   1   2
ATOM      2  C   UNL d   1     -57.480 -98.816 -44.772  0.00  0.00     0.103 A 
ATOM      3  N   UNL d   1     -57.677 -98.944 -43.978  0.00  0.00    -0.221 NA
ATOM      4  C   UNL d   1     -58.507 -98.965 -43.918  0.00  0.00     0.179 A 
ATOM      5  N   UNL d   1     -58.820 -98.850 -44.677  0.00  0.00    -0.282 N 
ATOM      6  S   UNL d   1     -59.136 -99.056 -43.394  0.00  0.00    -0.048 SA
ATOM      7  C   UNL d   1     -58.181 -98.758 -45.201  0.00  0.00     0.101 A 
ATOM      8  C   UNL d   1     -59.640 -98.870 -44.618  0.00  0.00     0.089 A 
ATOM      9  C   UNL d   1     -59.838 -98.998 -43.828  0.00  0.00     0.057 A 
ENDBRANCH   1   2
BRANCH   1  10
ATOM     10  C   UNL d   1     -56.070 -99.014 -44.639  0.00  0.00     0.104 C 
BRANCH  10  11
ATOM     11  N   UNL d   1     -55.896 -99.828 -44.586  0.00  0.00    -0.206 NA
ATOM     12  C   UNL d   1     -55.239-100.084 -44.155  0.00  0.00     0.285 C 
ATOM     13  O   UNL d   1     -54.754 -99.532 -43.775  0.00  0.00    -0.265 OA
BRANCH  12  14
ATOM     14  C   UNL d   1     -55.067-100.889 -44.103  0.00  0.00     0.087 A 
ATOM     15  S   UNL d   1     -54.819-101.294 -43.418  0.00  0.00    -0.082 SA
ATOM     16  C   UNL d   1     -54.713-102.087 -43.620  0.00  0.00     0.036 A 
ATOM     17  C   UNL d   1     -54.896-102.166 -44.430  0.00  0.00     0.008 A 
ATOM     18  C   UNL d   1     -55.110-101.431 -44.710  0.00  0.00     0.012 A 
ENDBRANCH  12  14
ENDBRANCH  10  11
ENDBRANCH   1  10
TORSDOF 4
ENDMDL
