MODEL 1
REMARK VINA RESULT:      -2.9      0.000      0.000
REMARK  5 active torsions:
REMARK  status: ('A' for Active; 'I' for Inactive)
REMARK    1  A    between atoms: C_6  and  C_1 
REMARK    2  A    between atoms: C_7  and  C_5 
REMARK       I    between atoms: N_13  and  C_6 
REMARK    3  A    between atoms: C_8  and  C_12 
REMARK    4  A    between atoms: N_9  and  N_13 
REMARK    5  A    between atoms: C_12  and  N_9 
ROOT
ATOM      1  C   UNL d   1      32.892  19.030 -22.977  0.00  0.00     0.164 A 
ATOM      2  C   UNL d   1      32.640  19.759 -23.278  0.00  0.00     0.047 A 
ATOM      3  N   UNL d   1      33.240  19.661 -21.750  0.00  0.00    -0.148 NA
ATOM      4  N   UNL d   1      33.192  18.977 -22.215  0.00  0.00    -0.143 NA
ATOM      5  C   UNL d   1      32.989  20.390 -22.051  0.00  0.00     0.105 A 
ENDROOT
BRANCH   1   6
ATOM      6  C   UNL d   1      32.839  18.353 -23.450  0.00  0.00     0.316 C 
ATOM      7  N   UNL d   1      32.362  17.540 -23.198  0.00  0.00    -0.104 NA
ATOM      8  O   UNL d   1      33.211  18.347 -24.190  0.00  0.00    -0.262 OA
BRANCH   7   9
ATOM      9  N   UNL d   1      32.226  16.660 -23.678  0.00  0.00    -0.143 NA
BRANCH   9  10
ATOM     10  C   UNL d   1      31.675  16.070 -23.367  0.00  0.00     0.129 C 
BRANCH  10  11
ATOM     11  C   UNL d   1      30.971  15.846 -23.827  0.00  0.00     0.050 A 
ATOM     12  S   UNL d   1      30.326  15.667 -23.470  0.00  0.00    -0.085 SA
ATOM     13  C   UNL d   1      29.711  15.472 -23.872  0.00  0.00     0.035 A 
ATOM     14  C   UNL d   1      29.740  15.454 -24.631  0.00  0.00     0.007 A 
ATOM     15  C   UNL d   1      31.000  15.828 -24.586  0.00  0.00     0.009 A 
ENDBRANCH  10  11
ENDBRANCH   9  10
ENDBRANCH   7   9
ENDBRANCH   1   6
BRANCH   5  16
ATOM     16  C   UNL d   1      32.954  21.161 -21.762  0.00  0.00     0.019 A 
ATOM     17  C   UNL d   1      32.874  21.288 -20.951  0.00  0.00     0.002 A 
ATOM     18  C   UNL d   1      32.839  22.062 -20.657  0.00  0.00     0.000 A 
ATOM     19  C   UNL d   1      32.759  22.193 -19.848  0.00  0.00     0.000 A 
ATOM     20  C   UNL d   1      32.884  22.706 -21.182  0.00  0.00     0.000 A 
ATOM     21  C   UNL d   1      32.724  22.960 -19.557  0.00  0.00     0.000 A 
ATOM     22  C   UNL d   1      32.768  23.608 -20.074  0.00  0.00     0.000 A 
ATOM     23  C   UNL d   1      32.848  23.480 -20.884  0.00  0.00     0.000 A 
ATOM     24  C   UNL d   1      32.962  22.568 -21.983  0.00  0.00     0.000 A 
ATOM     25  C   UNL d   1      32.997  21.795 -22.272  0.00  0.00     0.002 A 
ENDBRANCH   5  16
TORSDOF 5
ENDMDL
MODEL 2
REMARK VINA RESULT:      -0.7      3.088      6.597
REMARK  5 active torsions:
REMARK  status: ('A' for Active; 'I' for Inactive)
REMARK    1  A    between atoms: C_6  and  C_1 
REMARK    2  A    between atoms: C_7  and  C_5 
REMARK       I    between atoms: N_13  and  C_6 
REMARK    3  A    between atoms: C_8  and  C_12 
REMARK    4  A    between atoms: N_9  and  N_13 
REMARK    5  A    between atoms: C_12  and  N_9 
ROOT
ATOM      1  C   UNL d   1      32.797  21.953 -21.425  0.00  0.00     0.164 A 
ATOM      2  C   UNL d   1      33.241  21.292 -21.195  0.00  0.00     0.047 A 
ATOM      3  N   UNL d   1      32.291  21.221 -22.536  0.00  0.00    -0.148 NA
ATOM      4  N   UNL d   1      32.322  21.921 -22.094  0.00  0.00    -0.143 NA
ATOM      5  C   UNL d   1      32.734  20.561 -22.306  0.00  0.00     0.105 A 
ENDROOT
BRANCH   1   6
ATOM      6  C   UNL d   1      32.836  22.646 -20.977  0.00  0.00     0.316 C 
ATOM      7  N   UNL d   1      33.070  22.679 -20.030  0.00  0.00    -0.104 NA
ATOM      8  O   UNL d   1      32.667  23.372 -21.339  0.00  0.00    -0.262 OA
BRANCH   7   9
ATOM      9  N   UNL d   1      33.151  23.450 -19.380  0.00  0.00    -0.143 NA
BRANCH   9  10
ATOM     10  C   UNL d   1      32.526  23.605 -18.802  0.00  0.00     0.129 C 
BRANCH  10  11
ATOM     11  C   UNL d   1      32.641  23.389 -17.966  0.00  0.00     0.050 A 
ATOM     12  S   UNL d   1      32.142  23.619 -17.444  0.00  0.00    -0.085 SA
ATOM     13  C   UNL d   1      32.243  23.430 -16.714  0.00  0.00     0.035 A 
ATOM     14  C   UNL d   1      32.843  23.011 -16.506  0.00  0.00     0.007 A 
ATOM     15  C   UNL d   1      33.240  22.970 -17.759  0.00  0.00     0.009 A 
ENDBRANCH  10  11
ENDBRANCH   9  10
ENDBRANCH   7   9
ENDBRANCH   1   6
BRANCH   5  16
ATOM     16  C   UNL d   1      32.839  19.797 -22.598  0.00  0.00     0.019 A 
ATOM     17  C   UNL d   1      32.745  19.653 -23.404  0.00  0.00     0.002 A 
ATOM     18  C   UNL d   1      32.850  18.886 -23.700  0.00  0.00     0.000 A 
ATOM     19  C   UNL d   1      32.756  18.738 -24.505  0.00  0.00     0.000 A 
ATOM     20  C   UNL d   1      33.050  18.267 -23.182  0.00  0.00     0.000 A 
ATOM     21  C   UNL d   1      32.860  17.978 -24.799  0.00  0.00     0.000 A 
ATOM     22  C   UNL d   1      33.060  17.355 -24.288  0.00  0.00     0.000 A 
ATOM     23  C   UNL d   1      33.154  17.499 -23.482  0.00  0.00     0.000 A 
ATOM     24  C   UNL d   1      33.141  18.422 -22.386  0.00  0.00     0.000 A 
ATOM     25  C   UNL d   1      33.035  19.187 -22.094  0.00  0.00     0.002 A 
ENDBRANCH   5  16
TORSDOF 5
ENDMDL
