MODEL 1
REMARK VINA RESULT:      52.8      0.000      0.000
REMARK  5 active torsions:
REMARK  status: ('A' for Active; 'I' for Inactive)
REMARK    1  A    between atoms: C_6  and  C_1 
REMARK    2  A    between atoms: C_8  and  N_3 
REMARK    3  A    between atoms: C_7  and  C_8 
REMARK    4  A    between atoms: C_9  and  C_7 
REMARK    5  A    between atoms: C_10  and  C_9 
ROOT
ATOM      1  C   UNL d   1     -49.779  25.502  33.428  0.00  0.00     0.187 A 
ATOM      2  N   UNL d   1     -50.523  25.131  33.328  0.00  0.00    -0.224 NA
ATOM      3  N   UNL d   1     -49.907  26.319  33.526  0.00  0.00    -0.287 N 
ATOM      4  C   UNL d   1     -50.720  26.460  33.489  0.00  0.00     0.083 A 
ATOM      5  C   UNL d   1     -51.103  25.733  33.368  0.00  0.00     0.099 A 
ATOM      6  C   UNL d   1     -51.180  27.158  33.549  0.00  0.00     0.019 A 
ATOM      7  C   UNL d   1     -51.935  25.693  33.306  0.00  0.00     0.021 A 
ATOM      8  C   UNL d   1     -52.002  27.121  33.488  0.00  0.00     0.002 A 
ATOM      9  C   UNL d   1     -52.379  26.391  33.367  0.00  0.00     0.002 A 
ENDROOT
BRANCH   3  10
ATOM     10  C   UNL d   1     -49.215  26.757  33.631  0.00  0.00     0.082 C 
BRANCH  10  11
ATOM     11  C   UNL d   1     -49.229  27.453  34.063  0.00  0.00     0.019 C 
BRANCH  11  12
ATOM     12  C   UNL d   1     -48.831  27.495  34.786  0.00  0.00     0.002 C 
BRANCH  12  13
ATOM     13  C   UNL d   1     -48.477  28.201  35.019  0.00  0.00     0.000 A 
ATOM     14  C   UNL d   1     -48.100  28.676  34.459  0.00  0.00     0.000 A 
ATOM     15  C   UNL d   1     -47.750  29.377  34.698  0.00  0.00     0.000 A 
ATOM     16  C   UNL d   1     -47.772  29.610  35.489  0.00  0.00     0.000 A 
ATOM     17  C   UNL d   1     -48.151  29.131  36.047  0.00  0.00     0.000 A 
ATOM     18  C   UNL d   1     -48.500  28.433  35.811  0.00  0.00     0.000 A 
ENDBRANCH  12  13
ENDBRANCH  11  12
ENDBRANCH  10  11
ENDBRANCH   3  10
BRANCH   1  19
ATOM     19  C   UNL d   1     -49.185  25.082  33.413  0.00  0.00     0.230 C 
ATOM     20  O   UNL d   1     -48.414  25.355  33.309  0.00  0.00    -0.283 OA
ATOM     21  C   UNL d   1     -49.289  24.270  33.508  0.00  0.00     0.049 C 
ENDBRANCH   1  19
TORSDOF 5
ENDMDL
MODEL 2
REMARK VINA RESULT:      54.6      3.022      3.961
REMARK  5 active torsions:
REMARK  status: ('A' for Active; 'I' for Inactive)
REMARK    1  A    between atoms: C_6  and  C_1 
REMARK    2  A    between atoms: C_8  and  N_3 
REMARK    3  A    between atoms: C_7  and  C_8 
REMARK    4  A    between atoms: C_9  and  C_7 
REMARK    5  A    between atoms: C_10  and  C_9 
ROOT
ATOM      1  C   UNL d   1     -51.553  25.667  33.860  0.00  0.00     0.187 A 
ATOM      2  N   UNL d   1     -51.540  25.037  33.308  0.00  0.00    -0.224 NA
ATOM      3  N   UNL d   1     -52.046  25.446  34.495  0.00  0.00    -0.287 N 
ATOM      4  C   UNL d   1     -52.339  24.688  34.343  0.00  0.00     0.083 A 
ATOM      5  C   UNL d   1     -52.031  24.433  33.615  0.00  0.00     0.099 A 
ATOM      6  C   UNL d   1     -52.852  24.181  34.769  0.00  0.00     0.019 A 
ATOM      7  C   UNL d   1     -52.227  23.682  33.308  0.00  0.00     0.021 A 
ATOM      8  C   UNL d   1     -53.047  23.438  34.468  0.00  0.00     0.002 A 
ATOM      9  C   UNL d   1     -52.736  23.189  33.739  0.00  0.00     0.002 A 
ENDROOT
BRANCH   3  10
ATOM     10  C   UNL d   1     -52.110  26.019  35.085  0.00  0.00     0.082 C 
BRANCH  10  11
ATOM     11  C   UNL d   1     -51.995  25.816  35.871  0.00  0.00     0.019 C 
BRANCH  11  12
ATOM     12  C   UNL d   1     -52.260  26.323  36.468  0.00  0.00     0.002 C 
BRANCH  12  13
ATOM     13  C   UNL d   1     -52.167  26.110  37.258  0.00  0.00     0.000 A 
ATOM     14  C   UNL d   1     -52.682  25.562  37.599  0.00  0.00     0.000 A 
ATOM     15  C   UNL d   1     -52.583  25.354  38.386  0.00  0.00     0.000 A 
ATOM     16  C   UNL d   1     -51.978  25.687  38.835  0.00  0.00     0.000 A 
ATOM     17  C   UNL d   1     -51.464  26.236  38.490  0.00  0.00     0.000 A 
ATOM     18  C   UNL d   1     -51.561  26.444  37.707  0.00  0.00     0.000 A 
ENDBRANCH  12  13
ENDBRANCH  11  12
ENDBRANCH  10  11
ENDBRANCH   3  10
BRANCH   1  19
ATOM     19  C   UNL d   1     -51.161  26.260  33.709  0.00  0.00     0.230 C 
ATOM     20  O   UNL d   1     -51.446  26.931  33.325  0.00  0.00    -0.283 OA
ATOM     21  C   UNL d   1     -50.370  26.264  33.938  0.00  0.00     0.049 C 
ENDBRANCH   1  19
TORSDOF 5
ENDMDL
