MODEL 1
REMARK VINA RESULT:      -3.3      0.000      0.000
REMARK  3 active torsions:
REMARK  status: ('A' for Active; 'I' for Inactive)
REMARK       I    between atoms: N_3  and  C_1 
REMARK       I    between atoms: N_5  and  C_1 
REMARK    1  A    between atoms: C_2  and  O_6 
REMARK       I    between atoms: N_4  and  C_2 
REMARK    2  A    between atoms: C_10  and  N_5 
REMARK    3  A    between atoms: O_6  and  C_11 
ROOT
ATOM      1  C   UNL d   1      33.197  18.941 -23.107  0.00  0.00     0.086 A 
ATOM      2  C   UNL d   1      33.226  20.447 -22.433  0.00  0.00     0.105 A 
ATOM      3  C   UNL d   1      33.205  19.625 -23.595  0.00  0.00     0.021 A 
ATOM      4  C   UNL d   1      33.203  19.033 -22.272  0.00  0.00     0.021 A 
ATOM      5  C   UNL d   1      33.220  20.367 -23.263  0.00  0.00     0.026 A 
ATOM      6  C   UNL d   1      33.218  19.775 -21.940  0.00  0.00     0.026 A 
ENDROOT
BRANCH   1   7
ATOM      7  N   UNL d   1      33.182  18.200 -23.439  0.00  0.00    -0.192 NA
ATOM      8  C   UNL d   1      32.475  17.825 -23.611  0.00  0.00     0.354 C 
ATOM      9  N   UNL d   1      32.460  17.072 -23.948  0.00  0.00    -0.252 N 
ATOM     10  O   UNL d   1      31.757  18.227 -23.437  0.00  0.00    -0.244 OA
ATOM     11  C   UNL d   1      31.728  16.709 -24.116  0.00  0.00     0.111 A 
ATOM     12  C   UNL d   1      33.165  16.671 -24.123  0.00  0.00     0.111 A 
ATOM     13  C   UNL d   1      31.713  15.945 -24.458  0.00  0.00     0.142 A 
ATOM     14  O   UNL d   1      32.431  15.555 -24.627  0.00  0.00    -0.300 OA
ATOM     15  C   UNL d   1      33.151  15.918 -24.459  0.00  0.00     0.142 A 
ENDBRANCH   1   7
BRANCH   2  16
ATOM     16  O   UNL d   1      33.241  21.200 -22.096  0.00  0.00    -0.259 OA
BRANCH  16  17
ATOM     17  C   UNL d   1      32.701  21.399 -21.508  0.00  0.00     0.377 C 
ATOM     18  N   UNL d   1      32.683  22.167 -21.206  0.00  0.00    -0.252 N 
ATOM     19  C   UNL d   1      32.142  22.366 -20.617  0.00  0.00     0.085 A 
ATOM     20  C   UNL d   1      33.204  22.735 -21.493  0.00  0.00     0.085 A 
ATOM     21  C   UNL d   1      32.121  23.132 -20.314  0.00  0.00     0.019 A 
ATOM     22  C   UNL d   1      32.642  23.701 -20.600  0.00  0.00     0.003 A 
ATOM     23  C   UNL d   1      33.185  23.507 -21.190  0.00  0.00     0.019 A 
ATOM     24  O   UNL d   1      32.179  20.835 -21.219  0.00  0.00    -0.237 OA
ENDBRANCH  16  17
ENDBRANCH   2  16
TORSDOF 3
ENDMDL
MODEL 2
REMARK VINA RESULT:      -3.0      0.892      5.672
REMARK  3 active torsions:
REMARK  status: ('A' for Active; 'I' for Inactive)
REMARK       I    between atoms: N_3  and  C_1 
REMARK       I    between atoms: N_5  and  C_1 
REMARK    1  A    between atoms: C_2  and  O_6 
REMARK       I    between atoms: N_4  and  C_2 
REMARK    2  A    between atoms: C_10  and  N_5 
REMARK    3  A    between atoms: O_6  and  C_11 
ROOT
ATOM      1  C   UNL d   1      33.228  20.473 -22.014  0.00  0.00     0.086 A 
ATOM      2  C   UNL d   1      33.228  19.070 -22.882  0.00  0.00     0.105 A 
ATOM      3  C   UNL d   1      33.216  19.730 -21.621  0.00  0.00     0.021 A 
ATOM      4  C   UNL d   1      33.241  20.493 -22.854  0.00  0.00     0.021 A 
ATOM      5  C   UNL d   1      33.216  19.039 -22.049  0.00  0.00     0.026 A 
ATOM      6  C   UNL d   1      33.241  19.802 -23.282  0.00  0.00     0.026 A 
ENDROOT
BRANCH   1   7
ATOM      7  N   UNL d   1      33.228  21.164 -21.586  0.00  0.00    -0.192 NA
ATOM      8  C   UNL d   1      32.544  21.446 -21.236  0.00  0.00     0.354 C 
ATOM      9  N   UNL d   1      32.544  22.148 -20.801  0.00  0.00    -0.252 N 
ATOM     10  O   UNL d   1      31.836  21.003 -21.327  0.00  0.00    -0.244 OA
ATOM     11  C   UNL d   1      31.836  22.418 -20.452  0.00  0.00     0.111 A 
ATOM     12  C   UNL d   1      33.241  22.590 -20.707  0.00  0.00     0.111 A 
ATOM     13  C   UNL d   1      31.836  23.129 -20.012  0.00  0.00     0.142 A 
ATOM     14  O   UNL d   1      32.544  23.562 -19.926  0.00  0.00    -0.300 OA
ATOM     15  C   UNL d   1      33.241  23.291 -20.273  0.00  0.00     0.142 A 
ENDBRANCH   1   7
BRANCH   2  16
ATOM     16  O   UNL d   1      33.228  18.369 -23.316  0.00  0.00    -0.259 OA
BRANCH  16  17
ATOM     17  C   UNL d   1      32.550  17.903 -23.349  0.00  0.00     0.377 C 
ATOM     18  N   UNL d   1      32.492  17.295 -23.904  0.00  0.00    -0.252 N 
ATOM     19  C   UNL d   1      31.813  16.831 -23.936  0.00  0.00     0.085 A 
ATOM     20  C   UNL d   1      33.111  17.153 -24.426  0.00  0.00     0.085 A 
ATOM     21  C   UNL d   1      31.750  16.222 -24.489  0.00  0.00     0.019 A 
ATOM     22  C   UNL d   1      32.370  16.079 -25.012  0.00  0.00     0.003 A 
ATOM     23  C   UNL d   1      33.052  16.542 -24.983  0.00  0.00     0.019 A 
ATOM     24  O   UNL d   1      31.929  18.042 -22.829  0.00  0.00    -0.237 OA
ENDBRANCH  16  17
ENDBRANCH   2  16
TORSDOF 3
ENDMDL
MODEL 3
REMARK VINA RESULT:      -1.8      1.070      1.367
REMARK  3 active torsions:
REMARK  status: ('A' for Active; 'I' for Inactive)
REMARK       I    between atoms: N_3  and  C_1 
REMARK       I    between atoms: N_5  and  C_1 
REMARK    1  A    between atoms: C_2  and  O_6 
REMARK       I    between atoms: N_4  and  C_2 
REMARK    2  A    between atoms: C_10  and  N_5 
REMARK    3  A    between atoms: O_6  and  C_11 
ROOT
ATOM      1  C   UNL d   1      32.312  18.353 -23.736  0.00  0.00     0.086 A 
ATOM      2  C   UNL d   1      32.931  19.725 -23.059  0.00  0.00     0.105 A 
ATOM      3  C   UNL d   1      32.327  19.072 -24.171  0.00  0.00     0.021 A 
ATOM      4  C   UNL d   1      32.615  18.341 -22.952  0.00  0.00     0.021 A 
ATOM      5  C   UNL d   1      32.632  19.748 -23.837  0.00  0.00     0.026 A 
ATOM      6  C   UNL d   1      32.921  19.017 -22.619  0.00  0.00     0.026 A 
ENDROOT
BRANCH   1   7
ATOM      7  N   UNL d   1      32.007  17.678 -24.068  0.00  0.00    -0.192 NA
ATOM      8  C   UNL d   1      31.203  17.521 -24.051  0.00  0.00     0.354 C 
ATOM      9  N   UNL d   1      30.894  16.835 -24.389  0.00  0.00    -0.252 N 
ATOM     10  O   UNL d   1      30.696  18.078 -23.678  0.00  0.00    -0.244 OA
ATOM     11  C   UNL d   1      30.072  16.695 -24.360  0.00  0.00     0.111 A 
ATOM     12  C   UNL d   1      31.390  16.282 -24.759  0.00  0.00     0.111 A 
ATOM     13  C   UNL d   1      29.757  15.999 -24.703  0.00  0.00     0.142 A 
ATOM     14  O   UNL d   1      30.269  15.453 -25.071  0.00  0.00    -0.300 OA
ATOM     15  C   UNL d   1      31.080  15.596 -25.097  0.00  0.00     0.142 A 
ENDBRANCH   1   7
BRANCH   2  16
ATOM     16  O   UNL d   1      33.241  20.410 -22.721  0.00  0.00    -0.259 OA
BRANCH  16  17
ATOM     17  C   UNL d   1      32.990  20.653 -21.975  0.00  0.00     0.377 C 
ATOM     18  N   UNL d   1      32.943  21.457 -21.796  0.00  0.00    -0.252 N 
ATOM     19  C   UNL d   1      32.692  21.698 -21.049  0.00  0.00     0.085 A 
ATOM     20  C   UNL d   1      33.146  22.018 -22.361  0.00  0.00     0.085 A 
ATOM     21  C   UNL d   1      32.644  22.501 -20.866  0.00  0.00     0.019 A 
ATOM     22  C   UNL d   1      32.847  23.063 -21.431  0.00  0.00     0.003 A 
ATOM     23  C   UNL d   1      33.099  22.826 -22.181  0.00  0.00     0.019 A 
ATOM     24  O   UNL d   1      32.786  20.095 -21.408  0.00  0.00    -0.237 OA
ENDBRANCH  16  17
ENDBRANCH   2  16
TORSDOF 3
ENDMDL
MODEL 4
REMARK VINA RESULT:      -0.8      1.954      6.048
REMARK  3 active torsions:
REMARK  status: ('A' for Active; 'I' for Inactive)
REMARK       I    between atoms: N_3  and  C_1 
REMARK       I    between atoms: N_5  and  C_1 
REMARK    1  A    between atoms: C_2  and  O_6 
REMARK       I    between atoms: N_4  and  C_2 
REMARK    2  A    between atoms: C_10  and  N_5 
REMARK    3  A    between atoms: O_6  and  C_11 
ROOT
ATOM      1  C   UNL d   1      33.216  22.096 -20.306  0.00  0.00     0.086 A 
ATOM      2  C   UNL d   1      33.222  21.434 -21.817  0.00  0.00     0.105 A 
ATOM      3  C   UNL d   1      33.198  21.262 -20.404  0.00  0.00     0.021 A 
ATOM      4  C   UNL d   1      33.238  22.590 -20.986  0.00  0.00     0.021 A 
ATOM      5  C   UNL d   1      33.200  20.936 -21.149  0.00  0.00     0.026 A 
ATOM      6  C   UNL d   1      33.241  22.263 -21.730  0.00  0.00     0.026 A 
ENDROOT
BRANCH   1   7
ATOM      7  N   UNL d   1      33.213  22.422 -19.562  0.00  0.00    -0.192 NA
ATOM      8  C   UNL d   1      32.520  22.691 -19.219  0.00  0.00     0.354 C 
ATOM      9  N   UNL d   1      32.517  23.022 -18.463  0.00  0.00    -0.252 N 
ATOM     10  O   UNL d   1      31.806  22.623 -19.656  0.00  0.00    -0.244 OA
ATOM     11  C   UNL d   1      31.800  23.290 -18.132  0.00  0.00     0.111 A 
ATOM     12  C   UNL d   1      33.220  23.092 -18.027  0.00  0.00     0.111 A 
ATOM     13  C   UNL d   1      31.797  23.626 -17.366  0.00  0.00     0.142 A 
ATOM     14  O   UNL d   1      32.511  23.689 -16.940  0.00  0.00    -0.300 OA
ATOM     15  C   UNL d   1      33.217  23.423 -17.271  0.00  0.00     0.142 A 
ENDBRANCH   1   7
BRANCH   2  16
ATOM     16  O   UNL d   1      33.225  21.103 -22.573  0.00  0.00    -0.259 OA
BRANCH  16  17
ATOM     17  C   UNL d   1      33.141  20.290 -22.668  0.00  0.00     0.377 C 
ATOM     18  N   UNL d   1      33.136  19.960 -23.424  0.00  0.00    -0.252 N 
ATOM     19  C   UNL d   1      33.052  19.146 -23.518  0.00  0.00     0.085 A 
ATOM     20  C   UNL d   1      33.216  20.443 -24.085  0.00  0.00     0.085 A 
ATOM     21  C   UNL d   1      33.047  18.812 -24.272  0.00  0.00     0.019 A 
ATOM     22  C   UNL d   1      33.127  19.295 -24.934  0.00  0.00     0.003 A 
ATOM     23  C   UNL d   1      33.212  20.111 -24.845  0.00  0.00     0.019 A 
ATOM     24  O   UNL d   1      33.061  19.804 -22.010  0.00  0.00    -0.237 OA
ENDBRANCH  16  17
ENDBRANCH   2  16
TORSDOF 3
ENDMDL
MODEL 5
REMARK VINA RESULT:      -0.5      4.396      6.355
REMARK  3 active torsions:
REMARK  status: ('A' for Active; 'I' for Inactive)
REMARK       I    between atoms: N_3  and  C_1 
REMARK       I    between atoms: N_5  and  C_1 
REMARK    1  A    between atoms: C_2  and  O_6 
REMARK       I    between atoms: N_4  and  C_2 
REMARK    2  A    between atoms: C_10  and  N_5 
REMARK    3  A    between atoms: O_6  and  C_11 
ROOT
ATOM      1  C   UNL d   1      33.233  22.859 -19.548  0.00  0.00     0.086 A 
ATOM      2  C   UNL d   1      33.235  23.012 -21.191  0.00  0.00     0.105 A 
ATOM      3  C   UNL d   1      33.227  22.176 -20.039  0.00  0.00     0.021 A 
ATOM      4  C   UNL d   1      33.240  23.620 -19.904  0.00  0.00     0.021 A 
ATOM      5  C   UNL d   1      33.227  22.252 -20.848  0.00  0.00     0.026 A 
ATOM      6  C   UNL d   1      33.241  23.695 -20.714  0.00  0.00     0.026 A 
ENDROOT
BRANCH   1   7
ATOM      7  N   UNL d   1      33.232  22.783 -18.740  0.00  0.00    -0.192 NA
ATOM      8  C   UNL d   1      32.652  23.135 -18.281  0.00  0.00     0.354 C 
ATOM      9  N   UNL d   1      32.651  23.058 -17.459  0.00  0.00    -0.252 N 
ATOM     10  O   UNL d   1      32.052  23.579 -18.667  0.00  0.00    -0.244 OA
ATOM     11  C   UNL d   1      32.050  23.425 -17.011  0.00  0.00     0.111 A 
ATOM     12  C   UNL d   1      33.241  22.621 -17.073  0.00  0.00     0.111 A 
ATOM     13  C   UNL d   1      32.049  23.347 -16.178  0.00  0.00     0.142 A 
ATOM     14  O   UNL d   1      32.649  22.904 -15.804  0.00  0.00    -0.300 OA
ATOM     15  C   UNL d   1      33.240  22.544 -16.251  0.00  0.00     0.142 A 
ENDBRANCH   1   7
BRANCH   2  16
ATOM     16  O   UNL d   1      33.236  23.088 -22.013  0.00  0.00    -0.259 OA
BRANCH  16  17
ATOM     17  C   UNL d   1      32.561  23.351 -22.404  0.00  0.00     0.377 C 
ATOM     18  N   UNL d   1      32.547  23.386 -23.228  0.00  0.00    -0.252 N 
ATOM     19  C   UNL d   1      31.871  23.649 -23.618  0.00  0.00     0.085 A 
ATOM     20  C   UNL d   1      33.208  23.157 -23.661  0.00  0.00     0.085 A 
ATOM     21  C   UNL d   1      31.853  23.685 -24.442  0.00  0.00     0.019 A 
ATOM     22  C   UNL d   1      32.514  23.456 -24.876  0.00  0.00     0.003 A 
ATOM     23  C   UNL d   1      33.194  23.191 -24.489  0.00  0.00     0.019 A 
ATOM     24  O   UNL d   1      31.899  23.581 -21.975  0.00  0.00    -0.237 OA
ENDBRANCH  16  17
ENDBRANCH   2  16
TORSDOF 3
ENDMDL
