MODEL 1
REMARK VINA RESULT:      -5.2      0.000      0.000
REMARK  7 active torsions:
REMARK  status: ('A' for Active; 'I' for Inactive)
REMARK    1  A    between atoms: C_2  and  S_1 
REMARK    2  A    between atoms: N_3  and  S_1 
REMARK    3  A    between atoms: C_18  and  N_3 
REMARK    4  A    between atoms: C_6  and  C_21 
REMARK       I    between atoms: N_7  and  C_6 
REMARK    5  A    between atoms: C_12  and  N_7 
REMARK    6  A    between atoms: C_22  and  C_18 
REMARK    7  A    between atoms: C_21  and  C_22 
ROOT
ATOM      1  N   UNL d   1     -41.411-123.058 -52.415  0.00  0.00    -0.228 N 
ATOM      2  C   UNL d   1     -41.126-123.817 -52.336  0.00  0.00     0.111 C 
ENDROOT
BRANCH   1   3
ATOM      3  S   UNL d   1     -41.602-122.761 -53.158  0.00  0.00     0.271 S 
ATOM      4  O   UNL d   1     -42.019-123.434 -53.302  0.00  0.00    -0.200 OA
ATOM      5  O   UNL d   1     -41.172-122.064 -53.011  0.00  0.00    -0.200 OA
BRANCH   3   6
ATOM      6  C   UNL d   1     -41.797-122.474 -53.896  0.00  0.00     0.104 A 
ATOM      7  C   UNL d   1     -42.381-121.904 -53.976  0.00  0.00     0.013 A 
ATOM      8  C   UNL d   1     -42.585-121.605 -54.724  0.00  0.00     0.001 A 
ATOM      9  C   UNL d   1     -42.195-121.885 -55.391  0.00  0.00     0.000 A 
ATOM     10  C   UNL d   1     -41.608-122.456 -55.322  0.00  0.00     0.001 A 
ATOM     11  C   UNL d   1     -42.392-121.596 -56.130  0.00  0.00     0.000 C 
ATOM     12  C   UNL d   1     -41.405-122.753 -54.577  0.00  0.00     0.013 A 
ENDBRANCH   3   6
ENDBRANCH   1   3
BRANCH   1  13
ATOM     13  C   UNL d   1     -41.509-122.579 -51.748  0.00  0.00     0.092 C 
BRANCH  13  14
ATOM     14  C   UNL d   1     -41.488-122.919 -50.995  0.00  0.00     0.025 C 
BRANCH  14  15
ATOM     15  C   UNL d   1     -41.910-122.573 -50.378  0.00  0.00     0.064 C 
BRANCH  15  16
ATOM     16  C   UNL d   1     -42.025-122.986 -49.673  0.00  0.00     0.279 C 
ATOM     17  N   UNL d   1     -42.080-122.577 -48.955  0.00  0.00    -0.208 NA
ATOM     18  O   UNL d   1     -42.084-123.810 -49.682  0.00  0.00    -0.265 OA
BRANCH  17  19
ATOM     19  C   UNL d   1     -42.194-122.990 -48.251  0.00  0.00     0.088 A 
ATOM     20  C   UNL d   1     -41.547-123.281 -47.835  0.00  0.00     0.040 A 
ATOM     21  C   UNL d   1     -41.656-123.695 -47.131  0.00  0.00     0.101 A 
ATOM     22  N   UNL d   1     -42.422-123.818 -46.840  0.00  0.00    -0.242 NA
ATOM     23  C   UNL d   1     -43.072-123.525 -47.258  0.00  0.00     0.101 A 
ATOM     24  C   UNL d   1     -42.958-123.112 -47.962  0.00  0.00     0.040 A 
ENDBRANCH  17  19
ENDBRANCH  15  16
ENDBRANCH  14  15
ENDBRANCH  13  14
ENDBRANCH   1  13
TORSDOF 7
ENDMDL
