MODEL 1
REMARK VINA RESULT:      48.4      0.000      0.000
REMARK  3 active torsions:
REMARK  status: ('A' for Active; 'I' for Inactive)
REMARK    1  A    between atoms: N_2  and  S_1 
REMARK    2  A    between atoms: C_3  and  S_1 
REMARK    3  A    between atoms: C_5  and  N_4 
ROOT
ATOM      1  N   UNL d   1     -51.471  25.521  33.606  0.00  0.00    -0.226 N 
ATOM      2  N   UNL d   1     -50.288  26.645  33.774  0.00  0.00    -0.286 N 
ATOM      3  C   UNL d   1     -51.578  26.277  33.306  0.00  0.00     0.111 A 
ATOM      4  C   UNL d   1     -50.773  25.326  33.990  0.00  0.00     0.111 A 
ATOM      5  C   UNL d   1     -50.182  25.889  34.074  0.00  0.00     0.101 A 
ATOM      6  C   UNL d   1     -50.986  26.840  33.389  0.00  0.00     0.101 A 
ENDROOT
BRANCH   1   7
ATOM      7  S   UNL d   1     -52.071  24.944  33.523  0.00  0.00     0.277 S 
ATOM      8  O   UNL d   1     -52.653  25.533  33.611  0.00  0.00    -0.199 OA
ATOM      9  O   UNL d   1     -51.487  24.351  33.433  0.00  0.00    -0.199 OA
BRANCH   7  10
ATOM     10  C   UNL d   1     -52.671  24.366  33.439  0.00  0.00     0.133 A 
ATOM     11  S   UNL d   1     -52.555  23.547  33.399  0.00  0.00    -0.074 SA
ATOM     12  C   UNL d   1     -53.308  23.188  33.316  0.00  0.00     0.036 A 
ATOM     13  C   UNL d   1     -53.879  23.794  33.308  0.00  0.00     0.008 A 
ATOM     14  C   UNL d   1     -53.492  24.522  33.383  0.00  0.00     0.020 A 
ENDBRANCH   7  10
ENDBRANCH   1   7
BRANCH   2  15
ATOM     15  C   UNL d   1     -49.703  27.215  33.852  0.00  0.00     0.148 A 
ATOM     16  N   UNL d   1     -49.072  27.072  34.356  0.00  0.00    -0.227 NA
ATOM     17  C   UNL d   1     -48.483  27.636  34.441  0.00  0.00     0.101 A 
ATOM     18  C   UNL d   1     -48.524  28.344  34.021  0.00  0.00     0.021 A 
ATOM     19  C   UNL d   1     -49.162  28.481  33.516  0.00  0.00     0.005 A 
ATOM     20  C   UNL d   1     -49.751  27.918  33.431  0.00  0.00     0.037 A 
ENDBRANCH   2  15
TORSDOF 3
ENDMDL
