MODEL 1
REMARK VINA RESULT:      50.9      0.000      0.000
REMARK  5 active torsions:
REMARK  status: ('A' for Active; 'I' for Inactive)
REMARK    1  A    between atoms: N_4  and  C_1 
REMARK    2  A    between atoms: C_8  and  C_3 
REMARK       I    between atoms: C_7  and  N_4 
REMARK    3  A    between atoms: C_11  and  C_7 
REMARK    4  A    between atoms: C_12  and  C_11 
REMARK    5  A    between atoms: O_18  and  C_13 
ROOT
ATOM      1  N   UNL d   1     -50.466  27.083  33.460  0.00  0.00    -0.183 NA
ATOM      2  C   UNL d   1     -50.207  27.407  34.173  0.00  0.00     0.281 C 
ATOM      3  O   UNL d   1     -50.113  26.917  34.837  0.00  0.00    -0.265 OA
ENDROOT
BRANCH   1   4
ATOM      4  C   UNL d   1     -50.631  26.273  33.411  0.00  0.00     0.197 A 
ATOM      5  N   UNL d   1     -51.370  25.932  33.433  0.00  0.00    -0.221 NA
ATOM      6  C   UNL d   1     -51.282  25.116  33.368  0.00  0.00     0.090 A 
ATOM      7  C   UNL d   1     -50.473  24.958  33.306  0.00  0.00     0.058 A 
ATOM      8  S   UNL d   1     -50.074  25.689  33.334  0.00  0.00    -0.046 SA
BRANCH   6   9
ATOM      9  C   UNL d   1     -51.877  24.567  33.365  0.00  0.00     0.021 A 
ATOM     10  C   UNL d   1     -52.663  24.821  33.412  0.00  0.00     0.022 A 
ATOM     11  C   UNL d   1     -53.273  24.260  33.410  0.00  0.00     0.099 A 
ATOM     12  N   UNL d   1     -53.088  23.454  33.360  0.00  0.00    -0.242 NA
ATOM     13  C   UNL d   1     -52.313  23.205  33.314  0.00  0.00     0.099 A 
ATOM     14  C   UNL d   1     -51.695  23.763  33.316  0.00  0.00     0.022 A 
ENDBRANCH   6   9
ENDBRANCH   1   4
BRANCH   2  15
ATOM     15  C   UNL d   1     -50.041  28.212  34.228  0.00  0.00     0.063 C 
BRANCH  15  16
ATOM     16  C   UNL d   1     -49.319  28.458  34.531  0.00  0.00     0.005 A 
ATOM     17  C   UNL d   1     -49.206  29.258  34.746  0.00  0.00     0.002 A 
ATOM     18  C   UNL d   1     -48.481  29.496  35.049  0.00  0.00     0.024 A 
ATOM     19  C   UNL d   1     -47.868  28.963  35.143  0.00  0.00     0.094 A 
ATOM     20  C   UNL d   1     -47.981  28.163  34.927  0.00  0.00     0.024 A 
ATOM     21  C   UNL d   1     -48.703  27.917  34.624  0.00  0.00     0.002 A 
BRANCH  19  22
ATOM     22  O   UNL d   1     -47.140  29.200  35.446  0.00  0.00    -0.328 OA
ATOM     23  C   UNL d   1     -47.089  29.619  36.146  0.00  0.00     0.181 C 
ENDBRANCH  19  22
ENDBRANCH  15  16
ENDBRANCH   2  15
TORSDOF 5
ENDMDL
MODEL 2
REMARK VINA RESULT:      52.7      1.459      2.255
REMARK  5 active torsions:
REMARK  status: ('A' for Active; 'I' for Inactive)
REMARK    1  A    between atoms: N_4  and  C_1 
REMARK    2  A    between atoms: C_8  and  C_3 
REMARK       I    between atoms: C_7  and  N_4 
REMARK    3  A    between atoms: C_11  and  C_7 
REMARK    4  A    between atoms: C_12  and  C_11 
REMARK    5  A    between atoms: O_18  and  C_13 
ROOT
ATOM      1  N   UNL d   1     -48.595  27.789  34.612  0.00  0.00    -0.183 NA
ATOM      2  C   UNL d   1     -48.651  28.520  34.990  0.00  0.00     0.281 C 
ATOM      3  O   UNL d   1     -49.353  28.961  34.931  0.00  0.00    -0.265 OA
ENDROOT
BRANCH   1   4
ATOM      4  C   UNL d   1     -49.238  27.500  34.177  0.00  0.00     0.197 A 
ATOM      5  N   UNL d   1     -49.550  26.749  34.223  0.00  0.00    -0.221 NA
ATOM      6  C   UNL d   1     -50.181  26.697  33.698  0.00  0.00     0.090 A 
ATOM      7  C   UNL d   1     -50.255  27.431  33.326  0.00  0.00     0.058 A 
ATOM      8  S   UNL d   1     -49.660  27.927  33.632  0.00  0.00    -0.046 SA
BRANCH   6   9
ATOM      9  C   UNL d   1     -50.647  26.047  33.568  0.00  0.00     0.021 A 
ATOM     10  C   UNL d   1     -51.470  26.132  33.566  0.00  0.00     0.022 A 
ATOM     11  C   UNL d   1     -51.946  25.467  33.434  0.00  0.00     0.099 A 
ATOM     12  N   UNL d   1     -51.594  24.729  33.306  0.00  0.00    -0.242 NA
ATOM     13  C   UNL d   1     -50.783  24.647  33.308  0.00  0.00     0.099 A 
ATOM     14  C   UNL d   1     -50.297  25.310  33.440  0.00  0.00     0.022 A 
ENDBRANCH   6   9
ENDBRANCH   1   4
BRANCH   2  15
ATOM     15  C   UNL d   1     -48.015  28.813  35.425  0.00  0.00     0.063 C 
BRANCH  15  16
ATOM     16  C   UNL d   1     -47.808  29.605  35.357  0.00  0.00     0.005 A 
ATOM     17  C   UNL d   1     -47.263  29.942  35.895  0.00  0.00     0.002 A 
ATOM     18  C   UNL d   1     -47.062  30.734  35.820  0.00  0.00     0.024 A 
ATOM     19  C   UNL d   1     -47.384  31.197  35.229  0.00  0.00     0.094 A 
ATOM     20  C   UNL d   1     -47.928  30.860  34.691  0.00  0.00     0.024 A 
ATOM     21  C   UNL d   1     -48.135  30.068  34.759  0.00  0.00     0.002 A 
BRANCH  19  22
ATOM     22  O   UNL d   1     -47.182  31.993  35.153  0.00  0.00    -0.328 OA
ATOM     23  C   UNL d   1     -47.259  32.382  34.438  0.00  0.00     0.181 C 
ENDBRANCH  19  22
ENDBRANCH  15  16
ENDBRANCH   2  15
TORSDOF 5
ENDMDL
