MODEL 1
REMARK VINA RESULT:      -3.6      0.000      0.000
REMARK  4 active torsions:
REMARK  status: ('A' for Active; 'I' for Inactive)
REMARK    1  A    between atoms: C_2  and  C_1 
REMARK    2  A    between atoms: N_12  and  C_6 
REMARK    3  A    between atoms: C_16  and  N_12 
REMARK    4  A    between atoms: O_25  and  C_17 
ROOT
ATOM      1  C   UNL d   1     -41.878-122.671 -52.077  0.00  0.00     0.082 A 
ATOM      2  C   UNL d   1     -41.402-123.322 -52.245  0.00  0.00     0.302 A 
ATOM      3  C   UNL d   1     -42.146-122.189 -52.691  0.00  0.00     0.009 A 
ATOM      4  O   UNL d   1     -41.190-123.497 -53.029  0.00  0.00    -0.273 OA
ATOM      5  C   UNL d   1     -41.940-122.356 -53.476  0.00  0.00     0.025 A 
ATOM      6  C   UNL d   1     -41.459-123.015 -53.638  0.00  0.00     0.103 A 
ATOM      7  O   UNL d   1     -41.128-123.812 -51.630  0.00  0.00    -0.259 OA
ATOM      8  C   UNL d   1     -42.212-121.871 -54.085  0.00  0.00     0.026 A 
ATOM      9  C   UNL d   1     -41.257-123.176 -54.422  0.00  0.00     0.027 A 
ATOM     10  C   UNL d   1     -42.002-122.043 -54.863  0.00  0.00     0.094 A 
ATOM     11  C   UNL d   1     -41.522-122.701 -55.032  0.00  0.00     0.026 A 
ENDROOT
BRANCH   1  12
ATOM     12  C   UNL d   1     -42.084-122.504 -51.293  0.00  0.00     0.095 A 
ATOM     13  N   UNL d   1     -42.477-123.012 -50.774  0.00  0.00    -0.221 NA
ATOM     14  C   UNL d   1     -42.564-122.616 -50.056  0.00  0.00     0.194 A 
ATOM     15  S   UNL d   1     -42.226-121.862 -50.127  0.00  0.00    -0.046 SA
ATOM     16  C   UNL d   1     -41.927-121.793 -50.899  0.00  0.00     0.058 A 
BRANCH  14  17
ATOM     17  N   UNL d   1     -42.929-122.921 -49.377  0.00  0.00    -0.221 NA
BRANCH  17  18
ATOM     18  C   UNL d   1     -42.479-123.095 -48.708  0.00  0.00     0.084 A 
ATOM     19  C   UNL d   1     -42.648-122.714 -47.999  0.00  0.00     0.020 A 
ATOM     20  C   UNL d   1     -42.192-122.892 -47.325  0.00  0.00     0.013 A 
ATOM     21  C   UNL d   1     -41.579-123.445 -47.373  0.00  0.00     0.058 A 
ATOM     22  C   UNL d   1     -41.425-123.817 -48.094  0.00  0.00     0.013 A 
ATOM     23 CL   UNL d   1     -41.126-123.624 -46.711  0.00  0.00    -0.082 Cl
ATOM     24  C   UNL d   1     -41.871-123.645 -48.760  0.00  0.00     0.020 A 
ENDBRANCH  17  18
ENDBRANCH  14  17
ENDBRANCH   1  12
BRANCH  10  25
ATOM     25  O   UNL d   1     -42.271-121.561 -55.476  0.00  0.00    -0.328 OA
ATOM     26  C   UNL d   1     -41.844-121.500 -56.178  0.00  0.00     0.181 C 
ENDBRANCH  10  25
TORSDOF 4
ENDMDL
