MODEL 1
REMARK VINA RESULT:      -7.5      0.000      0.000
REMARK  5 active torsions:
REMARK  status: ('A' for Active; 'I' for Inactive)
REMARK    1  A    between atoms: N_2  and  C_1 
REMARK       I    between atoms: N_4  and  C_5 
REMARK    2  A    between atoms: C_5  and  C_9 
REMARK    3  A    between atoms: C_18  and  N_6 
REMARK    4  A    between atoms: C_10  and  C_8 
REMARK    5  A    between atoms: C_9  and  C_10 
ROOT
ATOM      1  N   UNL d   1      51.971  33.290  52.989  0.00  0.00    -0.269 N 
ATOM      2  C   UNL d   1      52.691  32.869  53.097  0.00  0.00     0.265 C 
ATOM      3  N   UNL d   1      50.586  34.150  52.763  0.00  0.00    -0.301 N 
ATOM      4  C   UNL d   1      51.240  32.947  53.162  0.00  0.00     0.102 A 
ATOM      5  C   UNL d   1      52.007  34.067  52.703  0.00  0.00     0.102 A 
ATOM      6  C   UNL d   1      50.550  33.371  53.051  0.00  0.00     0.100 A 
ATOM      7  C   UNL d   1      51.311  34.508  52.586  0.00  0.00     0.100 A 
ATOM      8  O   UNL d   1      53.417  33.227  52.920  0.00  0.00    -0.267 OA
ENDROOT
BRANCH   2   9
ATOM      9  C   UNL d   1      52.665  32.093  53.383  0.00  0.00     0.062 C 
BRANCH   9  10
ATOM     10  C   UNL d   1      53.305  31.575  53.280  0.00  0.00     0.011 C 
BRANCH  10  11
ATOM     11  C   UNL d   1      53.258  30.775  53.487  0.00  0.00     0.031 A 
ATOM     12  S   UNL d   1      53.375  30.393  54.217  0.00  0.00    -0.064 SA
ATOM     13  C   UNL d   1      53.253  29.585  54.085  0.00  0.00     0.156 A 
ATOM     14  C   UNL d   1      53.071  29.477  53.314  0.00  0.00     0.031 A 
ATOM     15  C   UNL d   1      53.068  30.198  52.924  0.00  0.00     0.009 A 
BRANCH  13  16
ATOM     16  N   UNL d   1      53.306  28.958  54.654  0.00  0.00    -0.107 N 
ATOM     17  O   UNL d   1      53.010  29.081  55.409  0.00  0.00    -0.531 OA
ATOM     18  O   UNL d   1      53.653  28.242  54.428  0.00  0.00    -0.531 OA
ENDBRANCH  13  16
ENDBRANCH  10  11
ENDBRANCH   9  10
ENDBRANCH   2   9
BRANCH   3  19
ATOM     19  C   UNL d   1      49.891  34.578  52.651  0.00  0.00     0.064 A 
ATOM     20  C   UNL d   1      49.588  35.031  53.258  0.00  0.00     0.018 A 
ATOM     21  C   UNL d   1      48.879  35.469  53.143  0.00  0.00     0.002 A 
ATOM     22  C   UNL d   1      48.503  35.434  52.423  0.00  0.00     0.000 A 
ATOM     23  C   UNL d   1      48.806  34.977  51.807  0.00  0.00     0.002 A 
ATOM     24  C   UNL d   1      49.501  34.550  51.924  0.00  0.00     0.018 A 
ENDBRANCH   3  19
TORSDOF 5
ENDMDL
MODEL 2
REMARK VINA RESULT:      -7.3      3.125      6.029
REMARK  5 active torsions:
REMARK  status: ('A' for Active; 'I' for Inactive)
REMARK    1  A    between atoms: N_2  and  C_1 
REMARK       I    between atoms: N_4  and  C_5 
REMARK    2  A    between atoms: C_5  and  C_9 
REMARK    3  A    between atoms: C_18  and  N_6 
REMARK    4  A    between atoms: C_10  and  C_8 
REMARK    5  A    between atoms: C_9  and  C_10 
ROOT
ATOM      1  N   UNL d   1      51.125  34.169  52.868  0.00  0.00    -0.269 N 
ATOM      2  C   UNL d   1      50.440  34.372  52.423  0.00  0.00     0.265 C 
ATOM      3  N   UNL d   1      52.480  33.751  53.703  0.00  0.00    -0.301 N 
ATOM      4  C   UNL d   1      51.228  34.430  53.645  0.00  0.00     0.102 A 
ATOM      5  C   UNL d   1      51.704  33.698  52.509  0.00  0.00     0.102 A 
ATOM      6  C   UNL d   1      51.899  34.224  54.063  0.00  0.00     0.100 A 
ATOM      7  C   UNL d   1      52.393  33.482  52.924  0.00  0.00     0.100 A 
ATOM      8  O   UNL d   1      50.353  34.103  51.644  0.00  0.00    -0.267 OA
ENDROOT
BRANCH   2   9
ATOM      9  C   UNL d   1      49.856  34.842  52.773  0.00  0.00     0.062 C 
BRANCH   9  10
ATOM     10  C   UNL d   1      49.144  35.006  52.381  0.00  0.00     0.011 C 
BRANCH  10  11
ATOM     11  C   UNL d   1      48.564  35.494  52.713  0.00  0.00     0.031 A 
ATOM     12  S   UNL d   1      48.325  35.596  53.503  0.00  0.00    -0.064 SA
ATOM     13  C   UNL d   1      47.718  36.159  53.497  0.00  0.00     0.156 A 
ATOM     14  C   UNL d   1      47.592  36.390  52.742  0.00  0.00     0.031 A 
ATOM     15  C   UNL d   1      48.103  35.993  52.240  0.00  0.00     0.009 A 
BRANCH  13  16
ATOM     16  N   UNL d   1      47.286  36.458  54.164  0.00  0.00    -0.107 N 
ATOM     17  O   UNL d   1      47.703  36.709  54.824  0.00  0.00    -0.531 OA
ATOM     18  O   UNL d   1      46.461  36.485  54.127  0.00  0.00    -0.531 OA
ENDBRANCH  13  16
ENDBRANCH  10  11
ENDBRANCH   9  10
ENDBRANCH   2   9
BRANCH   3  19
ATOM     19  C   UNL d   1      53.158  33.543  54.123  0.00  0.00     0.064 A 
ATOM     20  C   UNL d   1      53.338  32.756  54.244  0.00  0.00     0.018 A 
ATOM     21  C   UNL d   1      54.029  32.543  54.672  0.00  0.00     0.002 A 
ATOM     22  C   UNL d   1      54.513  33.129  54.962  0.00  0.00     0.000 A 
ATOM     23  C   UNL d   1      54.335  33.926  54.842  0.00  0.00     0.002 A 
ATOM     24  C   UNL d   1      53.655  34.129  54.422  0.00  0.00     0.018 A 
ENDBRANCH   3  19
TORSDOF 5
ENDMDL
MODEL 3
REMARK VINA RESULT:      -7.2      2.451      3.102
REMARK  5 active torsions:
REMARK  status: ('A' for Active; 'I' for Inactive)
REMARK    1  A    between atoms: N_2  and  C_1 
REMARK       I    between atoms: N_4  and  C_5 
REMARK    2  A    between atoms: C_5  and  C_9 
REMARK    3  A    between atoms: C_18  and  N_6 
REMARK    4  A    between atoms: C_10  and  C_8 
REMARK    5  A    between atoms: C_9  and  C_10 
ROOT
ATOM      1  N   UNL d   1      50.306  34.499  52.446  0.00  0.00    -0.269 N 
ATOM      2  C   UNL d   1      51.057  34.122  52.400  0.00  0.00     0.265 C 
ATOM      3  N   UNL d   1      48.829  35.223  52.493  0.00  0.00    -0.301 N 
ATOM      4  C   UNL d   1      50.058  34.886  53.132  0.00  0.00     0.102 A 
ATOM      5  C   UNL d   1      49.811  34.474  51.782  0.00  0.00     0.102 A 
ATOM      6  C   UNL d   1      49.326  35.247  53.159  0.00  0.00     0.100 A 
ATOM      7  C   UNL d   1      49.063  34.838  51.798  0.00  0.00     0.100 A 
ATOM      8  O   UNL d   1      51.291  33.737  51.705  0.00  0.00    -0.267 OA
ENDROOT
BRANCH   2   9
ATOM      9  C   UNL d   1      51.558  34.141  53.059  0.00  0.00     0.062 C 
BRANCH   9  10
ATOM     10  C   UNL d   1      52.368  33.976  52.987  0.00  0.00     0.011 C 
BRANCH  10  11
ATOM     11  C   UNL d   1      52.866  33.935  53.647  0.00  0.00     0.031 A 
ATOM     12  S   UNL d   1      53.304  33.301  53.961  0.00  0.00    -0.064 SA
ATOM     13  C   UNL d   1      53.699  33.592  54.628  0.00  0.00     0.156 A 
ATOM     14  C   UNL d   1      53.513  34.364  54.718  0.00  0.00     0.031 A 
ATOM     15  C   UNL d   1      52.999  34.599  54.124  0.00  0.00     0.009 A 
BRANCH  13  16
ATOM     16  N   UNL d   1      54.218  33.165  55.145  0.00  0.00    -0.107 N 
ATOM     17  O   UNL d   1      53.966  32.449  55.457  0.00  0.00    -0.531 OA
ATOM     18  O   UNL d   1      54.961  33.484  55.319  0.00  0.00    -0.531 OA
ENDBRANCH  13  16
ENDBRANCH  10  11
ENDBRANCH   9  10
ENDBRANCH   2   9
BRANCH   3  19
ATOM     19  C   UNL d   1      48.089  35.586  52.519  0.00  0.00     0.064 A 
ATOM     20  C   UNL d   1      47.595  35.552  51.871  0.00  0.00     0.018 A 
ATOM     21  C   UNL d   1      46.841  35.922  51.896  0.00  0.00     0.002 A 
ATOM     22  C   UNL d   1      46.613  36.312  52.572  0.00  0.00     0.000 A 
ATOM     23  C   UNL d   1      47.109  36.349  53.230  0.00  0.00     0.002 A 
ATOM     24  C   UNL d   1      47.848  35.984  53.200  0.00  0.00     0.018 A 
ENDBRANCH   3  19
TORSDOF 5
ENDMDL
MODEL 4
REMARK VINA RESULT:      -6.7      3.783      6.615
REMARK  5 active torsions:
REMARK  status: ('A' for Active; 'I' for Inactive)
REMARK    1  A    between atoms: N_2  and  C_1 
REMARK       I    between atoms: N_4  and  C_5 
REMARK    2  A    between atoms: C_5  and  C_9 
REMARK    3  A    between atoms: C_18  and  N_6 
REMARK    4  A    between atoms: C_10  and  C_8 
REMARK    5  A    between atoms: C_9  and  C_10 
ROOT
ATOM      1  N   UNL d   1      49.730  34.568  51.924  0.00  0.00    -0.269 N 
ATOM      2  C   UNL d   1      49.034  34.731  51.481  0.00  0.00     0.265 C 
ATOM      3  N   UNL d   1      51.112  34.234  52.754  0.00  0.00    -0.301 N 
ATOM      4  C   UNL d   1      49.778  34.736  52.731  0.00  0.00     0.102 A 
ATOM      5  C   UNL d   1      50.378  34.231  51.532  0.00  0.00     0.102 A 
ATOM      6  C   UNL d   1      50.462  34.572  53.147  0.00  0.00     0.100 A 
ATOM      7  C   UNL d   1      51.080  34.059  51.945  0.00  0.00     0.100 A 
ATOM      8  O   UNL d   1      49.002  34.556  50.672  0.00  0.00    -0.267 OA
ENDROOT
BRANCH   2   9
ATOM      9  C   UNL d   1      48.382  35.067  51.864  0.00  0.00     0.062 C 
BRANCH   9  10
ATOM     10  C   UNL d   1      47.769  35.425  51.435  0.00  0.00     0.011 C 
BRANCH  10  11
ATOM     11  C   UNL d   1      47.112  35.764  51.809  0.00  0.00     0.031 A 
ATOM     12  S   UNL d   1      46.313  35.536  51.818  0.00  0.00    -0.064 SA
ATOM     13  C   UNL d   1      45.914  36.090  52.287  0.00  0.00     0.156 A 
ATOM     14  C   UNL d   1      46.442  36.628  52.551  0.00  0.00     0.031 A 
ATOM     15  C   UNL d   1      47.189  36.448  52.269  0.00  0.00     0.009 A 
BRANCH  13  16
ATOM     16  N   UNL d   1      45.086  36.105  52.472  0.00  0.00    -0.107 N 
ATOM     17  O   UNL d   1      44.810  35.647  53.094  0.00  0.00    -0.531 OA
ATOM     18  O   UNL d   1      44.583  36.581  52.019  0.00  0.00    -0.531 OA
ENDBRANCH  13  16
ENDBRANCH  10  11
ENDBRANCH   9  10
ENDBRANCH   2   9
BRANCH   3  19
ATOM     19  C   UNL d   1      51.803  34.067  53.171  0.00  0.00     0.064 A 
ATOM     20  C   UNL d   1      52.006  33.293  53.332  0.00  0.00     0.018 A 
ATOM     21  C   UNL d   1      52.711  33.123  53.758  0.00  0.00     0.002 A 
ATOM     22  C   UNL d   1      53.184  33.737  54.004  0.00  0.00     0.000 A 
ATOM     23  C   UNL d   1      52.982  34.520  53.843  0.00  0.00     0.002 A 
ATOM     24  C   UNL d   1      52.290  34.682  53.426  0.00  0.00     0.018 A 
ENDBRANCH   3  19
TORSDOF 5
ENDMDL
MODEL 5
REMARK VINA RESULT:      -6.7      2.661      5.817
REMARK  5 active torsions:
REMARK  status: ('A' for Active; 'I' for Inactive)
REMARK    1  A    between atoms: N_2  and  C_1 
REMARK       I    between atoms: N_4  and  C_5 
REMARK    2  A    between atoms: C_5  and  C_9 
REMARK    3  A    between atoms: C_18  and  N_6 
REMARK    4  A    between atoms: C_10  and  C_8 
REMARK    5  A    between atoms: C_9  and  C_10 
ROOT
ATOM      1  N   UNL d   1      51.657  33.678  53.131  0.00  0.00    -0.269 N 
ATOM      2  C   UNL d   1      51.258  34.418  53.096  0.00  0.00     0.265 C 
ATOM      3  N   UNL d   1      52.472  32.251  53.215  0.00  0.00    -0.301 N 
ATOM      4  C   UNL d   1      51.280  32.975  52.919  0.00  0.00     0.102 A 
ATOM      5  C   UNL d   1      52.445  33.666  53.386  0.00  0.00     0.102 A 
ATOM      6  C   UNL d   1      51.681  32.264  52.959  0.00  0.00     0.100 A 
ATOM      7  C   UNL d   1      52.864  32.948  53.431  0.00  0.00     0.100 A 
ATOM      8  O   UNL d   1      51.651  35.115  53.312  0.00  0.00    -0.267 OA
ENDROOT
BRANCH   2   9
ATOM      9  C   UNL d   1      50.471  34.441  52.842  0.00  0.00     0.062 C 
BRANCH   9  10
ATOM     10  C   UNL d   1      49.948  35.023  53.117  0.00  0.00     0.011 C 
BRANCH  10  11
ATOM     11  C   UNL d   1      49.213  35.156  52.757  0.00  0.00     0.031 A 
ATOM     12  S   UNL d   1      48.916  34.913  52.020  0.00  0.00    -0.064 SA
ATOM     13  C   UNL d   1      48.146  35.214  51.964  0.00  0.00     0.156 A 
ATOM     14  C   UNL d   1      47.981  35.619  52.633  0.00  0.00     0.031 A 
ATOM     15  C   UNL d   1      48.626  35.598  53.139  0.00  0.00     0.009 A 
BRANCH  13  16
ATOM     16  N   UNL d   1      47.604  35.121  51.318  0.00  0.00    -0.107 N 
ATOM     17  O   UNL d   1      47.831  34.671  50.672  0.00  0.00    -0.531 OA
ATOM     18  O   UNL d   1      46.863  35.487  51.362  0.00  0.00    -0.531 OA
ENDBRANCH  13  16
ENDBRANCH  10  11
ENDBRANCH   9  10
ENDBRANCH   2   9
BRANCH   3  19
ATOM     19  C   UNL d   1      52.879  31.535  53.256  0.00  0.00     0.064 A 
ATOM     20  C   UNL d   1      52.557  30.863  52.925  0.00  0.00     0.018 A 
ATOM     21  C   UNL d   1      52.972  30.133  52.967  0.00  0.00     0.002 A 
ATOM     22  C   UNL d   1      53.694  30.107  53.340  0.00  0.00     0.000 A 
ATOM     23  C   UNL d   1      54.022  30.785  53.677  0.00  0.00     0.002 A 
ATOM     24  C   UNL d   1      53.612  31.498  53.633  0.00  0.00     0.018 A 
ENDBRANCH   3  19
TORSDOF 5
ENDMDL
MODEL 6
REMARK VINA RESULT:      -5.5      9.861     11.211
REMARK  5 active torsions:
REMARK  status: ('A' for Active; 'I' for Inactive)
REMARK    1  A    between atoms: N_2  and  C_1 
REMARK       I    between atoms: N_4  and  C_5 
REMARK    2  A    between atoms: C_5  and  C_9 
REMARK    3  A    between atoms: C_18  and  N_6 
REMARK    4  A    between atoms: C_10  and  C_8 
REMARK    5  A    between atoms: C_9  and  C_10 
ROOT
ATOM      1  N   UNL d   1      44.977  27.547  57.878  0.00  0.00    -0.269 N 
ATOM      2  C   UNL d   1      45.101  28.379  57.848  0.00  0.00     0.265 C 
ATOM      3  N   UNL d   1      44.747  25.918  57.892  0.00  0.00    -0.301 N 
ATOM      4  C   UNL d   1      44.749  27.169  58.575  0.00  0.00     0.102 A 
ATOM      5  C   UNL d   1      45.090  27.107  57.185  0.00  0.00     0.102 A 
ATOM      6  C   UNL d   1      44.634  26.360  58.587  0.00  0.00     0.100 A 
ATOM      7  C   UNL d   1      44.976  26.282  57.184  0.00  0.00     0.100 A 
ATOM      8  O   UNL d   1      45.329  28.743  57.140  0.00  0.00    -0.267 OA
ENDROOT
BRANCH   2   9
ATOM      9  C   UNL d   1      44.990  28.828  58.535  0.00  0.00     0.062 C 
BRANCH   9  10
ATOM     10  C   UNL d   1      45.104  29.649  58.534  0.00  0.00     0.011 C 
BRANCH  10  11
ATOM     11  C   UNL d   1      44.913  30.118  59.190  0.00  0.00     0.031 A 
ATOM     12  S   UNL d   1      45.106  30.034  59.994  0.00  0.00    -0.064 SA
ATOM     13  C   UNL d   1      44.760  30.674  60.390  0.00  0.00     0.156 A 
ATOM     14  C   UNL d   1      44.376  31.127  59.854  0.00  0.00     0.031 A 
ATOM     15  C   UNL d   1      44.456  30.803  59.106  0.00  0.00     0.009 A 
BRANCH  13  16
ATOM     16  N   UNL d   1      44.793  30.844  61.220  0.00  0.00    -0.107 N 
ATOM     17  O   UNL d   1      44.930  30.229  61.745  0.00  0.00    -0.531 OA
ATOM     18  O   UNL d   1      44.686  31.624  61.474  0.00  0.00    -0.531 OA
ENDBRANCH  13  16
ENDBRANCH  10  11
ENDBRANCH   9  10
ENDBRANCH   2   9
BRANCH   3  19
ATOM     19  C   UNL d   1      44.631  25.102  57.901  0.00  0.00     0.064 A 
ATOM     20  C   UNL d   1      44.712  24.686  58.598  0.00  0.00     0.018 A 
ATOM     21  C   UNL d   1      44.594  23.853  58.608  0.00  0.00     0.002 A 
ATOM     22  C   UNL d   1      44.399  23.472  57.916  0.00  0.00     0.000 A 
ATOM     23  C   UNL d   1      44.315  23.889  57.210  0.00  0.00     0.002 A 
ATOM     24  C   UNL d   1      44.432  24.705  57.206  0.00  0.00     0.018 A 
ENDBRANCH   3  19
TORSDOF 5
ENDMDL
MODEL 7
REMARK VINA RESULT:      -5.0     10.095     11.060
REMARK  5 active torsions:
REMARK  status: ('A' for Active; 'I' for Inactive)
REMARK    1  A    between atoms: N_2  and  C_1 
REMARK       I    between atoms: N_4  and  C_5 
REMARK    2  A    between atoms: C_5  and  C_9 
REMARK    3  A    between atoms: C_18  and  N_6 
REMARK    4  A    between atoms: C_10  and  C_8 
REMARK    5  A    between atoms: C_9  and  C_10 
ROOT
ATOM      1  N   UNL d   1      44.502  28.562  59.502  0.00  0.00    -0.269 N 
ATOM      2  C   UNL d   1      44.514  28.464  58.666  0.00  0.00     0.265 C 
ATOM      3  N   UNL d   1      44.487  28.708  61.141  0.00  0.00    -0.301 N 
ATOM      4  C   UNL d   1      44.393  29.303  59.848  0.00  0.00     0.102 A 
ATOM      5  C   UNL d   1      44.604  27.892  59.978  0.00  0.00     0.102 A 
ATOM      6  C   UNL d   1      44.384  29.379  60.662  0.00  0.00     0.100 A 
ATOM      7  C   UNL d   1      44.598  27.957  60.808  0.00  0.00     0.100 A 
ATOM      8  O   UNL d   1      44.625  27.714  58.333  0.00  0.00    -0.267 OA
ENDROOT
BRANCH   2   9
ATOM      9  C   UNL d   1      44.412  29.127  58.181  0.00  0.00     0.062 C 
BRANCH   9  10
ATOM     10  C   UNL d   1      44.615  29.107  57.377  0.00  0.00     0.011 C 
BRANCH  10  11
ATOM     11  C   UNL d   1      44.543  29.774  56.891  0.00  0.00     0.031 A 
ATOM     12  S   UNL d   1      44.497  30.583  57.077  0.00  0.00    -0.064 SA
ATOM     13  C   UNL d   1      44.430  30.989  56.359  0.00  0.00     0.156 A 
ATOM     14  C   UNL d   1      44.435  30.456  55.763  0.00  0.00     0.031 A 
ATOM     15  C   UNL d   1      44.504  29.698  56.067  0.00  0.00     0.009 A 
BRANCH  13  16
ATOM     16  N   UNL d   1      44.366  31.827  56.247  0.00  0.00    -0.107 N 
ATOM     17  O   UNL d   1      44.352  32.315  56.906  0.00  0.00    -0.531 OA
ATOM     18  O   UNL d   1      44.319  32.125  55.477  0.00  0.00    -0.531 OA
ENDBRANCH  13  16
ENDBRANCH  10  11
ENDBRANCH   9  10
ENDBRANCH   2   9
BRANCH   3  19
ATOM     19  C   UNL d   1      44.479  28.783  61.961  0.00  0.00     0.064 A 
ATOM     20  C   UNL d   1      44.325  28.133  62.429  0.00  0.00     0.018 A 
ATOM     21  C   UNL d   1      44.317  28.209  63.267  0.00  0.00     0.002 A 
ATOM     22  C   UNL d   1      44.463  28.937  63.600  0.00  0.00     0.000 A 
ATOM     23  C   UNL d   1      44.619  29.596  63.131  0.00  0.00     0.002 A 
ATOM     24  C   UNL d   1      44.626  29.516  62.310  0.00  0.00     0.018 A 
ENDBRANCH   3  19
TORSDOF 5
ENDMDL
MODEL 8
REMARK VINA RESULT:      -5.0     10.482     11.166
REMARK  5 active torsions:
REMARK  status: ('A' for Active; 'I' for Inactive)
REMARK    1  A    between atoms: N_2  and  C_1 
REMARK       I    between atoms: N_4  and  C_5 
REMARK    2  A    between atoms: C_5  and  C_9 
REMARK    3  A    between atoms: C_18  and  N_6 
REMARK    4  A    between atoms: C_10  and  C_8 
REMARK    5  A    between atoms: C_9  and  C_10 
ROOT
ATOM      1  N   UNL d   1      44.801  29.820  59.712  0.00  0.00    -0.269 N 
ATOM      2  C   UNL d   1      44.770  30.288  60.411  0.00  0.00     0.265 C 
ATOM      3  N   UNL d   1      44.879  28.941  58.323  0.00  0.00    -0.301 N 
ATOM      4  C   UNL d   1      44.564  29.029  59.711  0.00  0.00     0.102 A 
ATOM      5  C   UNL d   1      45.078  30.171  59.015  0.00  0.00     0.102 A 
ATOM      6  C   UNL d   1      44.601  28.589  59.023  0.00  0.00     0.100 A 
ATOM      7  C   UNL d   1      45.121  29.733  58.308  0.00  0.00     0.100 A 
ATOM      8  O   UNL d   1      45.011  31.080  60.395  0.00  0.00    -0.267 OA
ENDROOT
BRANCH   2   9
ATOM      9  C   UNL d   1      44.494  29.946  61.112  0.00  0.00     0.062 C 
BRANCH   9  10
ATOM     10  C   UNL d   1      44.688  30.268  61.852  0.00  0.00     0.011 C 
BRANCH  10  11
ATOM     11  C   UNL d   1      44.580  29.845  62.556  0.00  0.00     0.031 A 
ATOM     12  S   UNL d   1      44.642  29.031  62.717  0.00  0.00    -0.064 SA
ATOM     13  C   UNL d   1      44.472  28.935  63.522  0.00  0.00     0.156 A 
ATOM     14  C   UNL d   1      44.314  29.653  63.836  0.00  0.00     0.031 A 
ATOM     15  C   UNL d   1      44.375  30.231  63.259  0.00  0.00     0.009 A 
BRANCH  13  16
ATOM     16  N   UNL d   1      44.460  28.210  63.962  0.00  0.00    -0.107 N 
ATOM     17  O   UNL d   1      44.593  28.235  64.770  0.00  0.00    -0.531 OA
ATOM     18  O   UNL d   1      44.314  27.501  63.561  0.00  0.00    -0.531 OA
ENDBRANCH  13  16
ENDBRANCH  10  11
ENDBRANCH   9  10
ENDBRANCH   2   9
BRANCH   3  19
ATOM     19  C   UNL d   1      44.917  28.498  57.628  0.00  0.00     0.064 A 
ATOM     20  C   UNL d   1      44.690  28.832  56.920  0.00  0.00     0.018 A 
ATOM     21  C   UNL d   1      44.729  28.381  56.211  0.00  0.00     0.002 A 
ATOM     22  C   UNL d   1      44.995  27.613  56.243  0.00  0.00     0.000 A 
ATOM     23  C   UNL d   1      45.226  27.273  56.958  0.00  0.00     0.002 A 
ATOM     24  C   UNL d   1      45.186  27.719  57.650  0.00  0.00     0.018 A 
ENDBRANCH   3  19
TORSDOF 5
ENDMDL
MODEL 9
REMARK VINA RESULT:      -4.7     11.035     11.718
REMARK  5 active torsions:
REMARK  status: ('A' for Active; 'I' for Inactive)
REMARK    1  A    between atoms: N_2  and  C_1 
REMARK       I    between atoms: N_4  and  C_5 
REMARK    2  A    between atoms: C_5  and  C_9 
REMARK    3  A    between atoms: C_18  and  N_6 
REMARK    4  A    between atoms: C_10  and  C_8 
REMARK    5  A    between atoms: C_9  and  C_10 
ROOT
ATOM      1  N   UNL d   1      44.388  28.812  61.863  0.00  0.00    -0.269 N 
ATOM      2  C   UNL d   1      44.394  28.131  61.369  0.00  0.00     0.265 C 
ATOM      3  N   UNL d   1      44.373  30.117  62.865  0.00  0.00    -0.301 N 
ATOM      4  C   UNL d   1      44.418  29.575  61.548  0.00  0.00     0.102 A 
ATOM      5  C   UNL d   1      44.349  28.704  62.683  0.00  0.00     0.102 A 
ATOM      6  C   UNL d   1      44.411  30.225  62.042  0.00  0.00     0.100 A 
ATOM      7  C   UNL d   1      44.341  29.359  63.197  0.00  0.00     0.100 A 
ATOM      8  O   UNL d   1      44.363  27.373  61.701  0.00  0.00    -0.267 OA
ENDROOT
BRANCH   2   9
ATOM      9  C   UNL d   1      44.432  28.229  60.548  0.00  0.00     0.062 C 
BRANCH   9  10
ATOM     10  C   UNL d   1      44.585  27.587  60.045  0.00  0.00     0.011 C 
BRANCH  10  11
ATOM     11  C   UNL d   1      44.760  27.692  59.242  0.00  0.00     0.031 A 
ATOM     12  S   UNL d   1      44.648  28.346  58.741  0.00  0.00    -0.064 SA
ATOM     13  C   UNL d   1      44.930  28.124  57.995  0.00  0.00     0.156 A 
ATOM     14  C   UNL d   1      45.199  27.373  58.037  0.00  0.00     0.031 A 
ATOM     15  C   UNL d   1      45.104  27.084  58.798  0.00  0.00     0.009 A 
BRANCH  13  16
ATOM     16  N   UNL d   1      44.941  28.595  57.289  0.00  0.00    -0.107 N 
ATOM     17  O   UNL d   1      45.127  28.235  56.576  0.00  0.00    -0.531 OA
ATOM     18  O   UNL d   1      44.765  29.401  57.343  0.00  0.00    -0.531 OA
ENDBRANCH  13  16
ENDBRANCH  10  11
ENDBRANCH   9  10
ENDBRANCH   2   9
BRANCH   3  19
ATOM     19  C   UNL d   1      44.365  30.772  63.366  0.00  0.00     0.064 A 
ATOM     20  C   UNL d   1      44.344  31.525  63.052  0.00  0.00     0.018 A 
ATOM     21  C   UNL d   1      44.336  32.193  63.562  0.00  0.00     0.002 A 
ATOM     22  C   UNL d   1      44.350  32.078  64.368  0.00  0.00     0.000 A 
ATOM     23  C   UNL d   1      44.372  31.319  64.688  0.00  0.00     0.002 A 
ATOM     24  C   UNL d   1      44.379  30.667  64.183  0.00  0.00     0.018 A 
ENDBRANCH   3  19
TORSDOF 5
ENDMDL
