MODEL 1
REMARK VINA RESULT:      -2.8      0.000      0.000
REMARK  5 active torsions:
REMARK  status: ('A' for Active; 'I' for Inactive)
REMARK    1  A    between atoms: N_15  and  C_6 
REMARK    2  A    between atoms: N_14  and  C_18 
REMARK    3  A    between atoms: C_24  and  N_15 
REMARK    4  A    between atoms: C_18  and  C_19 
REMARK    5  A    between atoms: C_19  and  C_24 
ROOT
ATOM      1  N   UNL d   1     -41.514-122.790 -52.269  0.00  0.00    -0.183 N 
ATOM      2  C   UNL d   1     -41.595-122.174 -52.812  0.00  0.00     0.169 A 
ATOM      3  C   UNL d   1     -41.803-122.325 -53.583  0.00  0.00     0.073 A 
ATOM      4  C   UNL d   1     -41.929-123.097 -53.809  0.00  0.00     0.185 A 
ATOM      5  N   UNL d   1     -41.848-123.713 -53.266  0.00  0.00    -0.142 NA
ATOM      6  C   UNL d   1     -41.306-122.618 -51.503  0.00  0.00     0.218 A 
ATOM      7  N   UNL d   1     -41.466-121.403 -52.574  0.00  0.00    -0.226 NA
ATOM      8  C   UNL d   1     -41.883-121.716 -54.120  0.00  0.00     0.007 A 
ATOM      9  N   UNL d   1     -42.140-123.267 -54.587  0.00  0.00    -0.225 NA
ATOM     10  C   UNL d   1     -41.177-121.857 -51.262  0.00  0.00     0.071 A 
ATOM     11  C   UNL d   1     -42.091-121.868 -54.892  0.00  0.00     0.019 A 
ATOM     12  C   UNL d   1     -41.258-121.241 -51.805  0.00  0.00     0.087 A 
ATOM     13  C   UNL d   1     -42.221-122.651 -55.130  0.00  0.00     0.083 A 
ATOM     14  C   UNL d   1     -41.753-120.943 -53.880  0.00  0.00     0.000 C 
ATOM     15  C   UNL d   1     -41.123-120.442 -51.555  0.00  0.00     0.021 C 
ATOM     16  C   UNL d   1     -42.428-122.810 -55.896  0.00  0.00     0.021 C 
ENDROOT
BRANCH   6  17
ATOM     17  N   UNL d   1     -41.224-123.260 -50.948  0.00  0.00    -0.380 NA
BRANCH  17  18
ATOM     18  C   UNL d   1     -41.123-123.817 -50.327  0.00  0.00     0.164 C 
BRANCH  18  19
ATOM     19  C   UNL d   1     -41.576-123.743 -49.622  0.00  0.00     0.054 C 
BRANCH  19  20
ATOM     20  C   UNL d   1     -41.181-123.772 -48.860  0.00  0.00     0.083 C 
BRANCH  20  21
ATOM     21  N   UNL d   1     -41.587-123.528 -48.159  0.00  0.00    -0.299 N 
ATOM     22  C   UNL d   1     -41.141-123.210 -47.502  0.00  0.00     0.107 A 
ATOM     23  C   UNL d   1     -41.541-122.963 -46.794  0.00  0.00     0.142 A 
ATOM     24  O   UNL d   1     -42.387-123.033 -46.742  0.00  0.00    -0.300 OA
ATOM     25  C   UNL d   1     -42.827-123.347 -47.391  0.00  0.00     0.142 A 
ATOM     26  C   UNL d   1     -42.427-123.594 -48.100  0.00  0.00     0.107 A 
ENDBRANCH  20  21
ENDBRANCH  19  20
ENDBRANCH  18  19
ENDBRANCH  17  18
ENDBRANCH   6  17
TORSDOF 5
ENDMDL
MODEL 2
REMARK VINA RESULT:      -1.1      2.164      5.651
REMARK  5 active torsions:
REMARK  status: ('A' for Active; 'I' for Inactive)
REMARK    1  A    between atoms: N_15  and  C_6 
REMARK    2  A    between atoms: N_14  and  C_18 
REMARK    3  A    between atoms: C_24  and  N_15 
REMARK    4  A    between atoms: C_18  and  C_19 
REMARK    5  A    between atoms: C_19  and  C_24 
ROOT
ATOM      1  N   UNL d   1     -41.976-123.087 -50.339  0.00  0.00    -0.183 N 
ATOM      2  C   UNL d   1     -42.439-122.860 -49.695  0.00  0.00     0.169 A 
ATOM      3  C   UNL d   1     -42.246-123.094 -48.941  0.00  0.00     0.073 A 
ATOM      4  C   UNL d   1     -41.586-123.558 -48.834  0.00  0.00     0.185 A 
ATOM      5  N   UNL d   1     -41.122-123.785 -49.478  0.00  0.00    -0.142 NA
ATOM      6  C   UNL d   1     -42.186-122.843 -51.085  0.00  0.00     0.218 A 
ATOM      7  N   UNL d   1     -43.100-122.394 -49.814  0.00  0.00    -0.226 NA
ATOM      8  C   UNL d   1     -42.704-122.869 -48.304  0.00  0.00     0.007 A 
ATOM      9  N   UNL d   1     -41.376-123.804 -48.076  0.00  0.00    -0.225 NA
ATOM     10  C   UNL d   1     -42.838-122.382 -51.208  0.00  0.00     0.071 A 
ATOM     11  C   UNL d   1     -42.510-123.104 -47.550  0.00  0.00     0.019 A 
ATOM     12  C   UNL d   1     -43.301-122.155 -50.564  0.00  0.00     0.087 A 
ATOM     13  C   UNL d   1     -41.839-123.576 -47.432  0.00  0.00     0.083 A 
ATOM     14  C   UNL d   1     -43.366-122.402 -48.426  0.00  0.00     0.000 C 
ATOM     15  C   UNL d   1     -43.987-121.671 -50.692  0.00  0.00     0.021 C 
ATOM     16  C   UNL d   1     -41.640-123.813 -46.685  0.00  0.00     0.021 C 
ENDROOT
BRANCH   6  17
ATOM     17  N   UNL d   1     -41.702-123.082 -51.744  0.00  0.00    -0.380 NA
BRANCH  17  18
ATOM     18  C   UNL d   1     -41.215-123.414 -52.344  0.00  0.00     0.164 C 
BRANCH  18  19
ATOM     19  C   UNL d   1     -41.123-123.011 -53.076  0.00  0.00     0.054 C 
BRANCH  19  20
ATOM     20  C   UNL d   1     -41.461-123.349 -53.790  0.00  0.00     0.083 C 
BRANCH  20  21
ATOM     21  N   UNL d   1     -41.691-122.849 -54.432  0.00  0.00    -0.299 N 
ATOM     22  C   UNL d   1     -41.125-122.659 -55.044  0.00  0.00     0.107 A 
ATOM     23  C   UNL d   1     -41.348-122.157 -55.692  0.00  0.00     0.142 A 
ATOM     24  O   UNL d   1     -42.139-121.844 -55.730  0.00  0.00    -0.300 OA
ATOM     25  C   UNL d   1     -42.698-122.032 -55.125  0.00  0.00     0.142 A 
ATOM     26  C   UNL d   1     -42.474-122.534 -54.476  0.00  0.00     0.107 A 
ENDBRANCH  20  21
ENDBRANCH  19  20
ENDBRANCH  18  19
ENDBRANCH  17  18
ENDBRANCH   6  17
TORSDOF 5
ENDMDL
