MODEL 1
REMARK VINA RESULT:      33.3      0.000      0.000
REMARK  3 active torsions:
REMARK  status: ('A' for Active; 'I' for Inactive)
REMARK    1  A    between atoms: C_7  and  C_4 
REMARK    2  A    between atoms: C_8  and  C_7 
REMARK    3  A    between atoms: C_11  and  C_8 
ROOT
ATOM      1  N   UNL d   1     -52.078  23.766  33.382  0.00  0.00    -0.269 N 
ATOM      2  C   UNL d   1     -51.536  24.387  33.357  0.00  0.00     0.282 A 
ATOM      3  N   UNL d   1     -52.610  25.321  33.328  0.00  0.00    -0.239 NA
ATOM      4  C   UNL d   1     -51.801  25.162  33.330  0.00  0.00     0.138 A 
ATOM      5  C   UNL d   1     -52.887  23.925  33.379  0.00  0.00     0.085 A 
ATOM      6  C   UNL d   1     -53.152  24.700  33.353  0.00  0.00     0.098 A 
ATOM      7  O   UNL d   1     -50.726  24.229  33.359  0.00  0.00    -0.265 OA
ATOM      8  C   UNL d   1     -51.274  23.195  33.399  0.00  0.00     0.102 C 
ATOM      9  C   UNL d   1     -53.430  23.304  33.404  0.00  0.00     0.019 A 
ATOM     10  C   UNL d   1     -53.962  24.858  33.351  0.00  0.00     0.021 A 
ATOM     11  C   UNL d   1     -54.186  23.480  33.401  0.00  0.00     0.002 A 
ATOM     12  C   UNL d   1     -54.451  24.256  33.374  0.00  0.00     0.002 A 
ENDROOT
BRANCH   4  13
ATOM     13  C   UNL d   1     -51.258  25.783  33.306  0.00  0.00     0.024 C 
BRANCH  13  14
ATOM     14  C   UNL d   1     -51.446  26.510  33.647  0.00  0.00     0.002 C 
BRANCH  14  15
ATOM     15  C   UNL d   1     -50.918  27.141  33.591  0.00  0.00     0.000 A 
ATOM     16  C   UNL d   1     -50.113  27.020  33.732  0.00  0.00     0.000 A 
ATOM     17  C   UNL d   1     -49.586  27.651  33.676  0.00  0.00     0.000 A 
ATOM     18  C   UNL d   1     -49.861  28.404  33.480  0.00  0.00     0.000 A 
ATOM     19  C   UNL d   1     -50.666  28.525  33.339  0.00  0.00     0.000 A 
ATOM     20  C   UNL d   1     -51.193  27.893  33.395  0.00  0.00     0.000 A 
ENDBRANCH  14  15
ENDBRANCH  13  14
ENDBRANCH   4  13
TORSDOF 3
ENDMDL
