MODEL 1
REMARK VINA RESULT:      27.1      0.000      0.000
REMARK  4 active torsions:
REMARK  status: ('A' for Active; 'I' for Inactive)
REMARK    1  A    between atoms: C_5  and  C_1 
REMARK    2  A    between atoms: C_9  and  C_6 
REMARK    3  A    between atoms: C_10  and  C_9 
REMARK    4  A    between atoms: C_11  and  C_10 
ROOT
ATOM      1  C   UNL d   1      60.687  49.264  51.202  0.00  0.00     0.169 A 
ATOM      2  N   UNL d   1      60.841  49.695  50.519  0.00  0.00    -0.142 NA
ATOM      3  C   UNL d   1      60.914  48.481  51.065  0.00  0.00     0.048 A 
ATOM      4  N   UNL d   1      61.163  49.187  49.955  0.00  0.00    -0.148 NA
ATOM      5  C   UNL d   1      61.208  48.433  50.295  0.00  0.00     0.105 A 
ENDROOT
BRANCH   5   6
ATOM      6  C   UNL d   1      61.501  47.750  49.918  0.00  0.00     0.021 C 
BRANCH   6   7
ATOM      7  C   UNL d   1      61.382  47.008  50.251  0.00  0.00     0.002 C 
BRANCH   7   8
ATOM      8  C   UNL d   1      61.797  46.357  49.969  0.00  0.00     0.000 C 
ATOM      9  C   UNL d   1      61.385  45.722  49.636  0.00  0.00     0.000 C 
ENDBRANCH   7   8
ENDBRANCH   6   7
ENDBRANCH   5   6
BRANCH   1  10
ATOM     10  C   UNL d   1      60.363  49.558  51.900  0.00  0.00     0.231 C 
ATOM     11  O   UNL d   1      60.853  49.708  52.546  0.00  0.00    -0.643 OA
ATOM     12  O   UNL d   1      59.551  49.703  51.954  0.00  0.00    -0.643 OA
ENDBRANCH   1  10
TORSDOF 4
ENDMDL
MODEL 2
REMARK VINA RESULT:      27.2      9.904     10.420
REMARK  4 active torsions:
REMARK  status: ('A' for Active; 'I' for Inactive)
REMARK    1  A    between atoms: C_5  and  C_1 
REMARK    2  A    between atoms: C_9  and  C_6 
REMARK    3  A    between atoms: C_10  and  C_9 
REMARK    4  A    between atoms: C_11  and  C_10 
ROOT
ATOM      1  C   UNL d   1      58.617  39.511  55.366  0.00  0.00     0.169 A 
ATOM      2  N   UNL d   1      58.341  38.765  55.574  0.00  0.00    -0.142 NA
ATOM      3  C   UNL d   1      58.016  39.895  54.947  0.00  0.00     0.048 A 
ATOM      4  N   UNL d   1      57.573  38.679  55.289  0.00  0.00    -0.148 NA
ATOM      5  C   UNL d   1      57.372  39.382  54.900  0.00  0.00     0.105 A 
ENDROOT
BRANCH   5   6
ATOM      6  C   UNL d   1      56.641  39.536  54.528  0.00  0.00     0.021 C 
BRANCH   6   7
ATOM      7  C   UNL d   1      56.570  40.157  53.995  0.00  0.00     0.002 C 
BRANCH   7   8
ATOM      8  C   UNL d   1      56.053  40.098  53.357  0.00  0.00     0.000 C 
ATOM      9  C   UNL d   1      56.033  40.699  52.790  0.00  0.00     0.000 C 
ENDBRANCH   7   8
ENDBRANCH   6   7
ENDBRANCH   5   6
BRANCH   1  10
ATOM     10  C   UNL d   1      59.359  39.822  55.541  0.00  0.00     0.231 C 
ATOM     11  O   UNL d   1      59.862  40.050  54.928  0.00  0.00    -0.643 OA
ATOM     12  O   UNL d   1      59.599  39.906  56.327  0.00  0.00    -0.643 OA
ENDBRANCH   1  10
TORSDOF 4
ENDMDL
MODEL 3
REMARK VINA RESULT:      28.1      2.046      3.161
REMARK  4 active torsions:
REMARK  status: ('A' for Active; 'I' for Inactive)
REMARK    1  A    between atoms: C_5  and  C_1 
REMARK    2  A    between atoms: C_9  and  C_6 
REMARK    3  A    between atoms: C_10  and  C_9 
REMARK    4  A    between atoms: C_11  and  C_10 
ROOT
ATOM      1  C   UNL d   1      61.297  48.184  50.694  0.00  0.00     0.169 A 
ATOM      2  N   UNL d   1      61.407  48.275  51.503  0.00  0.00    -0.142 NA
ATOM      3  C   UNL d   1      60.702  48.709  50.459  0.00  0.00     0.048 A 
ATOM      4  N   UNL d   1      60.886  48.853  51.777  0.00  0.00    -0.148 NA
ATOM      5  C   UNL d   1      60.449  49.121  51.127  0.00  0.00     0.105 A 
ENDROOT
BRANCH   5   6
ATOM      6  C   UNL d   1      59.856  49.708  51.152  0.00  0.00     0.021 C 
BRANCH   6   7
ATOM      7  C   UNL d   1      59.062  49.496  51.139  0.00  0.00     0.002 C 
BRANCH   7   8
ATOM      8  C   UNL d   1      58.623  49.581  50.449  0.00  0.00     0.000 C 
ATOM      9  C   UNL d   1      57.805  49.691  50.495  0.00  0.00     0.000 C 
ENDBRANCH   7   8
ENDBRANCH   6   7
ENDBRANCH   5   6
BRANCH   1  10
ATOM     10  C   UNL d   1      61.704  47.664  50.203  0.00  0.00     0.231 C 
ATOM     11  O   UNL d   1      61.361  46.943  49.997  0.00  0.00    -0.643 OA
ATOM     12  O   UNL d   1      62.454  47.862  49.918  0.00  0.00    -0.643 OA
ENDBRANCH   1  10
TORSDOF 4
ENDMDL
