MODEL 1
REMARK VINA RESULT:      -2.2      0.000      0.000
REMARK  3 active torsions:
REMARK  status: ('A' for Active; 'I' for Inactive)
REMARK    1  A    between atoms: C_2  and  O_3 
REMARK    2  A    between atoms: O_3  and  C_5 
REMARK    3  A    between atoms: C_5  and  C_4 
ROOT
ATOM      1  C   UNL d   1      32.863  23.129 -19.700  0.00  0.00     0.100 A 
ATOM      2  C   UNL d   1      32.867  22.336 -19.927  0.00  0.00     0.025 A 
ATOM      3  C   UNL d   1      32.488  23.692 -20.172  0.00  0.00     0.025 A 
ATOM      4  C   UNL d   1      32.497  22.098 -20.628  0.00  0.00     0.002 A 
ATOM      5  C   UNL d   1      32.117  23.452 -20.871  0.00  0.00     0.002 A 
ATOM      6  C   UNL d   1      32.122  22.666 -21.096  0.00  0.00     0.000 A 
ENDROOT
BRANCH   1   7
ATOM      7  O   UNL d   1      33.233  23.362 -19.003  0.00  0.00    -0.303 OA
BRANCH   7   8
ATOM      8  C   UNL d   1      32.842  23.288 -18.276  0.00  0.00     0.145 C 
BRANCH   8   9
ATOM      9  C   UNL d   1      33.208  23.525 -17.579  0.00  0.00     0.149 C 
ATOM     10  N   UNL d   1      32.848  23.394 -16.851  0.00  0.00    -0.144 N 
ENDBRANCH   8   9
ENDBRANCH   7   8
ENDBRANCH   1   7
TORSDOF 3
ENDMDL
MODEL 2
REMARK VINA RESULT:      -2.2      3.167      3.985
REMARK  3 active torsions:
REMARK  status: ('A' for Active; 'I' for Inactive)
REMARK    1  A    between atoms: C_2  and  O_3 
REMARK    2  A    between atoms: O_3  and  C_5 
REMARK    3  A    between atoms: C_5  and  C_4 
ROOT
ATOM      1  C   UNL d   1      32.934  21.122 -21.370  0.00  0.00     0.100 A 
ATOM      2  C   UNL d   1      32.410  21.251 -20.746  0.00  0.00     0.025 A 
ATOM      3  C   UNL d   1      33.153  21.746 -21.861  0.00  0.00     0.025 A 
ATOM      4  C   UNL d   1      32.100  22.005 -20.608  0.00  0.00     0.002 A 
ATOM      5  C   UNL d   1      32.842  22.500 -21.722  0.00  0.00     0.002 A 
ATOM      6  C   UNL d   1      32.323  22.628 -21.104  0.00  0.00     0.000 A 
ENDROOT
BRANCH   1   7
ATOM      7  O   UNL d   1      33.240  20.370 -21.504  0.00  0.00    -0.303 OA
BRANCH   7   8
ATOM      8  C   UNL d   1      32.939  19.897 -22.114  0.00  0.00     0.145 C 
BRANCH   8   9
ATOM      9  C   UNL d   1      33.227  19.136 -22.233  0.00  0.00     0.149 C 
ATOM     10  N   UNL d   1      32.907  18.654 -22.818  0.00  0.00    -0.144 N 
ENDBRANCH   8   9
ENDBRANCH   7   8
ENDBRANCH   1   7
TORSDOF 3
ENDMDL
MODEL 3
REMARK VINA RESULT:      -2.0      8.062      8.616
REMARK  3 active torsions:
REMARK  status: ('A' for Active; 'I' for Inactive)
REMARK    1  A    between atoms: C_2  and  O_3 
REMARK    2  A    between atoms: O_3  and  C_5 
REMARK    3  A    between atoms: C_5  and  C_4 
ROOT
ATOM      1  C   UNL d   1      29.940  16.162 -23.837  0.00  0.00     0.100 A 
ATOM      2  C   UNL d   1      29.487  16.736 -24.219  0.00  0.00     0.025 A 
ATOM      3  C   UNL d   1      29.591  15.662 -23.284  0.00  0.00     0.025 A 
ATOM      4  C   UNL d   1      28.681  16.815 -24.052  0.00  0.00     0.002 A 
ATOM      5  C   UNL d   1      28.785  15.741 -23.117  0.00  0.00     0.002 A 
ATOM      6  C   UNL d   1      28.336  16.310 -23.496  0.00  0.00     0.000 A 
ENDROOT
BRANCH   1   7
ATOM      7  O   UNL d   1      30.742  16.088 -24.007  0.00  0.00    -0.303 OA
BRANCH   7   8
ATOM      8  C   UNL d   1      31.302  16.532 -23.587  0.00  0.00     0.145 C 
BRANCH   8   9
ATOM      9  C   UNL d   1      32.105  16.447 -23.746  0.00  0.00     0.149 C 
ATOM     10  N   UNL d   1      32.660  16.913 -23.357  0.00  0.00    -0.144 N 
ENDBRANCH   8   9
ENDBRANCH   7   8
ENDBRANCH   1   7
TORSDOF 3
ENDMDL
MODEL 4
REMARK VINA RESULT:      -1.9      6.111      7.028
REMARK  3 active torsions:
REMARK  status: ('A' for Active; 'I' for Inactive)
REMARK    1  A    between atoms: C_2  and  O_3 
REMARK    2  A    between atoms: O_3  and  C_5 
REMARK    3  A    between atoms: C_5  and  C_4 
ROOT
ATOM      1  C   UNL d   1      31.930  17.419 -23.844  0.00  0.00     0.100 A 
ATOM      2  C   UNL d   1      31.823  16.676 -23.502  0.00  0.00     0.025 A 
ATOM      3  C   UNL d   1      31.374  17.711 -24.378  0.00  0.00     0.025 A 
ATOM      4  C   UNL d   1      31.160  16.218 -23.691  0.00  0.00     0.002 A 
ATOM      5  C   UNL d   1      30.712  17.253 -24.566  0.00  0.00     0.002 A 
ATOM      6  C   UNL d   1      30.606  16.517 -24.227  0.00  0.00     0.000 A 
ENDROOT
BRANCH   1   7
ATOM      7  O   UNL d   1      32.591  17.870 -23.653  0.00  0.00    -0.303 OA
BRANCH   7   8
ATOM      8  C   UNL d   1      32.593  18.343 -22.973  0.00  0.00     0.145 C 
BRANCH   8   9
ATOM      9  C   UNL d   1      33.241  18.819 -22.799  0.00  0.00     0.149 C 
ATOM     10  N   UNL d   1      33.235  19.308 -22.137  0.00  0.00    -0.144 N 
ENDBRANCH   8   9
ENDBRANCH   7   8
ENDBRANCH   1   7
TORSDOF 3
ENDMDL
MODEL 5
REMARK VINA RESULT:      -1.9      7.739      8.463
REMARK  3 active torsions:
REMARK  status: ('A' for Active; 'I' for Inactive)
REMARK    1  A    between atoms: C_2  and  O_3 
REMARK    2  A    between atoms: O_3  and  C_5 
REMARK    3  A    between atoms: C_5  and  C_4 
ROOT
ATOM      1  C   UNL d   1      30.797  16.652 -24.104  0.00  0.00     0.100 A 
ATOM      2  C   UNL d   1      30.913  17.385 -24.465  0.00  0.00     0.025 A 
ATOM      3  C   UNL d   1      31.371  16.344 -23.600  0.00  0.00     0.025 A 
ATOM      4  C   UNL d   1      31.605  17.816 -24.326  0.00  0.00     0.002 A 
ATOM      5  C   UNL d   1      32.063  16.777 -23.462  0.00  0.00     0.002 A 
ATOM      6  C   UNL d   1      32.178  17.502 -23.820  0.00  0.00     0.000 A 
ENDROOT
BRANCH   1   7
ATOM      7  O   UNL d   1      30.106  16.227 -24.245  0.00  0.00    -0.303 OA
BRANCH   7   8
ATOM      8  C   UNL d   1      29.428  16.365 -23.790  0.00  0.00     0.145 C 
BRANCH   8   9
ATOM      9  C   UNL d   1      28.744  15.926 -23.917  0.00  0.00     0.149 C 
ATOM     10  N   UNL d   1      28.051  16.105 -23.510  0.00  0.00    -0.144 N 
ENDBRANCH   8   9
ENDBRANCH   7   8
ENDBRANCH   1   7
TORSDOF 3
ENDMDL
MODEL 6
REMARK VINA RESULT:      -1.9      7.081      7.929
REMARK  3 active torsions:
REMARK  status: ('A' for Active; 'I' for Inactive)
REMARK    1  A    between atoms: C_2  and  O_3 
REMARK    2  A    between atoms: O_3  and  C_5 
REMARK    3  A    between atoms: C_5  and  C_4 
ROOT
ATOM      1  C   UNL d   1      31.633  17.442 -24.251  0.00  0.00     0.100 A 
ATOM      2  C   UNL d   1      32.013  18.147 -24.051  0.00  0.00     0.025 A 
ATOM      3  C   UNL d   1      31.890  16.729 -23.928  0.00  0.00     0.025 A 
ATOM      4  C   UNL d   1      32.654  18.145 -23.528  0.00  0.00     0.002 A 
ATOM      5  C   UNL d   1      32.531  16.729 -23.404  0.00  0.00     0.002 A 
ATOM      6  C   UNL d   1      32.907  17.427 -23.207  0.00  0.00     0.000 A 
ENDROOT
BRANCH   1   7
ATOM      7  O   UNL d   1      30.997  17.449 -24.772  0.00  0.00    -0.303 OA
BRANCH   7   8
ATOM      8  C   UNL d   1      30.221  17.503 -24.486  0.00  0.00     0.145 C 
BRANCH   8   9
ATOM      9  C   UNL d   1      29.586  17.532 -25.007  0.00  0.00     0.149 C 
ATOM     10  N   UNL d   1      28.822  17.660 -24.729  0.00  0.00    -0.144 N 
ENDBRANCH   8   9
ENDBRANCH   7   8
ENDBRANCH   1   7
TORSDOF 3
ENDMDL
MODEL 7
REMARK VINA RESULT:      -1.8      3.120      3.900
REMARK  3 active torsions:
REMARK  status: ('A' for Active; 'I' for Inactive)
REMARK    1  A    between atoms: C_2  and  O_3 
REMARK    2  A    between atoms: O_3  and  C_5 
REMARK    3  A    between atoms: C_5  and  C_4 
ROOT
ATOM      1  C   UNL d   1      32.910  22.347 -21.868  0.00  0.00     0.100 A 
ATOM      2  C   UNL d   1      32.411  22.620 -21.272  0.00  0.00     0.025 A 
ATOM      3  C   UNL d   1      33.088  21.544 -21.922  0.00  0.00     0.025 A 
ATOM      4  C   UNL d   1      32.085  22.094 -20.722  0.00  0.00     0.002 A 
ATOM      5  C   UNL d   1      32.762  21.019 -21.372  0.00  0.00     0.002 A 
ATOM      6  C   UNL d   1      32.268  21.290 -20.781  0.00  0.00     0.000 A 
ENDROOT
BRANCH   1   7
ATOM      7  O   UNL d   1      33.231  22.874 -22.412  0.00  0.00    -0.303 OA
BRANCH   7   8
ATOM      8  C   UNL d   1      32.792  23.116 -23.072  0.00  0.00     0.145 C 
BRANCH   8   9
ATOM      9  C   UNL d   1      33.102  23.663 -23.601  0.00  0.00     0.149 C 
ATOM     10  N   UNL d   1      32.825  23.699 -24.376  0.00  0.00    -0.144 N 
ENDBRANCH   8   9
ENDBRANCH   7   8
ENDBRANCH   1   7
TORSDOF 3
ENDMDL
MODEL 8
REMARK VINA RESULT:      -1.7      3.793      4.621
REMARK  3 active torsions:
REMARK  status: ('A' for Active; 'I' for Inactive)
REMARK    1  A    between atoms: C_2  and  O_3 
REMARK    2  A    between atoms: O_3  and  C_5 
REMARK    3  A    between atoms: C_5  and  C_4 
ROOT
ATOM      1  C   UNL d   1      33.140  19.682 -22.643  0.00  0.00     0.100 A 
ATOM      2  C   UNL d   1      32.940  18.902 -22.466  0.00  0.00     0.025 A 
ATOM      3  C   UNL d   1      33.241  19.916 -23.426  0.00  0.00     0.025 A 
ATOM      4  C   UNL d   1      32.838  18.347 -23.072  0.00  0.00     0.002 A 
ATOM      5  C   UNL d   1      33.138  19.361 -24.031  0.00  0.00     0.002 A 
ATOM      6  C   UNL d   1      32.940  18.588 -23.856  0.00  0.00     0.000 A 
ENDROOT
BRANCH   1   7
ATOM      7  O   UNL d   1      33.241  20.230 -22.036  0.00  0.00    -0.303 OA
BRANCH   7   8
ATOM      8  C   UNL d   1      32.607  20.428 -21.541  0.00  0.00     0.145 C 
BRANCH   8   9
ATOM      9  C   UNL d   1      32.643  21.097 -21.064  0.00  0.00     0.149 C 
ATOM     10  N   UNL d   1      31.954  21.468 -20.810  0.00  0.00    -0.144 N 
ENDBRANCH   8   9
ENDBRANCH   7   8
ENDBRANCH   1   7
TORSDOF 3
ENDMDL
MODEL 9
REMARK VINA RESULT:      -1.0      1.680      2.093
REMARK  3 active torsions:
REMARK  status: ('A' for Active; 'I' for Inactive)
REMARK    1  A    between atoms: C_2  and  O_3 
REMARK    2  A    between atoms: O_3  and  C_5 
REMARK    3  A    between atoms: C_5  and  C_4 
ROOT
ATOM      1  C   UNL d   1      33.167  22.956 -21.653  0.00  0.00     0.100 A 
ATOM      2  C   UNL d   1      33.241  22.135 -21.705  0.00  0.00     0.025 A 
ATOM      3  C   UNL d   1      33.020  23.401 -22.331  0.00  0.00     0.025 A 
ATOM      4  C   UNL d   1      33.168  21.753 -22.435  0.00  0.00     0.002 A 
ATOM      5  C   UNL d   1      32.947  23.017 -23.060  0.00  0.00     0.002 A 
ATOM      6  C   UNL d   1      33.020  22.205 -23.111  0.00  0.00     0.000 A 
ENDROOT
BRANCH   1   7
ATOM      7  O   UNL d   1      33.241  23.331 -20.925  0.00  0.00    -0.303 OA
BRANCH   7   8
ATOM      8  C   UNL d   1      32.711  23.162 -20.310  0.00  0.00     0.145 C 
BRANCH   8   9
ATOM      9  C   UNL d   1      32.652  23.663 -19.661  0.00  0.00     0.149 C 
ATOM     10  N   UNL d   1      32.498  23.360 -18.911  0.00  0.00    -0.144 N 
ENDBRANCH   8   9
ENDBRANCH   7   8
ENDBRANCH   1   7
TORSDOF 3
ENDMDL
