MODEL 1
REMARK VINA RESULT:       0.2      0.000      0.000
REMARK  11 active torsions:
REMARK  status: ('A' for Active; 'I' for Inactive)
REMARK    1  A    between atoms: C_7  and  C_1 
REMARK    2  A    between atoms: C_8  and  C_2 
REMARK    3  A    between atoms: S_9  and  C_3 
REMARK    4  A    between atoms: C_11  and  C_4 
REMARK    5  A    between atoms: O_20  and  C_7 
REMARK    6  A    between atoms: C_15  and  S_9 
REMARK    7  A    between atoms: C_12  and  C_15 
REMARK    8  A    between atoms: O_24  and  C_12 
REMARK    9  A    between atoms: C_18  and  C_26 
REMARK   10  A    between atoms: C_26  and  O_20 
REMARK   11  A    between atoms: C_27  and  O_24 
ROOT
ATOM      1  C   UNL d   1      58.201  -1.272  29.961  0.00  0.00     0.081 A 
ATOM      2  C   UNL d   1      58.215  -0.119  30.815  0.00  0.00     0.045 A 
ATOM      3  C   UNL d   1      57.547  -0.435  31.237  0.00  0.00     0.112 A 
ATOM      4  C   UNL d   1      58.529  -0.548  30.183  0.00  0.00     0.010 A 
ATOM      5  C   UNL d   1      57.551  -1.580  30.371  0.00  0.00     0.087 A 
ATOM      6  N   UNL d   1      57.233  -1.162  31.000  0.00  0.00    -0.239 NA
ATOM      7  C   UNL d   1      57.205  -2.304  30.168  0.00  0.00     0.021 C 
ENDROOT
BRANCH   3   8
ATOM      8  S   UNL d   1      57.185  -0.034  31.896  0.00  0.00    -0.062 SA
BRANCH   8   9
ATOM      9  C   UNL d   1      56.720  -0.469  32.411  0.00  0.00     0.105 C 
BRANCH   9  10
ATOM     10  C   UNL d   1      56.125  -0.080  32.838  0.00  0.00     0.307 C 
ATOM     11  O   UNL d   1      55.584   0.395  32.449  0.00  0.00    -0.258 OA
BRANCH  10  12
ATOM     12  O   UNL d   1      56.084  -0.175  33.645  0.00  0.00    -0.271 OA
BRANCH  12  13
ATOM     13  C   UNL d   1      55.430   0.108  34.055  0.00  0.00     0.126 C 
ATOM     14  C   UNL d   1      55.476   0.211  34.868  0.00  0.00     0.029 C 
ENDBRANCH  12  13
ENDBRANCH  10  12
ENDBRANCH   9  10
ENDBRANCH   8   9
ENDBRANCH   3   8
BRANCH   2  15
ATOM     15  C   UNL d   1      58.568   0.622  31.023  0.00  0.00     0.124 C 
ATOM     16  N   UNL d   1      59.017   0.680  31.699  0.00  0.00    -0.146 N 
ENDBRANCH   2  15
BRANCH   4  17
ATOM     17  C   UNL d   1      59.175  -0.242  29.775  0.00  0.00     0.000 A 
ATOM     18  C   UNL d   1      59.041   0.244  29.119  0.00  0.00     0.000 A 
ATOM     19  C   UNL d   1      59.665   0.561  28.696  0.00  0.00     0.000 A 
ATOM     20  C   UNL d   1      60.480   0.377  28.951  0.00  0.00     0.000 A 
ATOM     21  C   UNL d   1      60.594  -0.109  29.608  0.00  0.00     0.000 A 
ATOM     22  C   UNL d   1      61.133   0.678  28.550  0.00  0.00     0.000 C 
ATOM     23  C   UNL d   1      59.944  -0.417  30.018  0.00  0.00     0.000 A 
ENDBRANCH   4  17
BRANCH   1  24
ATOM     24  C   UNL d   1      58.541  -1.697  29.305  0.00  0.00     0.302 C 
ATOM     25  O   UNL d   1      58.466  -1.412  28.537  0.00  0.00    -0.259 OA
BRANCH  24  26
ATOM     26  O   UNL d   1      58.943  -2.391  29.455  0.00  0.00    -0.271 OA
BRANCH  26  27
ATOM     27  C   UNL d   1      59.272  -2.832  28.835  0.00  0.00     0.126 C 
BRANCH  27  28
ATOM     28  C   UNL d   1      59.703  -3.513  28.990  0.00  0.00     0.027 C 
ATOM     29  C   UNL d   1      59.704  -4.139  28.456  0.00  0.00     0.002 C 
ENDBRANCH  27  28
ENDBRANCH  26  27
ENDBRANCH  24  26
ENDBRANCH   1  24
TORSDOF 11
ENDMDL
