MODEL 1
REMARK VINA RESULT:      34.8      0.000      0.000
REMARK  7 active torsions:
REMARK  status: ('A' for Active; 'I' for Inactive)
REMARK       I    between atoms: C_3  and  N_1 
REMARK    1  A    between atoms: C_4  and  N_1 
REMARK    2  A    between atoms: C_5  and  N_1 
REMARK    3  A    between atoms: N_2  and  C_7 
REMARK    4  A    between atoms: C_8  and  C_3 
REMARK    5  A    between atoms: C_6  and  C_5 
REMARK    6  A    between atoms: C_9  and  C_6 
REMARK    7  A    between atoms: O_19  and  C_9 
ROOT
ATOM      1  N   UNL d   1      13.910  13.483  -3.089  0.00  0.00    -0.258 N 
ATOM      2  C   UNL d   1      13.824  14.285  -3.286  0.00  0.00     0.266 C 
ATOM      3  O   UNL d   1      13.415  14.533  -3.940  0.00  0.00    -0.267 OA
ENDROOT
BRANCH   1   4
ATOM      4  C   UNL d   1      13.559  12.917  -3.590  0.00  0.00     0.150 A 
ATOM      5  N   UNL d   1      13.105  12.323  -3.267  0.00  0.00    -0.227 NA
ATOM      6  C   UNL d   1      12.769  11.779  -3.764  0.00  0.00     0.101 A 
ATOM      7  C   UNL d   1      12.888  11.827  -4.612  0.00  0.00     0.021 A 
ATOM      8  C   UNL d   1      13.338  12.416  -4.931  0.00  0.00     0.005 A 
ATOM      9  C   UNL d   1      13.678  12.965  -4.438  0.00  0.00     0.037 A 
ENDBRANCH   1   4
BRANCH   1  10
ATOM     10  C   UNL d   1      14.335  13.268  -2.414  0.00  0.00     0.090 C 
BRANCH  10  11
ATOM     11  C   UNL d   1      14.261  12.469  -2.132  0.00  0.00     0.087 C 
BRANCH  11  12
ATOM     12  C   UNL d   1      14.756  12.189  -1.526  0.00  0.00     0.297 C 
ATOM     13  O   UNL d   1      15.543  12.315  -1.556  0.00  0.00    -0.259 OA
BRANCH  12  14
ATOM     14  O   UNL d   1      14.419  11.781  -0.897  0.00  0.00    -0.296 OA
ATOM     15  C   UNL d   1      14.723  11.856  -0.133  0.00  0.00     0.185 C 
ENDBRANCH  12  14
ENDBRANCH  11  12
ENDBRANCH  10  11
ENDBRANCH   1  10
BRANCH   2  16
ATOM     16  C   UNL d   1      14.178  14.853  -2.782  0.00  0.00     0.057 A 
ATOM     17  C   UNL d   1      14.061  14.834  -1.995  0.00  0.00     0.006 A 
ATOM     18  C   UNL d   1      14.413  15.397  -1.488  0.00  0.00     0.024 A 
ATOM     19  C   UNL d   1      14.878  15.972  -1.801  0.00  0.00     0.127 A 
ATOM     20  C   UNL d   1      15.003  15.995  -2.626  0.00  0.00     0.024 A 
ATOM     21  C   UNL d   1      14.657  15.443  -3.103  0.00  0.00     0.006 A 
BRANCH  19  22
ATOM     22  N   UNL d   1      15.217  16.519  -1.290  0.00  0.00    -0.114 N 
ATOM     23  O   UNL d   1      15.499  16.352  -0.521  0.00  0.00    -0.532 OA
ATOM     24  O   UNL d   1      15.321  17.316  -1.479  0.00  0.00    -0.532 OA
ENDBRANCH  19  22
ENDBRANCH   2  16
TORSDOF 7
ENDMDL
