MODEL 1
REMARK VINA RESULT:      -6.3      0.000      0.000
REMARK  12 active torsions:
REMARK  status: ('A' for Active; 'I' for Inactive)
REMARK    1  A    between atoms: C_8  and  C_1 
REMARK    2  A    between atoms: C_9  and  C_2 
REMARK    3  A    between atoms: C_7  and  C_3 
REMARK    4  A    between atoms: S_10  and  C_4 
REMARK    5  A    between atoms: O_23  and  C_8 
REMARK    6  A    between atoms: C_20  and  S_10 
REMARK    7  A    between atoms: O_25  and  C_13 
REMARK    8  A    between atoms: C_14  and  C_20 
REMARK    9  A    between atoms: O_26  and  C_14 
REMARK   10  A    between atoms: C_21  and  C_28 
REMARK   11  A    between atoms: C_28  and  O_23 
REMARK   12  A    between atoms: C_29  and  O_26 
ROOT
ATOM      1  C   UNL d   1      52.760  32.244  53.234  0.00  0.00     0.081 A 
ATOM      2  C   UNL d   1      52.443  33.638  53.333  0.00  0.00     0.045 A 
ATOM      3  C   UNL d   1      52.968  33.024  53.444  0.00  0.00     0.010 A 
ATOM      4  C   UNL d   1      51.709  33.487  53.014  0.00  0.00     0.112 A 
ATOM      5  C   UNL d   1      52.043  32.096  52.922  0.00  0.00     0.087 A 
ATOM      6  N   UNL d   1      51.498  32.720  52.804  0.00  0.00    -0.239 NA
ATOM      7  C   UNL d   1      51.869  31.293  52.722  0.00  0.00     0.021 C 
ENDROOT
BRANCH   3   8
ATOM      8  C   UNL d   1      53.713  33.178  53.768  0.00  0.00     0.003 A 
ATOM      9  C   UNL d   1      53.795  33.315  54.588  0.00  0.00     0.028 A 
ATOM     10  C   UNL d   1      54.538  33.469  54.912  0.00  0.00     0.133 A 
ATOM     11  C   UNL d   1      55.194  33.484  54.412  0.00  0.00     0.218 A 
ATOM     12  C   UNL d   1      55.109  33.349  53.609  0.00  0.00     0.044 A 
ATOM     13  O   UNL d   1      55.939  33.633  54.703  0.00  0.00    -0.284 OA
ATOM     14  C   UNL d   1      54.366  33.195  53.286  0.00  0.00     0.003 A 
BRANCH  10  15
ATOM     15  O   UNL d   1      54.631  33.609  55.738  0.00  0.00    -0.325 OA
ATOM     16  C   UNL d   1      54.510  32.998  56.279  0.00  0.00     0.181 C 
ENDBRANCH  10  15
ENDBRANCH   3   8
BRANCH   2  17
ATOM     17  C   UNL d   1      52.656  34.419  53.545  0.00  0.00     0.124 C 
ATOM     18  N   UNL d   1      52.656  35.020  52.963  0.00  0.00    -0.146 N 
ENDBRANCH   2  17
BRANCH   1  19
ATOM     19  C   UNL d   1      53.285  31.586  53.338  0.00  0.00     0.302 C 
ATOM     20  O   UNL d   1      53.912  31.469  52.823  0.00  0.00    -0.259 OA
BRANCH  19  21
ATOM     21  O   UNL d   1      53.154  31.075  53.957  0.00  0.00    -0.271 OA
BRANCH  21  22
ATOM     22  C   UNL d   1      53.425  30.295  53.927  0.00  0.00     0.126 C 
BRANCH  22  23
ATOM     23  C   UNL d   1      53.330  29.816  54.583  0.00  0.00     0.027 C 
ATOM     24  C   UNL d   1      53.507  29.035  54.562  0.00  0.00     0.002 C 
ENDBRANCH  22  23
ENDBRANCH  21  22
ENDBRANCH  19  21
ENDBRANCH   1  19
BRANCH   4  25
ATOM     25  S   UNL d   1      51.151  34.071  52.884  0.00  0.00    -0.062 SA
BRANCH  25  26
ATOM     26  C   UNL d   1      50.378  33.859  52.760  0.00  0.00     0.105 C 
BRANCH  26  27
ATOM     27  C   UNL d   1      49.828  34.444  52.560  0.00  0.00     0.307 C 
ATOM     28  O   UNL d   1      49.569  34.977  53.128  0.00  0.00    -0.258 OA
BRANCH  27  29
ATOM     29  O   UNL d   1      49.549  34.483  51.793  0.00  0.00    -0.271 OA
BRANCH  29  30
ATOM     30  C   UNL d   1      48.809  34.801  51.661  0.00  0.00     0.126 C 
ATOM     31  C   UNL d   1      48.464  34.738  50.927  0.00  0.00     0.029 C 
ENDBRANCH  29  30
ENDBRANCH  27  29
ENDBRANCH  26  27
ENDBRANCH  25  26
ENDBRANCH   4  25
TORSDOF 12
ENDMDL
MODEL 2
REMARK VINA RESULT:      -5.4      1.595      4.216
REMARK  12 active torsions:
REMARK  status: ('A' for Active; 'I' for Inactive)
REMARK    1  A    between atoms: C_8  and  C_1 
REMARK    2  A    between atoms: C_9  and  C_2 
REMARK    3  A    between atoms: C_7  and  C_3 
REMARK    4  A    between atoms: S_10  and  C_4 
REMARK    5  A    between atoms: O_23  and  C_8 
REMARK    6  A    between atoms: C_20  and  S_10 
REMARK    7  A    between atoms: O_25  and  C_13 
REMARK    8  A    between atoms: C_14  and  C_20 
REMARK    9  A    between atoms: O_26  and  C_14 
REMARK   10  A    between atoms: C_21  and  C_28 
REMARK   11  A    between atoms: C_28  and  O_23 
REMARK   12  A    between atoms: C_29  and  O_26 
ROOT
ATOM      1  C   UNL d   1      51.958  33.393  52.911  0.00  0.00     0.081 A 
ATOM      2  C   UNL d   1      53.139  32.844  53.508  0.00  0.00     0.045 A 
ATOM      3  C   UNL d   1      52.669  33.489  53.335  0.00  0.00     0.010 A 
ATOM      4  C   UNL d   1      52.910  32.102  53.264  0.00  0.00     0.112 A 
ATOM      5  C   UNL d   1      51.733  32.668  52.672  0.00  0.00     0.087 A 
ATOM      6  N   UNL d   1      52.209  32.002  52.846  0.00  0.00    -0.239 NA
ATOM      7  C   UNL d   1      51.006  32.611  52.245  0.00  0.00     0.021 C 
ENDROOT
BRANCH   3   8
ATOM      8  C   UNL d   1      52.903  34.242  53.582  0.00  0.00     0.003 A 
ATOM      9  C   UNL d   1      52.801  34.473  54.379  0.00  0.00     0.028 A 
ATOM     10  C   UNL d   1      53.034  35.225  54.626  0.00  0.00     0.133 A 
ATOM     11  C   UNL d   1      53.366  35.740  54.075  0.00  0.00     0.218 A 
ATOM     12  C   UNL d   1      53.464  35.510  53.296  0.00  0.00     0.044 A 
ATOM     13  O   UNL d   1      53.605  36.487  54.290  0.00  0.00    -0.284 OA
ATOM     14  C   UNL d   1      53.231  34.758  53.048  0.00  0.00     0.003 A 
BRANCH  10  15
ATOM     15  O   UNL d   1      52.936  35.468  55.428  0.00  0.00    -0.325 OA
ATOM     16  C   UNL d   1      53.331  35.071  56.034  0.00  0.00     0.181 C 
ENDBRANCH  10  15
ENDBRANCH   3   8
BRANCH   2  17
ATOM     17  C   UNL d   1      53.852  32.945  53.934  0.00  0.00     0.124 C 
ATOM     18  N   UNL d   1      54.577  32.710  53.588  0.00  0.00    -0.146 N 
ENDBRANCH   2  17
BRANCH   1  19
ATOM     19  C   UNL d   1      51.449  34.044  52.716  0.00  0.00     0.302 C 
ATOM     20  O   UNL d   1      51.620  34.528  52.076  0.00  0.00    -0.259 OA
BRANCH  19  21
ATOM     21  O   UNL d   1      50.792  34.177  53.175  0.00  0.00    -0.271 OA
BRANCH  21  22
ATOM     22  C   UNL d   1      50.148  34.602  52.880  0.00  0.00     0.126 C 
BRANCH  22  23
ATOM     23  C   UNL d   1      49.605  34.916  53.404  0.00  0.00     0.027 C 
ATOM     24  C   UNL d   1      48.970  35.333  53.150  0.00  0.00     0.002 C 
ENDBRANCH  22  23
ENDBRANCH  21  22
ENDBRANCH  19  21
ENDBRANCH   1  19
BRANCH   4  25
ATOM     25  S   UNL d   1      53.349  31.428  53.416  0.00  0.00    -0.062 SA
BRANCH  25  26
ATOM     26  C   UNL d   1      52.980  30.706  53.408  0.00  0.00     0.105 C 
BRANCH  26  27
ATOM     27  C   UNL d   1      53.406  30.036  53.639  0.00  0.00     0.307 C 
ATOM     28  O   UNL d   1      53.973  29.716  53.140  0.00  0.00    -0.258 OA
BRANCH  27  29
ATOM     29  O   UNL d   1      53.255  29.699  54.368  0.00  0.00    -0.271 OA
BRANCH  29  30
ATOM     30  C   UNL d   1      53.366  28.896  54.459  0.00  0.00     0.126 C 
ATOM     31  C   UNL d   1      53.343  28.564  55.202  0.00  0.00     0.029 C 
ENDBRANCH  29  30
ENDBRANCH  27  29
ENDBRANCH  26  27
ENDBRANCH  25  26
ENDBRANCH   4  25
TORSDOF 12
ENDMDL
MODEL 3
REMARK VINA RESULT:      -5.2      0.977      2.730
REMARK  12 active torsions:
REMARK  status: ('A' for Active; 'I' for Inactive)
REMARK    1  A    between atoms: C_8  and  C_1 
REMARK    2  A    between atoms: C_9  and  C_2 
REMARK    3  A    between atoms: C_7  and  C_3 
REMARK    4  A    between atoms: S_10  and  C_4 
REMARK    5  A    between atoms: O_23  and  C_8 
REMARK    6  A    between atoms: C_20  and  S_10 
REMARK    7  A    between atoms: O_25  and  C_13 
REMARK    8  A    between atoms: C_14  and  C_20 
REMARK    9  A    between atoms: O_26  and  C_14 
REMARK   10  A    between atoms: C_21  and  C_28 
REMARK   11  A    between atoms: C_28  and  O_23 
REMARK   12  A    between atoms: C_29  and  O_26 
ROOT
ATOM      1  C   UNL d   1      52.987  33.508  53.425  0.00  0.00     0.081 A 
ATOM      2  C   UNL d   1      51.702  32.965  53.100  0.00  0.00     0.045 A 
ATOM      3  C   UNL d   1      52.494  32.855  53.264  0.00  0.00     0.010 A 
ATOM      4  C   UNL d   1      51.393  33.718  53.093  0.00  0.00     0.112 A 
ATOM      5  C   UNL d   1      52.685  34.244  53.418  0.00  0.00     0.087 A 
ATOM      6  N   UNL d   1      51.875  34.365  53.250  0.00  0.00    -0.239 NA
ATOM      7  C   UNL d   1      53.217  34.880  53.586  0.00  0.00     0.021 C 
ENDROOT
BRANCH   3   8
ATOM      8  C   UNL d   1      52.807  32.091  53.271  0.00  0.00     0.003 A 
ATOM      9  C   UNL d   1      52.887  31.675  53.991  0.00  0.00     0.028 A 
ATOM     10  C   UNL d   1      53.200  30.912  53.998  0.00  0.00     0.133 A 
ATOM     11  C   UNL d   1      53.431  30.570  53.285  0.00  0.00     0.218 A 
ATOM     12  C   UNL d   1      53.351  30.981  52.581  0.00  0.00     0.044 A 
ATOM     13  O   UNL d   1      53.743  29.819  53.260  0.00  0.00    -0.284 OA
ATOM     14  C   UNL d   1      53.038  31.744  52.574  0.00  0.00     0.003 A 
BRANCH  10  15
ATOM     15  O   UNL d   1      53.284  30.484  54.720  0.00  0.00    -0.325 OA
ATOM     16  C   UNL d   1      52.877  29.775  54.833  0.00  0.00     0.181 C 
ENDBRANCH  10  15
ENDBRANCH   3   8
BRANCH   2  17
ATOM     17  C   UNL d   1      51.210  32.307  52.939  0.00  0.00     0.124 C 
ATOM     18  N   UNL d   1      50.538  32.167  53.417  0.00  0.00    -0.146 N 
ENDBRANCH   2  17
BRANCH   1  19
ATOM     19  C   UNL d   1      53.814  33.425  53.599  0.00  0.00     0.302 C 
ATOM     20  O   UNL d   1      54.355  33.302  52.995  0.00  0.00    -0.259 OA
BRANCH  19  21
ATOM     21  O   UNL d   1      54.056  33.471  54.373  0.00  0.00    -0.271 OA
BRANCH  21  22
ATOM     22  C   UNL d   1      54.845  33.630  54.561  0.00  0.00     0.126 C 
BRANCH  22  23
ATOM     23  C   UNL d   1      55.078  33.615  55.345  0.00  0.00     0.027 C 
ATOM     24  C   UNL d   1      55.728  34.008  55.598  0.00  0.00     0.002 C 
ENDBRANCH  22  23
ENDBRANCH  21  22
ENDBRANCH  19  21
ENDBRANCH   1  19
BRANCH   4  25
ATOM     25  S   UNL d   1      50.606  33.874  52.933  0.00  0.00    -0.062 SA
BRANCH  25  26
ATOM     26  C   UNL d   1      50.369  34.642  52.824  0.00  0.00     0.105 C 
BRANCH  26  27
ATOM     27  C   UNL d   1      49.575  34.797  52.652  0.00  0.00     0.307 C 
ATOM     28  O   UNL d   1      49.254  34.558  51.936  0.00  0.00    -0.258 OA
BRANCH  27  29
ATOM     29  O   UNL d   1      49.118  35.190  53.203  0.00  0.00    -0.271 OA
BRANCH  29  30
ATOM     30  C   UNL d   1      48.482  35.631  52.942  0.00  0.00     0.126 C 
ATOM     31  C   UNL d   1      48.063  36.091  53.467  0.00  0.00     0.029 C 
ENDBRANCH  29  30
ENDBRANCH  27  29
ENDBRANCH  26  27
ENDBRANCH  25  26
ENDBRANCH   4  25
TORSDOF 12
ENDMDL
MODEL 4
REMARK VINA RESULT:      -4.8      1.525      4.943
REMARK  12 active torsions:
REMARK  status: ('A' for Active; 'I' for Inactive)
REMARK    1  A    between atoms: C_8  and  C_1 
REMARK    2  A    between atoms: C_9  and  C_2 
REMARK    3  A    between atoms: C_7  and  C_3 
REMARK    4  A    between atoms: S_10  and  C_4 
REMARK    5  A    between atoms: O_23  and  C_8 
REMARK    6  A    between atoms: C_20  and  S_10 
REMARK    7  A    between atoms: O_25  and  C_13 
REMARK    8  A    between atoms: C_14  and  C_20 
REMARK    9  A    between atoms: O_26  and  C_14 
REMARK   10  A    between atoms: C_21  and  C_28 
REMARK   11  A    between atoms: C_28  and  O_23 
REMARK   12  A    between atoms: C_29  and  O_26 
ROOT
ATOM      1  C   UNL d   1      52.805  33.457  53.264  0.00  0.00     0.081 A 
ATOM      2  C   UNL d   1      52.004  32.287  53.059  0.00  0.00     0.045 A 
ATOM      3  C   UNL d   1      52.071  33.099  53.098  0.00  0.00     0.010 A 
ATOM      4  C   UNL d   1      52.662  31.823  53.183  0.00  0.00     0.112 A 
ATOM      5  C   UNL d   1      53.448  33.004  53.386  0.00  0.00     0.087 A 
ATOM      6  N   UNL d   1      53.389  32.170  53.348  0.00  0.00    -0.239 NA
ATOM      7  C   UNL d   1      54.175  33.403  53.552  0.00  0.00     0.021 C 
ENDROOT
BRANCH   3   8
ATOM      8  C   UNL d   1      51.403  33.569  52.972  0.00  0.00     0.003 A 
ATOM      9  C   UNL d   1      51.211  33.829  52.201  0.00  0.00     0.028 A 
ATOM     10  C   UNL d   1      50.544  34.298  52.075  0.00  0.00     0.133 A 
ATOM     11  C   UNL d   1      50.075  34.505  52.721  0.00  0.00     0.218 A 
ATOM     12  C   UNL d   1      50.267  34.249  53.474  0.00  0.00     0.044 A 
ATOM     13  O   UNL d   1      49.412  34.967  52.627  0.00  0.00    -0.284 OA
ATOM     14  C   UNL d   1      50.934  33.780  53.600  0.00  0.00     0.003 A 
BRANCH  10  15
ATOM     15  O   UNL d   1      50.341  34.565  51.301  0.00  0.00    -0.325 OA
ATOM     16  C   UNL d   1      49.700  34.233  50.902  0.00  0.00     0.181 C 
ENDBRANCH  10  15
ENDBRANCH   3   8
BRANCH   2  17
ATOM     17  C   UNL d   1      51.265  31.932  52.892  0.00  0.00     0.124 C 
ATOM     18  N   UNL d   1      50.940  31.381  53.431  0.00  0.00    -0.146 N 
ENDBRANCH   2  17
BRANCH   1  19
ATOM     19  C   UNL d   1      52.905  34.298  53.312  0.00  0.00     0.302 C 
ATOM     20  O   UNL d   1      53.021  34.742  52.632  0.00  0.00    -0.259 OA
BRANCH  19  21
ATOM     21  O   UNL d   1      52.883  34.654  54.042  0.00  0.00    -0.271 OA
BRANCH  21  22
ATOM     22  C   UNL d   1      53.190  35.413  54.153  0.00  0.00     0.126 C 
BRANCH  22  23
ATOM     23  C   UNL d   1      53.111  35.771  54.884  0.00  0.00     0.027 C 
ATOM     24  C   UNL d   1      53.054  36.567  54.958  0.00  0.00     0.002 C 
ENDBRANCH  22  23
ENDBRANCH  21  22
ENDBRANCH  19  21
ENDBRANCH   1  19
BRANCH   4  25
ATOM     25  S   UNL d   1      52.642  31.005  53.154  0.00  0.00    -0.062 SA
BRANCH  25  26
ATOM     26  C   UNL d   1      53.296  30.585  53.384  0.00  0.00     0.105 C 
BRANCH  26  27
ATOM     27  C   UNL d   1      53.210  29.787  53.585  0.00  0.00     0.307 C 
ATOM     28  O   UNL d   1      52.965  29.245  53.020  0.00  0.00    -0.258 OA
BRANCH  27  29
ATOM     29  O   UNL d   1      53.374  29.549  54.349  0.00  0.00    -0.271 OA
BRANCH  29  30
ATOM     30  C   UNL d   1      53.386  28.749  54.515  0.00  0.00     0.126 C 
ATOM     31  C   UNL d   1      53.503  28.495  55.280  0.00  0.00     0.029 C 
ENDBRANCH  29  30
ENDBRANCH  27  29
ENDBRANCH  26  27
ENDBRANCH  25  26
ENDBRANCH   4  25
TORSDOF 12
ENDMDL
