MODEL 1
REMARK VINA RESULT:      47.1      0.000      0.000
REMARK  5 active torsions:
REMARK  status: ('A' for Active; 'I' for Inactive)
REMARK    1  A    between atoms: N_7  and  C_1 
REMARK    2  A    between atoms: O_17  and  C_5 
REMARK    3  A    between atoms: C_10  and  N_7 
REMARK    4  A    between atoms: O_18  and  C_8 
REMARK    5  A    between atoms: O_19  and  C_9 
ROOT
ATOM      1  C   UNL d   1      60.572  48.862  51.442  0.00  0.00     0.139 A 
ATOM      2  C   UNL d   1      60.077  49.417  51.799  0.00  0.00     0.120 A 
ATOM      3  C   UNL d   1      60.395  48.586  50.671  0.00  0.00     0.120 A 
ATOM      4  C   UNL d   1      59.245  49.422  50.639  0.00  0.00     0.087 A 
ATOM      5  C   UNL d   1      59.730  48.869  50.273  0.00  0.00     0.045 A 
ATOM      6  C   UNL d   1      59.402  49.705  51.398  0.00  0.00     0.045 A 
ENDROOT
BRANCH   4   7
ATOM      7  N   UNL d   1      58.576  49.704  50.234  0.00  0.00    -0.226 NA
BRANCH   7   8
ATOM      8  C   UNL d   1      57.823  49.531  50.514  0.00  0.00     0.169 A 
ATOM      9  C   UNL d   1      57.292  49.197  50.052  0.00  0.00     0.094 A 
ATOM     10  C   UNL d   1      56.571  49.031  50.320  0.00  0.00     0.190 A 
ATOM     11  C   UNL d   1      56.952  48.686  48.834  0.00  0.00     0.128 A 
ATOM     12  N   UNL d   1      56.049  48.696  49.846  0.00  0.00    -0.128 NA
ATOM     13  N   UNL d   1      56.381  49.200  51.050  0.00  0.00    -0.203 NA
ATOM     14  N   UNL d   1      56.230  48.524  49.115  0.00  0.00    -0.145 NA
ATOM     15  C   UNL d   1      56.907  49.541  51.540  0.00  0.00     0.202 A 
ATOM     16  N   UNL d   1      57.628  49.707  51.272  0.00  0.00    -0.205 NA
ENDBRANCH   7   8
ENDBRANCH   4   7
BRANCH   3  17
ATOM     17  O   UNL d   1      60.892  48.026  50.307  0.00  0.00    -0.326 OA
ATOM     18  C   UNL d   1      60.751  47.214  50.420  0.00  0.00     0.181 C 
ENDBRANCH   3  17
BRANCH   2  19
ATOM     19  O   UNL d   1      60.247  49.695  52.564  0.00  0.00    -0.326 OA
ATOM     20  C   UNL d   1      59.865  49.358  53.225  0.00  0.00     0.181 C 
ENDBRANCH   2  19
BRANCH   1  21
ATOM     21  O   UNL d   1      61.241  48.574  51.835  0.00  0.00    -0.324 OA
ATOM     22  C   UNL d   1      62.000  48.856  51.617  0.00  0.00     0.182 C 
ENDBRANCH   1  21
TORSDOF 5
ENDMDL
