MODEL 1
REMARK VINA RESULT:      -6.2      0.000      0.000
REMARK  6 active torsions:
REMARK  status: ('A' for Active; 'I' for Inactive)
REMARK    1  A    between atoms: N_5  and  C_1 
REMARK       I    between atoms: C_11  and  N_5 
REMARK    2  A    between atoms: C_22  and  C_7 
REMARK    3  A    between atoms: C_8  and  C_10 
REMARK    4  A    between atoms: C_20  and  C_11 
REMARK    5  A    between atoms: C_13  and  S_15 
REMARK    6  A    between atoms: S_15  and  C_20 
ROOT
ATOM      1  S   UNL d   1     -46.675  13.713  22.971  0.00  0.00    -0.061 SA
ENDROOT
BRANCH   1   2
ATOM      2  C   UNL d   1     -47.460  13.963  22.950  0.00  0.00     0.133 A 
ATOM      3  N   UNL d   1     -48.060  13.473  23.207  0.00  0.00    -0.141 NA
ATOM      4  N   UNL d   1     -48.839  13.717  23.187  0.00  0.00    -0.147 NA
ATOM      5  C   UNL d   1     -49.022  14.468  22.904  0.00  0.00     0.109 A 
ATOM      6  C   UNL d   1     -48.421  14.970  22.643  0.00  0.00     0.024 A 
ATOM      7  C   UNL d   1     -47.649  14.721  22.665  0.00  0.00     0.029 A 
BRANCH   5   8
ATOM      8  C   UNL d   1     -49.803  14.720  22.882  0.00  0.00     0.049 A 
ATOM      9  S   UNL d   1     -50.189  15.170  23.450  0.00  0.00    -0.085 SA
ATOM     10  C   UNL d   1     -50.966  15.297  23.210  0.00  0.00     0.035 A 
ATOM     11  C   UNL d   1     -51.064  14.917  22.473  0.00  0.00     0.007 A 
ATOM     12  C   UNL d   1     -50.348  14.561  22.270  0.00  0.00     0.009 A 
ENDBRANCH   5   8
ENDBRANCH   1   2
BRANCH   1  13
ATOM     13  C   UNL d   1     -46.396  13.179  22.418  0.00  0.00     0.099 C 
BRANCH  13  14
ATOM     14  C   UNL d   1     -45.599  12.966  22.423  0.00  0.00     0.288 C 
ATOM     15  N   UNL d   1     -45.169  12.972  21.723  0.00  0.00    -0.181 NA
ATOM     16  O   UNL d   1     -45.235  12.748  23.124  0.00  0.00    -0.265 OA
BRANCH  15  17
ATOM     17  C   UNL d   1     -44.381  12.762  21.724  0.00  0.00     0.219 A 
ATOM     18  S   UNL d   1     -43.777  13.136  21.302  0.00  0.00    -0.026 SA
ATOM     19  C   UNL d   1     -43.079  12.747  21.464  0.00  0.00     0.135 A 
ATOM     20  N   UNL d   1     -43.244  12.133  21.984  0.00  0.00    -0.139 NA
ATOM     21  N   UNL d   1     -44.044  12.146  22.141  0.00  0.00    -0.121 NA
BRANCH  19  22
ATOM     22  C   UNL d   1     -42.336  12.937  21.159  0.00  0.00     0.028 C 
ATOM     23  C   UNL d   1     -41.975  13.642  21.359  0.00  0.00     0.002 C 
ENDBRANCH  19  22
ENDBRANCH  15  17
ENDBRANCH  13  14
ENDBRANCH   1  13
TORSDOF 6
ENDMDL
MODEL 2
REMARK VINA RESULT:      -6.0      1.982      2.112
REMARK  6 active torsions:
REMARK  status: ('A' for Active; 'I' for Inactive)
REMARK    1  A    between atoms: N_5  and  C_1 
REMARK       I    between atoms: C_11  and  N_5 
REMARK    2  A    between atoms: C_22  and  C_7 
REMARK    3  A    between atoms: C_8  and  C_10 
REMARK    4  A    between atoms: C_20  and  C_11 
REMARK    5  A    between atoms: C_13  and  S_15 
REMARK    6  A    between atoms: S_15  and  C_20 
ROOT
ATOM      1  S   UNL d   1     -47.012  13.434  22.990  0.00  0.00    -0.061 SA
ENDROOT
BRANCH   1   2
ATOM      2  C   UNL d   1     -47.728  13.841  23.013  0.00  0.00     0.133 A 
ATOM      3  N   UNL d   1     -48.412  13.466  23.252  0.00  0.00    -0.141 NA
ATOM      4  N   UNL d   1     -49.123  13.865  23.276  0.00  0.00    -0.147 NA
ATOM      5  C   UNL d   1     -49.151  14.659  23.056  0.00  0.00     0.109 A 
ATOM      6  C   UNL d   1     -48.464  15.045  22.813  0.00  0.00     0.024 A 
ATOM      7  C   UNL d   1     -47.760  14.641  22.791  0.00  0.00     0.029 A 
BRANCH   5   8
ATOM      8  C   UNL d   1     -49.864  15.066  23.078  0.00  0.00     0.049 A 
ATOM      9  S   UNL d   1     -50.137  15.541  23.690  0.00  0.00    -0.085 SA
ATOM     10  C   UNL d   1     -50.875  15.844  23.485  0.00  0.00     0.035 A 
ATOM     11  C   UNL d   1     -51.063  15.549  22.728  0.00  0.00     0.007 A 
ATOM     12  C   UNL d   1     -50.441  15.069  22.476  0.00  0.00     0.009 A 
ENDBRANCH   5   8
ENDBRANCH   1   2
BRANCH   1  13
ATOM     13  C   UNL d   1     -46.959  12.672  23.284  0.00  0.00     0.099 C 
BRANCH  13  14
ATOM     14  C   UNL d   1     -46.256  12.250  23.197  0.00  0.00     0.288 C 
ATOM     15  N   UNL d   1     -46.102  11.607  23.686  0.00  0.00    -0.181 NA
ATOM     16  O   UNL d   1     -45.711  12.468  22.624  0.00  0.00    -0.265 OA
BRANCH  15  17
ATOM     17  C   UNL d   1     -45.407  11.187  23.602  0.00  0.00     0.219 A 
ATOM     18  S   UNL d   1     -45.319  10.370  23.697  0.00  0.00    -0.026 SA
ATOM     19  C   UNL d   1     -44.536  10.186  23.563  0.00  0.00     0.135 A 
ATOM     20  N   UNL d   1     -44.136  10.881  23.386  0.00  0.00    -0.139 NA
ATOM     21  N   UNL d   1     -44.675  11.493  23.412  0.00  0.00    -0.121 NA
BRANCH  19  22
ATOM     22  C   UNL d   1     -44.202   9.432  23.599  0.00  0.00     0.028 C 
ATOM     23  C   UNL d   1     -43.395   9.341  23.690  0.00  0.00     0.002 C 
ENDBRANCH  19  22
ENDBRANCH  15  17
ENDBRANCH  13  14
ENDBRANCH   1  13
TORSDOF 6
ENDMDL
MODEL 3
REMARK VINA RESULT:      -5.7      1.290      1.442
REMARK  6 active torsions:
REMARK  status: ('A' for Active; 'I' for Inactive)
REMARK    1  A    between atoms: N_5  and  C_1 
REMARK       I    between atoms: C_11  and  N_5 
REMARK    2  A    between atoms: C_22  and  C_7 
REMARK    3  A    between atoms: C_8  and  C_10 
REMARK    4  A    between atoms: C_20  and  C_11 
REMARK    5  A    between atoms: C_13  and  S_15 
REMARK    6  A    between atoms: S_15  and  C_20 
ROOT
ATOM      1  S   UNL d   1     -46.506  12.804  23.166  0.00  0.00    -0.061 SA
ENDROOT
BRANCH   1   2
ATOM      2  C   UNL d   1     -47.330  12.814  23.193  0.00  0.00     0.133 A 
ATOM      3  N   UNL d   1     -47.745  13.477  22.962  0.00  0.00    -0.141 NA
ATOM      4  N   UNL d   1     -48.561  13.491  22.987  0.00  0.00    -0.147 NA
ATOM      5  C   UNL d   1     -48.971  12.827  23.250  0.00  0.00     0.109 A 
ATOM      6  C   UNL d   1     -48.557  12.153  23.486  0.00  0.00     0.024 A 
ATOM      7  C   UNL d   1     -47.746  12.146  23.458  0.00  0.00     0.029 A 
BRANCH   5   8
ATOM      8  C   UNL d   1     -49.791  12.834  23.278  0.00  0.00     0.049 A 
ATOM      9  S   UNL d   1     -50.279  13.487  23.174  0.00  0.00    -0.085 SA
ATOM     10  C   UNL d   1     -51.064  13.249  23.247  0.00  0.00     0.035 A 
ATOM     11  C   UNL d   1     -51.063  12.429  23.400  0.00  0.00     0.007 A 
ATOM     12  C   UNL d   1     -50.278  12.172  23.420  0.00  0.00     0.009 A 
ENDBRANCH   5   8
ENDBRANCH   1   2
BRANCH   1  13
ATOM     13  C   UNL d   1     -46.114  12.921  22.457  0.00  0.00     0.099 C 
BRANCH  13  14
ATOM     14  C   UNL d   1     -45.314  12.730  22.397  0.00  0.00     0.288 C 
ATOM     15  N   UNL d   1     -44.873  13.006  21.761  0.00  0.00    -0.181 NA
ATOM     16  O   UNL d   1     -44.956  12.266  22.971  0.00  0.00    -0.265 OA
BRANCH  15  17
ATOM     17  C   UNL d   1     -44.082  12.819  21.699  0.00  0.00     0.219 A 
ATOM     18  S   UNL d   1     -43.503  13.272  21.319  0.00  0.00    -0.026 SA
ATOM     19  C   UNL d   1     -42.792  12.880  21.390  0.00  0.00     0.135 A 
ATOM     20  N   UNL d   1     -42.922  12.188  21.812  0.00  0.00    -0.139 NA
ATOM     21  N   UNL d   1     -43.715  12.155  21.999  0.00  0.00    -0.121 NA
BRANCH  19  22
ATOM     22  C   UNL d   1     -42.066  13.135  21.091  0.00  0.00     0.028 C 
ATOM     23  C   UNL d   1     -41.884  13.932  21.072  0.00  0.00     0.002 C 
ENDBRANCH  19  22
ENDBRANCH  15  17
ENDBRANCH  13  14
ENDBRANCH   1  13
TORSDOF 6
ENDMDL
MODEL 4
REMARK VINA RESULT:      -5.4      1.912      5.838
REMARK  6 active torsions:
REMARK  status: ('A' for Active; 'I' for Inactive)
REMARK    1  A    between atoms: N_5  and  C_1 
REMARK       I    between atoms: C_11  and  N_5 
REMARK    2  A    between atoms: C_22  and  C_7 
REMARK    3  A    between atoms: C_8  and  C_10 
REMARK    4  A    between atoms: C_20  and  C_11 
REMARK    5  A    between atoms: C_13  and  S_15 
REMARK    6  A    between atoms: S_15  and  C_20 
ROOT
ATOM      1  S   UNL d   1     -46.499  13.694  22.493  0.00  0.00    -0.061 SA
ENDROOT
BRANCH   1   2
ATOM      2  C   UNL d   1     -46.047  13.035  22.693  0.00  0.00     0.133 A 
ATOM      3  N   UNL d   1     -46.194  12.624  23.383  0.00  0.00    -0.141 NA
ATOM      4  N   UNL d   1     -45.749  11.970  23.585  0.00  0.00    -0.147 NA
ATOM      5  C   UNL d   1     -45.143  11.721  23.085  0.00  0.00     0.109 A 
ATOM      6  C   UNL d   1     -44.989  12.132  22.386  0.00  0.00     0.024 A 
ATOM      7  C   UNL d   1     -45.435  12.781  22.192  0.00  0.00     0.029 A 
BRANCH   5   8
ATOM      8  C   UNL d   1     -44.691  11.064  23.282  0.00  0.00     0.049 A 
ATOM      9  S   UNL d   1     -44.969  10.350  23.577  0.00  0.00    -0.085 SA
ATOM     10  C   UNL d   1     -44.331   9.844  23.698  0.00  0.00     0.035 A 
ATOM     11  C   UNL d   1     -43.641  10.255  23.473  0.00  0.00     0.007 A 
ATOM     12  C   UNL d   1     -43.862  11.008  23.216  0.00  0.00     0.009 A 
ENDBRANCH   5   8
ENDBRANCH   1   2
BRANCH   1  13
ATOM     13  C   UNL d   1     -46.975  14.054  23.053  0.00  0.00     0.099 C 
BRANCH  13  14
ATOM     14  C   UNL d   1     -47.669  14.433  22.815  0.00  0.00     0.288 C 
ATOM     15  N   UNL d   1     -48.371  14.293  23.220  0.00  0.00    -0.181 NA
ATOM     16  O   UNL d   1     -47.660  14.947  22.177  0.00  0.00    -0.265 OA
BRANCH  15  17
ATOM     17  C   UNL d   1     -49.058  14.665  22.987  0.00  0.00     0.219 A 
ATOM     18  S   UNL d   1     -49.683  14.318  22.571  0.00  0.00    -0.026 SA
ATOM     19  C   UNL d   1     -50.255  14.888  22.456  0.00  0.00     0.135 A 
ATOM     20  N   UNL d   1     -49.991  15.587  22.796  0.00  0.00    -0.139 NA
ATOM     21  N   UNL d   1     -49.256  15.446  23.121  0.00  0.00    -0.121 NA
BRANCH  19  22
ATOM     22  C   UNL d   1     -50.973  14.781  22.065  0.00  0.00     0.028 C 
ATOM     23  C   UNL d   1     -51.063  14.175  21.523  0.00  0.00     0.002 C 
ENDBRANCH  19  22
ENDBRANCH  15  17
ENDBRANCH  13  14
ENDBRANCH   1  13
TORSDOF 6
ENDMDL
MODEL 5
REMARK VINA RESULT:      -4.8      2.609      6.938
REMARK  6 active torsions:
REMARK  status: ('A' for Active; 'I' for Inactive)
REMARK    1  A    between atoms: N_5  and  C_1 
REMARK       I    between atoms: C_11  and  N_5 
REMARK    2  A    between atoms: C_22  and  C_7 
REMARK    3  A    between atoms: C_8  and  C_10 
REMARK    4  A    between atoms: C_20  and  C_11 
REMARK    5  A    between atoms: C_13  and  S_15 
REMARK    6  A    between atoms: S_15  and  C_20 
ROOT
ATOM      1  S   UNL d   1     -42.411  13.138  21.294  0.00  0.00    -0.061 SA
ENDROOT
BRANCH   1   2
ATOM      2  C   UNL d   1     -41.870  13.581  20.858  0.00  0.00     0.133 A 
ATOM      3  N   UNL d   1     -41.769  13.446  20.060  0.00  0.00    -0.141 NA
ATOM      4  N   UNL d   1     -41.234  13.883  19.625  0.00  0.00    -0.147 NA
ATOM      5  C   UNL d   1     -40.789  14.468  19.997  0.00  0.00     0.109 A 
ATOM      6  C   UNL d   1     -40.885  14.610  20.804  0.00  0.00     0.024 A 
ATOM      7  C   UNL d   1     -41.419  14.172  21.230  0.00  0.00     0.029 A 
BRANCH   5   8
ATOM      8  C   UNL d   1     -40.249  14.911  19.565  0.00  0.00     0.049 A 
ATOM      9  S   UNL d   1     -39.491  14.682  19.348  0.00  0.00    -0.085 SA
ATOM     10  C   UNL d   1     -39.139  15.291  18.920  0.00  0.00     0.035 A 
ATOM     11  C   UNL d   1     -39.693  15.913  18.872  0.00  0.00     0.007 A 
ATOM     12  C   UNL d   1     -40.378  15.680  19.269  0.00  0.00     0.009 A 
ENDBRANCH   5   8
ENDBRANCH   1   2
BRANCH   1  13
ATOM     13  C   UNL d   1     -43.209  13.165  21.112  0.00  0.00     0.099 C 
BRANCH  13  14
ATOM     14  C   UNL d   1     -43.756  12.836  21.634  0.00  0.00     0.288 C 
ATOM     15  N   UNL d   1     -44.465  13.225  21.782  0.00  0.00    -0.181 NA
ATOM     16  O   UNL d   1     -43.596  12.123  22.006  0.00  0.00    -0.265 OA
BRANCH  15  17
ATOM     17  C   UNL d   1     -45.009  12.903  22.298  0.00  0.00     0.219 A 
ATOM     18  S   UNL d   1     -45.793  13.149  22.394  0.00  0.00    -0.026 SA
ATOM     19  C   UNL d   1     -46.135  12.676  22.964  0.00  0.00     0.135 A 
ATOM     20  N   UNL d   1     -45.571  12.139  23.223  0.00  0.00    -0.139 NA
ATOM     21  N   UNL d   1     -44.882  12.281  22.811  0.00  0.00    -0.121 NA
BRANCH  19  22
ATOM     22  C   UNL d   1     -46.913  12.729  23.233  0.00  0.00     0.028 C 
ATOM     23  C   UNL d   1     -47.259  12.101  23.625  0.00  0.00     0.002 C 
ENDBRANCH  19  22
ENDBRANCH  15  17
ENDBRANCH  13  14
ENDBRANCH   1  13
TORSDOF 6
ENDMDL
MODEL 6
REMARK VINA RESULT:      -4.0      7.978      9.257
REMARK  6 active torsions:
REMARK  status: ('A' for Active; 'I' for Inactive)
REMARK    1  A    between atoms: N_5  and  C_1 
REMARK       I    between atoms: C_11  and  N_5 
REMARK    2  A    between atoms: C_22  and  C_7 
REMARK    3  A    between atoms: C_8  and  C_10 
REMARK    4  A    between atoms: C_20  and  C_11 
REMARK    5  A    between atoms: C_13  and  S_15 
REMARK    6  A    between atoms: S_15  and  C_20 
ROOT
ATOM      1  S   UNL d   1     -39.699  14.320  19.223  0.00  0.00    -0.061 SA
ENDROOT
BRANCH   1   2
ATOM      2  C   UNL d   1     -39.501  14.262  20.021  0.00  0.00     0.133 A 
ATOM      3  N   UNL d   1     -38.792  13.930  20.251  0.00  0.00    -0.141 NA
ATOM      4  N   UNL d   1     -38.591  13.871  21.040  0.00  0.00    -0.147 NA
ATOM      5  C   UNL d   1     -39.113  14.152  21.613  0.00  0.00     0.109 A 
ATOM      6  C   UNL d   1     -39.831  14.490  21.388  0.00  0.00     0.024 A 
ATOM      7  C   UNL d   1     -40.024  14.544  20.602  0.00  0.00     0.029 A 
BRANCH   5   8
ATOM      8  C   UNL d   1     -38.918  14.097  22.408  0.00  0.00     0.049 A 
ATOM      9  S   UNL d   1     -38.612  14.695  22.881  0.00  0.00    -0.085 SA
ATOM     10  C   UNL d   1     -38.497  14.404  23.642  0.00  0.00     0.035 A 
ATOM     11  C   UNL d   1     -38.738  13.605  23.641  0.00  0.00     0.007 A 
ATOM     12  C   UNL d   1     -38.997  13.414  22.881  0.00  0.00     0.009 A 
ENDBRANCH   5   8
ENDBRANCH   1   2
BRANCH   1  13
ATOM     13  C   UNL d   1     -39.282  14.821  18.728  0.00  0.00     0.099 C 
BRANCH  13  14
ATOM     14  C   UNL d   1     -39.282  14.683  17.915  0.00  0.00     0.288 C 
ATOM     15  N   UNL d   1     -38.570  14.608  17.512  0.00  0.00    -0.181 NA
ATOM     16  O   UNL d   1     -39.991  14.620  17.507  0.00  0.00    -0.265 OA
BRANCH  15  17
ATOM     17  C   UNL d   1     -38.566  14.471  16.707  0.00  0.00     0.219 A 
ATOM     18  S   UNL d   1     -38.104  13.912  16.311  0.00  0.00    -0.026 SA
ATOM     19  C   UNL d   1     -38.276  13.964  15.516  0.00  0.00     0.135 A 
ATOM     20  N   UNL d   1     -38.841  14.551  15.414  0.00  0.00    -0.139 NA
ATOM     21  N   UNL d   1     -39.016  14.860  16.148  0.00  0.00    -0.121 NA
BRANCH  19  22
ATOM     22  C   UNL d   1     -37.940  13.506  14.917  0.00  0.00     0.028 C 
ATOM     23  C   UNL d   1     -38.226  13.552  14.152  0.00  0.00     0.002 C 
ENDBRANCH  19  22
ENDBRANCH  15  17
ENDBRANCH  13  14
ENDBRANCH   1  13
TORSDOF 6
ENDMDL
MODEL 7
REMARK VINA RESULT:      -3.9      1.182      5.990
REMARK  6 active torsions:
REMARK  status: ('A' for Active; 'I' for Inactive)
REMARK    1  A    between atoms: N_5  and  C_1 
REMARK       I    between atoms: C_11  and  N_5 
REMARK    2  A    between atoms: C_22  and  C_7 
REMARK    3  A    between atoms: C_8  and  C_10 
REMARK    4  A    between atoms: C_20  and  C_11 
REMARK    5  A    between atoms: C_13  and  S_15 
REMARK    6  A    between atoms: S_15  and  C_20 
ROOT
ATOM      1  S   UNL d   1     -46.880  12.844  23.116  0.00  0.00    -0.061 SA
ENDROOT
BRANCH   1   2
ATOM      2  C   UNL d   1     -46.114  12.787  22.818  0.00  0.00     0.133 A 
ATOM      3  N   UNL d   1     -45.637  12.154  23.014  0.00  0.00    -0.141 NA
ATOM      4  N   UNL d   1     -44.878  12.093  22.722  0.00  0.00    -0.147 NA
ATOM      5  C   UNL d   1     -44.587  12.680  22.222  0.00  0.00     0.109 A 
ATOM      6  C   UNL d   1     -45.063  13.323  22.019  0.00  0.00     0.024 A 
ATOM      7  C   UNL d   1     -45.817  13.377  22.314  0.00  0.00     0.029 A 
BRANCH   5   8
ATOM      8  C   UNL d   1     -43.824  12.626  21.924  0.00  0.00     0.049 A 
ATOM      9  S   UNL d   1     -43.502  13.077  21.316  0.00  0.00    -0.085 SA
ATOM     10  C   UNL d   1     -42.723  12.843  21.194  0.00  0.00     0.035 A 
ATOM     11  C   UNL d   1     -42.557  12.233  21.739  0.00  0.00     0.007 A 
ATOM     12  C   UNL d   1     -43.235  12.098  22.189  0.00  0.00     0.009 A 
ENDBRANCH   5   8
ENDBRANCH   1   2
BRANCH   1  13
ATOM     13  C   UNL d   1     -47.493  13.092  22.634  0.00  0.00     0.099 C 
BRANCH  13  14
ATOM     14  C   UNL d   1     -48.239  13.225  22.960  0.00  0.00     0.288 C 
ATOM     15  N   UNL d   1     -48.733  13.795  22.632  0.00  0.00    -0.181 NA
ATOM     16  O   UNL d   1     -48.489  12.793  23.610  0.00  0.00    -0.265 OA
BRANCH  15  17
ATOM     17  C   UNL d   1     -49.471  13.930  22.952  0.00  0.00     0.219 A 
ATOM     18  S   UNL d   1     -49.795  14.669  23.132  0.00  0.00    -0.026 SA
ATOM     19  C   UNL d   1     -50.540  14.547  23.440  0.00  0.00     0.135 A 
ATOM     20  N   UNL d   1     -50.683  13.739  23.453  0.00  0.00    -0.139 NA
ATOM     21  N   UNL d   1     -50.024  13.364  23.152  0.00  0.00    -0.121 NA
BRANCH  19  22
ATOM     22  C   UNL d   1     -51.061  15.134  23.695  0.00  0.00     0.028 C 
ATOM     23  C   UNL d   1     -50.903  15.922  23.543  0.00  0.00     0.002 C 
ENDBRANCH  19  22
ENDBRANCH  15  17
ENDBRANCH  13  14
ENDBRANCH   1  13
TORSDOF 6
ENDMDL
