MODEL 1
REMARK VINA RESULT:      -3.4      0.000      0.000
REMARK  4 active torsions:
REMARK  status: ('A' for Active; 'I' for Inactive)
REMARK    1  A    between atoms: C_6  and  C_1 
REMARK    2  A    between atoms: C_4  and  C_2 
REMARK    3  A    between atoms: C_3  and  N_5 
REMARK    4  A    between atoms: N_5  and  C_7 
ROOT
ATOM      1  C   UNL d   1      32.514  17.994 -23.819  0.00  0.00     0.073 A 
ATOM      2  C   UNL d   1      31.395  17.372 -24.441  0.00  0.00     0.081 A 
ATOM      3  C   UNL d   1      31.709  17.839 -23.839  0.00  0.00     0.023 A 
ATOM      4  C   UNL d   1      33.005  17.685 -24.395  0.00  0.00     0.004 A 
ATOM      5  C   UNL d   1      32.690  17.216 -24.999  0.00  0.00     0.002 A 
ATOM      6  C   UNL d   1      31.887  17.060 -25.022  0.00  0.00     0.019 A 
ENDROOT
BRANCH   2   7
ATOM      7  N   UNL d   1      30.590  17.215 -24.466  0.00  0.00    -0.245 NA
BRANCH   7   8
ATOM      8  C   UNL d   1      30.277  16.627 -23.975  0.00  0.00     0.087 A 
ATOM      9  C   UNL d   1      29.457  16.551 -23.895  0.00  0.00     0.082 A 
ATOM     10  C   UNL d   1      29.140  15.966 -23.406  0.00  0.00     0.008 A 
ATOM     11  C   UNL d   1      29.642  15.453 -22.995  0.00  0.00     0.000 A 
ATOM     12  C   UNL d   1      30.461  15.525 -23.072  0.00  0.00     0.002 A 
ATOM     13  C   UNL d   1      30.781  16.112 -23.562  0.00  0.00     0.019 A 
BRANCH   9  14
ATOM     14  C   UNL d   1      28.947  17.067 -24.308  0.00  0.00     0.212 C 
ATOM     15  O   UNL d   1      28.627  17.714 -23.916  0.00  0.00    -0.644 OA
ATOM     16  O   UNL d   1      28.776  16.922 -25.097  0.00  0.00    -0.644 OA
ENDBRANCH   9  14
ENDBRANCH   7   8
ENDBRANCH   2   7
BRANCH   1  17
ATOM     17  C   UNL d   1      32.828  18.461 -23.217  0.00  0.00     0.419 C 
ATOM     18  F   UNL d   1      33.121  18.107 -22.524  0.00  0.00    -0.166 F 
ATOM     19  F   UNL d   1      32.853  19.285 -23.298  0.00  0.00    -0.166 F 
ATOM     20  F   UNL d   1      33.172  18.733 -22.515  0.00  0.00    -0.166 F 
ENDBRANCH   1  17
TORSDOF 4
ENDMDL
MODEL 2
REMARK VINA RESULT:      -3.3      2.601      3.606
REMARK  4 active torsions:
REMARK  status: ('A' for Active; 'I' for Inactive)
REMARK    1  A    between atoms: C_6  and  C_1 
REMARK    2  A    between atoms: C_4  and  C_2 
REMARK    3  A    between atoms: C_3  and  N_5 
REMARK    4  A    between atoms: N_5  and  C_7 
ROOT
ATOM      1  C   UNL d   1      28.963  16.382 -23.991  0.00  0.00     0.073 A 
ATOM      2  C   UNL d   1      30.280  16.564 -24.499  0.00  0.00     0.081 A 
ATOM      3  C   UNL d   1      29.689  16.762 -23.960  0.00  0.00     0.023 A 
ATOM      4  C   UNL d   1      28.825  15.808 -24.556  0.00  0.00     0.004 A 
ATOM      5  C   UNL d   1      29.419  15.609 -25.097  0.00  0.00     0.002 A 
ATOM      6  C   UNL d   1      30.144  15.986 -25.068  0.00  0.00     0.019 A 
ENDROOT
BRANCH   2   7
ATOM      7  N   UNL d   1      31.009  16.942 -24.472  0.00  0.00    -0.245 NA
BRANCH   7   8
ATOM      8  C   UNL d   1      31.634  16.586 -24.064  0.00  0.00     0.087 A 
ATOM      9  C   UNL d   1      32.332  17.010 -23.929  0.00  0.00     0.082 A 
ATOM     10  C   UNL d   1      32.959  16.659 -23.522  0.00  0.00     0.008 A 
ATOM     11  C   UNL d   1      32.891  15.882 -23.247  0.00  0.00     0.000 A 
ATOM     12  C   UNL d   1      32.197  15.455 -23.379  0.00  0.00     0.002 A 
ATOM     13  C   UNL d   1      31.566  15.806 -23.788  0.00  0.00     0.019 A 
BRANCH   9  14
ATOM     14  C   UNL d   1      32.403  17.795 -24.205  0.00  0.00     0.212 C 
ATOM     15  O   UNL d   1      32.211  18.415 -23.702  0.00  0.00    -0.644 OA
ATOM     16  O   UNL d   1      32.663  17.933 -24.971  0.00  0.00    -0.644 OA
ENDBRANCH   9  14
ENDBRANCH   7   8
ENDBRANCH   2   7
BRANCH   1  17
ATOM     17  C   UNL d   1      28.372  16.581 -23.452  0.00  0.00     0.419 C 
ATOM     18  F   UNL d   1      27.943  17.286 -23.545  0.00  0.00    -0.166 F 
ATOM     19  F   UNL d   1      28.202  16.078 -22.816  0.00  0.00    -0.166 F 
ATOM     20  F   UNL d   1      27.760  16.957 -23.042  0.00  0.00    -0.166 F 
ENDBRANCH   1  17
TORSDOF 4
ENDMDL
MODEL 3
REMARK VINA RESULT:      -0.6      2.505      3.699
REMARK  4 active torsions:
REMARK  status: ('A' for Active; 'I' for Inactive)
REMARK    1  A    between atoms: C_6  and  C_1 
REMARK    2  A    between atoms: C_4  and  C_2 
REMARK    3  A    between atoms: C_3  and  N_5 
REMARK    4  A    between atoms: N_5  and  C_7 
ROOT
ATOM      1  C   UNL d   1      32.739  20.642 -21.719  0.00  0.00     0.073 A 
ATOM      2  C   UNL d   1      33.017  19.681 -22.731  0.00  0.00     0.081 A 
ATOM      3  C   UNL d   1      32.767  19.860 -21.967  0.00  0.00     0.023 A 
ATOM      4  C   UNL d   1      32.958  21.242 -22.229  0.00  0.00     0.004 A 
ATOM      5  C   UNL d   1      33.208  21.061 -22.997  0.00  0.00     0.002 A 
ATOM      6  C   UNL d   1      33.238  20.283 -23.247  0.00  0.00     0.019 A 
ENDROOT
BRANCH   2   7
ATOM      7  N   UNL d   1      33.047  18.900 -22.984  0.00  0.00    -0.245 NA
BRANCH   7   8
ATOM      8  C   UNL d   1      32.669  18.688 -23.689  0.00  0.00     0.087 A 
ATOM      9  C   UNL d   1      32.338  17.933 -23.768  0.00  0.00     0.082 A 
ATOM     10  C   UNL d   1      31.961  17.718 -24.469  0.00  0.00     0.008 A 
ATOM     11  C   UNL d   1      31.911  18.255 -25.096  0.00  0.00     0.000 A 
ATOM     12  C   UNL d   1      32.240  19.009 -25.022  0.00  0.00     0.002 A 
ATOM     13  C   UNL d   1      32.620  19.228 -24.318  0.00  0.00     0.019 A 
BRANCH   9  14
ATOM     14  C   UNL d   1      32.387  17.389 -23.137  0.00  0.00     0.212 C 
ATOM     15  O   UNL d   1      33.122  17.100 -22.913  0.00  0.00    -0.644 OA
ATOM     16  O   UNL d   1      31.702  17.152 -22.752  0.00  0.00    -0.644 OA
ENDBRANCH   9  14
ENDBRANCH   7   8
ENDBRANCH   2   7
BRANCH   1  17
ATOM     17  C   UNL d   1      32.489  20.822 -20.955  0.00  0.00     0.419 C 
ATOM     18  F   UNL d   1      31.913  21.408 -20.831  0.00  0.00    -0.166 F 
ATOM     19  F   UNL d   1      32.810  20.419 -20.306  0.00  0.00    -0.166 F 
ATOM     20  F   UNL d   1      32.110  21.146 -20.295  0.00  0.00    -0.166 F 
ENDBRANCH   1  17
TORSDOF 4
ENDMDL
MODEL 4
REMARK VINA RESULT:      -0.5      2.783      4.365
REMARK  4 active torsions:
REMARK  status: ('A' for Active; 'I' for Inactive)
REMARK    1  A    between atoms: C_6  and  C_1 
REMARK    2  A    between atoms: C_4  and  C_2 
REMARK    3  A    between atoms: C_3  and  N_5 
REMARK    4  A    between atoms: N_5  and  C_7 
ROOT
ATOM      1  C   UNL d   1      31.711  17.915 -23.954  0.00  0.00     0.073 A 
ATOM      2  C   UNL d   1      32.470  18.773 -23.110  0.00  0.00     0.081 A 
ATOM      3  C   UNL d   1      31.742  18.474 -23.355  0.00  0.00     0.023 A 
ATOM      4  C   UNL d   1      32.400  17.654 -24.308  0.00  0.00     0.004 A 
ATOM      5  C   UNL d   1      33.130  17.954 -24.062  0.00  0.00     0.002 A 
ATOM      6  C   UNL d   1      33.165  18.512 -23.465  0.00  0.00     0.019 A 
ENDROOT
BRANCH   2   7
ATOM      7  N   UNL d   1      32.507  19.334 -22.511  0.00  0.00    -0.245 NA
BRANCH   7   8
ATOM      8  C   UNL d   1      32.731  20.108 -22.695  0.00  0.00     0.087 A 
ATOM      9  C   UNL d   1      32.763  20.681 -22.098  0.00  0.00     0.082 A 
ATOM     10  C   UNL d   1      32.985  21.455 -22.277  0.00  0.00     0.008 A 
ATOM     11  C   UNL d   1      33.178  21.662 -23.054  0.00  0.00     0.000 A 
ATOM     12  C   UNL d   1      33.148  21.095 -23.653  0.00  0.00     0.002 A 
ATOM     13  C   UNL d   1      32.924  20.316 -23.475  0.00  0.00     0.019 A 
BRANCH   9  14
ATOM     14  C   UNL d   1      32.569  20.474 -21.312  0.00  0.00     0.212 C 
ATOM     15  O   UNL d   1      31.801  20.593 -21.045  0.00  0.00    -0.644 OA
ATOM     16  O   UNL d   1      33.145  20.158 -20.822  0.00  0.00    -0.644 OA
ENDBRANCH   9  14
ENDBRANCH   7   8
ENDBRANCH   2   7
BRANCH   1  17
ATOM     17  C   UNL d   1      30.983  17.616 -24.199  0.00  0.00     0.419 C 
ATOM     18  F   UNL d   1      30.821  16.803 -24.129  0.00  0.00    -0.166 F 
ATOM     19  F   UNL d   1      30.409  18.123 -24.515  0.00  0.00    -0.166 F 
ATOM     20  F   UNL d   1      30.341  17.125 -24.377  0.00  0.00    -0.166 F 
ENDBRANCH   1  17
TORSDOF 4
ENDMDL
