MODEL 1
REMARK VINA RESULT:      15.9      0.000      0.000
REMARK  3 active torsions:
REMARK  status: ('A' for Active; 'I' for Inactive)
REMARK    1  A    between atoms: N_2  and  S_1 
REMARK    2  A    between atoms: C_5  and  S_1 
REMARK    3  A    between atoms: S_9  and  C_3 
ROOT
ATOM      1  S   UNL d   1      44.026 -16.191  36.700  0.00  0.00     0.273 S 
ATOM      2  O   UNL d   1      44.343 -16.899  36.415  0.00  0.00    -0.200 OA
ATOM      3  O   UNL d   1      43.388 -16.694  36.622  0.00  0.00    -0.200 OA
ENDROOT
BRANCH   1   4
ATOM      4  N   UNL d   1      43.495 -15.618  36.970  0.00  0.00    -0.208 N 
ATOM      5  C   UNL d   1      42.684 -15.591  36.799  0.00  0.00     0.185 A 
ATOM      6  N   UNL d   1      42.364 -14.931  37.178  0.00  0.00    -0.219 NA
ATOM      7  C   UNL d   1      42.978 -14.552  37.581  0.00  0.00     0.121 A 
ATOM      8  C   UNL d   1      43.675 -14.970  37.456  0.00  0.00     0.114 A 
BRANCH   5   9
ATOM      9  S   UNL d   1      42.267 -16.134  36.330  0.00  0.00    -0.075 SA
ATOM     10  C   UNL d   1      41.445 -16.148  36.355  0.00  0.00     0.077 C 
ENDBRANCH   5   9
ENDBRANCH   1   4
BRANCH   1  11
ATOM     11  C   UNL d   1      44.681 -15.698  36.772  0.00  0.00     0.104 A 
ATOM     12  C   UNL d   1      44.707 -14.999  36.345  0.00  0.00     0.013 A 
ATOM     13  C   UNL d   1      45.366 -14.508  36.420  0.00  0.00     0.001 A 
ATOM     14  C   UNL d   1      45.989 -14.719  36.919  0.00  0.00     0.000 A 
ATOM     15  C   UNL d   1      45.954 -15.425  37.344  0.00  0.00     0.001 A 
ATOM     16  C   UNL d   1      46.646 -14.227  36.991  0.00  0.00     0.000 C 
ATOM     17  C   UNL d   1      45.295 -15.915  37.269  0.00  0.00     0.013 A 
ENDBRANCH   1  11
TORSDOF 3
ENDMDL
MODEL 2
REMARK VINA RESULT:      16.4      1.247      2.992
REMARK  3 active torsions:
REMARK  status: ('A' for Active; 'I' for Inactive)
REMARK    1  A    between atoms: N_2  and  S_1 
REMARK    2  A    between atoms: C_5  and  S_1 
REMARK    3  A    between atoms: S_9  and  C_3 
ROOT
ATOM      1  S   UNL d   1      44.607 -15.941  37.209  0.00  0.00     0.273 S 
ATOM      2  O   UNL d   1      44.669 -16.750  37.055  0.00  0.00    -0.200 OA
ATOM      3  O   UNL d   1      45.404 -16.108  37.266  0.00  0.00    -0.200 OA
ENDROOT
BRANCH   1   4
ATOM      4  N   UNL d   1      44.795 -15.156  37.387  0.00  0.00    -0.208 N 
ATOM      5  C   UNL d   1      45.439 -14.732  37.081  0.00  0.00     0.185 A 
ATOM      6  N   UNL d   1      45.420 -13.972  37.402  0.00  0.00    -0.219 NA
ATOM      7  C   UNL d   1      44.766 -13.928  37.905  0.00  0.00     0.121 A 
ATOM      8  C   UNL d   1      44.378 -14.654  37.899  0.00  0.00     0.114 A 
BRANCH   5   9
ATOM      9  S   UNL d   1      46.002 -15.022  36.546  0.00  0.00    -0.075 SA
ATOM     10  C   UNL d   1      46.646 -14.554  36.338  0.00  0.00     0.077 C 
ENDBRANCH   5   9
ENDBRANCH   1   4
BRANCH   1  11
ATOM     11  C   UNL d   1      43.799 -15.793  37.147  0.00  0.00     0.104 A 
ATOM     12  C   UNL d   1      43.373 -15.607  37.823  0.00  0.00     0.013 A 
ATOM     13  C   UNL d   1      42.563 -15.458  37.756  0.00  0.00     0.001 A 
ATOM     14  C   UNL d   1      42.191 -15.497  37.020  0.00  0.00     0.000 A 
ATOM     15  C   UNL d   1      42.629 -15.685  36.347  0.00  0.00     0.001 A 
ATOM     16  C   UNL d   1      41.383 -15.348  36.958  0.00  0.00     0.000 C 
ATOM     17  C   UNL d   1      43.438 -15.833  36.414  0.00  0.00     0.013 A 
ENDBRANCH   1  11
TORSDOF 3
ENDMDL
MODEL 3
REMARK VINA RESULT:      18.4      7.288      7.885
REMARK  3 active torsions:
REMARK  status: ('A' for Active; 'I' for Inactive)
REMARK    1  A    between atoms: N_2  and  S_1 
REMARK    2  A    between atoms: C_5  and  S_1 
REMARK    3  A    between atoms: S_9  and  C_3 
ROOT
ATOM      1  S   UNL d   1      46.439 -19.379  43.824  0.00  0.00     0.273 S 
ATOM      2  O   UNL d   1      46.645 -19.714  44.550  0.00  0.00    -0.200 OA
ATOM      3  O   UNL d   1      46.633 -20.154  43.654  0.00  0.00    -0.200 OA
ENDROOT
BRANCH   1   4
ATOM      4  N   UNL d   1      46.286 -19.279  43.017  0.00  0.00    -0.208 N 
ATOM      5  C   UNL d   1      45.743 -19.716  42.569  0.00  0.00     0.185 A 
ATOM      6  N   UNL d   1      45.767 -19.436  41.793  0.00  0.00    -0.219 NA
ATOM      7  C   UNL d   1      46.324 -18.826  41.764  0.00  0.00     0.121 A 
ATOM      8  C   UNL d   1      46.646 -18.726  42.514  0.00  0.00     0.114 A 
BRANCH   5   9
ATOM      9  S   UNL d   1      45.261 -20.329  42.852  0.00  0.00    -0.075 SA
ATOM     10  C   UNL d   1      44.443 -20.256  42.811  0.00  0.00     0.077 C 
ENDBRANCH   5   9
ENDBRANCH   1   4
BRANCH   1  11
ATOM     11  C   UNL d   1      46.247 -18.602  44.015  0.00  0.00     0.104 A 
ATOM     12  C   UNL d   1      46.360 -18.012  43.456  0.00  0.00     0.013 A 
ATOM     13  C   UNL d   1      46.166 -17.234  43.652  0.00  0.00     0.001 A 
ATOM     14  C   UNL d   1      45.863 -17.054  44.399  0.00  0.00     0.000 A 
ATOM     15  C   UNL d   1      45.753 -17.655  44.953  0.00  0.00     0.001 A 
ATOM     16  C   UNL d   1      45.670 -16.276  44.591  0.00  0.00     0.000 C 
ATOM     17  C   UNL d   1      45.947 -18.432  44.757  0.00  0.00     0.013 A 
ENDBRANCH   1  11
TORSDOF 3
ENDMDL
