MODEL 1
REMARK VINA RESULT:      14.1      0.000      0.000
REMARK  6 active torsions:
REMARK  status: ('A' for Active; 'I' for Inactive)
REMARK    1  A    between atoms: N_4  and  C_3 
REMARK       I    between atoms: C_6  and  N_10 
REMARK    2  A    between atoms: C_21  and  C_6 
REMARK    3  A    between atoms: C_11  and  C_7 
REMARK    4  A    between atoms: C_9  and  O_12 
REMARK    5  A    between atoms: N_10  and  C_22 
REMARK    6  A    between atoms: O_12  and  C_21 
ROOT
ATOM      1  C   UNL d   1     -41.648-122.537 -51.733  0.00  0.00     0.019 A 
ATOM      2  C   UNL d   1     -41.298-123.239 -51.501  0.00  0.00     0.003 A 
ATOM      3  C   UNL d   1     -41.826-121.963 -51.166  0.00  0.00     0.003 A 
ATOM      4  C   UNL d   1     -41.299-122.809 -50.143  0.00  0.00     0.085 A 
ATOM      5  C   UNL d   1     -41.652-122.099 -50.372  0.00  0.00     0.019 A 
ATOM      6  C   UNL d   1     -41.123-123.375 -50.706  0.00  0.00     0.019 A 
ENDROOT
BRANCH   4   7
ATOM      7  N   UNL d   1     -41.124-122.945 -49.348  0.00  0.00    -0.206 NA
ATOM      8  C   UNL d   1     -41.676-123.309 -48.860  0.00  0.00     0.304 C 
ATOM      9  O   UNL d   1     -41.500-123.446 -48.062  0.00  0.00    -0.263 OA
BRANCH   8  10
ATOM     10  C   UNL d   1     -42.407-123.539 -49.168  0.00  0.00     0.185 C 
BRANCH  10  11
ATOM     11  O   UNL d   1     -43.012-123.777 -48.659  0.00  0.00    -0.299 OA
BRANCH  11  12
ATOM     12  C   UNL d   1     -43.793-123.786 -48.925  0.00  0.00     0.111 A 
ATOM     13  C   UNL d   1     -44.413-123.802 -48.380  0.00  0.00     0.081 A 
ATOM     14  C   UNL d   1     -45.189-123.811 -48.638  0.00  0.00     0.025 A 
ATOM     15 CL   UNL d   1     -44.248-123.808 -47.560  0.00  0.00    -0.080 Cl
ATOM     16  C   UNL d   1     -45.350-123.805 -49.447  0.00  0.00     0.059 A 
ATOM     17  C   UNL d   1     -44.730-123.790 -49.992  0.00  0.00     0.013 A 
ATOM     18 CL   UNL d   1     -46.138-123.815 -49.713  0.00  0.00    -0.082 Cl
ATOM     19  C   UNL d   1     -43.949-123.780 -49.726  0.00  0.00     0.026 A 
ENDBRANCH  11  12
ENDBRANCH  10  11
ENDBRANCH   8  10
ENDBRANCH   4   7
BRANCH   1  20
ATOM     20  C   UNL d   1     -41.823-122.401 -52.527  0.00  0.00     0.103 A 
ATOM     21  N   UNL d   1     -42.442-121.902 -52.733  0.00  0.00    -0.147 NA
ATOM     22  N   UNL d   1     -42.617-121.766 -53.528  0.00  0.00    -0.130 NA
ATOM     23  C   UNL d   1     -42.173-122.130 -54.117  0.00  0.00     0.170 A 
ATOM     24  C   UNL d   1     -41.550-122.631 -53.911  0.00  0.00     0.041 A 
ATOM     25  C   UNL d   1     -41.375-122.767 -53.116  0.00  0.00     0.024 A 
BRANCH  23  26
ATOM     26  N   UNL d   1     -42.347-121.994 -54.911  0.00  0.00    -0.284 N 
ATOM     27  C   UNL d   1     -41.780-121.681 -55.411  0.00  0.00     0.108 A 
ATOM     28  C   UNL d   1     -41.955-121.546 -56.205  0.00  0.00     0.142 A 
ATOM     29  O   UNL d   1     -42.697-121.722 -56.501  0.00  0.00    -0.300 OA
ATOM     30  C   UNL d   1     -43.272-122.038 -56.000  0.00  0.00     0.142 A 
ATOM     31  C   UNL d   1     -43.098-122.173 -55.205  0.00  0.00     0.108 A 
ENDBRANCH  23  26
ENDBRANCH   1  20
TORSDOF 6
ENDMDL
MODEL 2
REMARK VINA RESULT:      16.5      2.286      5.999
REMARK  6 active torsions:
REMARK  status: ('A' for Active; 'I' for Inactive)
REMARK    1  A    between atoms: N_4  and  C_3 
REMARK       I    between atoms: C_6  and  N_10 
REMARK    2  A    between atoms: C_21  and  C_6 
REMARK    3  A    between atoms: C_11  and  C_7 
REMARK    4  A    between atoms: C_9  and  O_12 
REMARK    5  A    between atoms: N_10  and  C_22 
REMARK    6  A    between atoms: O_12  and  C_21 
ROOT
ATOM      1  C   UNL d   1     -41.920-121.694 -51.171  0.00  0.00     0.019 A 
ATOM      2  C   UNL d   1     -42.582-121.760 -51.646  0.00  0.00     0.003 A 
ATOM      3  C   UNL d   1     -41.264-121.271 -51.439  0.00  0.00     0.003 A 
ATOM      4  C   UNL d   1     -41.949-120.987 -52.661  0.00  0.00     0.085 A 
ATOM      5  C   UNL d   1     -41.279-120.917 -52.185  0.00  0.00     0.019 A 
ATOM      6  C   UNL d   1     -42.596-121.407 -52.391  0.00  0.00     0.019 A 
ENDROOT
BRANCH   4   7
ATOM      7  N   UNL d   1     -41.963-120.633 -53.406  0.00  0.00    -0.206 NA
ATOM      8  C   UNL d   1     -41.765-121.069 -54.074  0.00  0.00     0.304 C 
ATOM      9  O   UNL d   1     -41.779-120.714 -54.823  0.00  0.00    -0.263 OA
BRANCH   8  10
ATOM     10  C   UNL d   1     -41.551-121.863 -53.998  0.00  0.00     0.185 C 
BRANCH  10  11
ATOM     11  O   UNL d   1     -41.375-122.309 -54.669  0.00  0.00    -0.299 OA
BRANCH  11  12
ATOM     12  C   UNL d   1     -41.986-122.629 -55.123  0.00  0.00     0.111 A 
ATOM     13  C   UNL d   1     -42.278-123.380 -54.950  0.00  0.00     0.081 A 
ATOM     14  C   UNL d   1     -42.883-123.701 -55.396  0.00  0.00     0.025 A 
ATOM     15 CL   UNL d   1     -41.955-123.817 -54.314  0.00  0.00    -0.080 Cl
ATOM     16  C   UNL d   1     -43.201-123.269 -56.023  0.00  0.00     0.059 A 
ATOM     17  C   UNL d   1     -42.909-122.517 -56.196  0.00  0.00     0.013 A 
ATOM     18 CL   UNL d   1     -43.817-123.592 -56.480  0.00  0.00    -0.082 Cl
ATOM     19  C   UNL d   1     -42.298-122.198 -55.742  0.00  0.00     0.026 A 
ENDBRANCH  11  12
ENDBRANCH  10  11
ENDBRANCH   8  10
ENDBRANCH   4   7
BRANCH   1  20
ATOM     20  C   UNL d   1     -41.906-122.048 -50.425  0.00  0.00     0.103 A 
ATOM     21  N   UNL d   1     -41.737-121.598 -49.759  0.00  0.00    -0.147 NA
ATOM     22  N   UNL d   1     -41.723-121.952 -49.014  0.00  0.00    -0.130 NA
ATOM     23  C   UNL d   1     -41.877-122.756 -48.935  0.00  0.00     0.170 A 
ATOM     24  C   UNL d   1     -42.047-123.209 -49.604  0.00  0.00     0.041 A 
ATOM     25  C   UNL d   1     -42.061-122.855 -50.349  0.00  0.00     0.024 A 
BRANCH  23  26
ATOM     26  N   UNL d   1     -41.862-123.109 -48.190  0.00  0.00    -0.284 N 
ATOM     27  C   UNL d   1     -42.559-123.246 -47.785  0.00  0.00     0.108 A 
ATOM     28  C   UNL d   1     -42.545-123.599 -47.040  0.00  0.00     0.142 A 
ATOM     29  O   UNL d   1     -41.834-123.817 -46.700  0.00  0.00    -0.300 OA
ATOM     30  C   UNL d   1     -41.128-123.681 -47.106  0.00  0.00     0.142 A 
ATOM     31  C   UNL d   1     -41.142-123.327 -47.851  0.00  0.00     0.108 A 
ENDBRANCH  23  26
ENDBRANCH   1  20
TORSDOF 6
ENDMDL
