MODEL 1
REMARK VINA RESULT:      -4.4      0.000      0.000
REMARK  8 active torsions:
REMARK  status: ('A' for Active; 'I' for Inactive)
REMARK    1  A    between atoms: C_11  and  C_1 
REMARK    2  A    between atoms: C_10  and  C_2 
REMARK    3  A    between atoms: C_4  and  C_3 
REMARK    4  A    between atoms: C_14  and  C_9 
REMARK    5  A    between atoms: O_17  and  C_10 
REMARK    6  A    between atoms: O_18  and  C_11 
REMARK    7  A    between atoms: C_24  and  O_17 
REMARK    8  A    between atoms: C_23  and  O_18 
ROOT
ATOM      1  C   UNL d   1     -46.633  13.383  22.427  0.00  0.00     0.083 A 
ATOM      2  C   UNL d   1     -47.468  14.570  22.521  0.00  0.00     0.083 A 
ATOM      3  C   UNL d   1     -47.366  13.762  22.394  0.00  0.00     0.036 A 
ATOM      4  C   UNL d   1     -46.803  15.020  22.689  0.00  0.00     0.087 A 
ATOM      5  C   UNL d   1     -45.939  13.872  22.605  0.00  0.00     0.087 A 
ATOM      6  N   UNL d   1     -46.045  14.694  22.734  0.00  0.00    -0.245 NA
ATOM      7  C   UNL d   1     -46.885  15.878  22.828  0.00  0.00     0.021 C 
ATOM      8  C   UNL d   1     -45.186  13.543  22.649  0.00  0.00     0.021 C 
ENDROOT
BRANCH   3   9
ATOM      9  C   UNL d   1     -48.026  13.285  22.222  0.00  0.00     0.100 A 
ATOM     10  O   UNL d   1     -48.573  12.970  22.773  0.00  0.00    -0.307 OA
ATOM     11  C   UNL d   1     -49.123  12.538  22.327  0.00  0.00     0.100 A 
ATOM     12  C   UNL d   1     -48.906  12.596  21.534  0.00  0.00     0.027 A 
ATOM     13  C   UNL d   1     -48.243  13.047  21.469  0.00  0.00     0.027 A 
BRANCH  11  14
ATOM     14  C   UNL d   1     -49.716  12.180  22.784  0.00  0.00     0.023 A 
ATOM     15  C   UNL d   1     -49.514  11.529  23.239  0.00  0.00     0.002 A 
ATOM     16  C   UNL d   1     -50.072  11.158  23.696  0.00  0.00     0.000 A 
ATOM     17  C   UNL d   1     -50.883  11.467  23.689  0.00  0.00     0.000 A 
ATOM     18  C   UNL d   1     -51.064  12.120  23.227  0.00  0.00     0.000 A 
ATOM     19  C   UNL d   1     -50.462  12.464  22.778  0.00  0.00     0.002 A 
ENDBRANCH  11  14
ENDBRANCH   3   9
BRANCH   2  20
ATOM     20  C   UNL d   1     -48.205  14.946  22.488  0.00  0.00     0.302 C 
ATOM     21  O   UNL d   1     -48.528  15.156  21.775  0.00  0.00    -0.259 OA
BRANCH  20  22
ATOM     22  O   UNL d   1     -48.629  15.116  23.174  0.00  0.00    -0.271 OA
BRANCH  22  23
ATOM     23  C   UNL d   1     -49.238  15.854  23.338  0.00  0.00     0.126 C 
ATOM     24  C   UNL d   1     -49.990  15.617  23.567  0.00  0.00     0.029 C 
ENDBRANCH  22  23
ENDBRANCH  20  22
ENDBRANCH   2  20
BRANCH   1  25
ATOM     25  C   UNL d   1     -46.521  12.545  22.296  0.00  0.00     0.302 C 
ATOM     26  O   UNL d   1     -46.729  12.208  21.597  0.00  0.00    -0.259 OA
BRANCH  25  27
ATOM     27  O   UNL d   1     -46.190  12.096  22.915  0.00  0.00    -0.271 OA
BRANCH  27  28
ATOM     28  C   UNL d   1     -46.065  11.275  22.865  0.00  0.00     0.126 C 
ATOM     29  C   UNL d   1     -46.080  11.043  23.694  0.00  0.00     0.029 C 
ENDBRANCH  27  28
ENDBRANCH  25  27
ENDBRANCH   1  25
TORSDOF 8
ENDMDL
MODEL 2
REMARK VINA RESULT:      -3.7      5.889      8.214
REMARK  8 active torsions:
REMARK  status: ('A' for Active; 'I' for Inactive)
REMARK    1  A    between atoms: C_11  and  C_1 
REMARK    2  A    between atoms: C_10  and  C_2 
REMARK    3  A    between atoms: C_4  and  C_3 
REMARK    4  A    between atoms: C_14  and  C_9 
REMARK    5  A    between atoms: O_17  and  C_10 
REMARK    6  A    between atoms: O_18  and  C_11 
REMARK    7  A    between atoms: C_24  and  O_17 
REMARK    8  A    between atoms: C_23  and  O_18 
ROOT
ATOM      1  C   UNL d   1     -39.975  14.516  19.171  0.00  0.00     0.083 A 
ATOM      2  C   UNL d   1     -39.391  14.667  20.494  0.00  0.00     0.083 A 
ATOM      3  C   UNL d   1     -40.040  14.595  19.990  0.00  0.00     0.036 A 
ATOM      4  C   UNL d   1     -38.642  14.659  20.161  0.00  0.00     0.087 A 
ATOM      5  C   UNL d   1     -39.175  14.509  18.832  0.00  0.00     0.087 A 
ATOM      6  N   UNL d   1     -38.518  14.582  19.347  0.00  0.00    -0.245 NA
ATOM      7  C   UNL d   1     -37.940  14.734  20.673  0.00  0.00     0.021 C 
ATOM      8  C   UNL d   1     -39.056  14.432  18.022  0.00  0.00     0.021 C 
ENDROOT
BRANCH   3   9
ATOM      9  C   UNL d   1     -40.810  14.601  20.305  0.00  0.00     0.100 A 
ATOM     10  O   UNL d   1     -41.248  13.937  20.567  0.00  0.00    -0.307 OA
ATOM     11  C   UNL d   1     -41.977  14.233  20.829  0.00  0.00     0.100 A 
ATOM     12  C   UNL d   1     -41.969  15.050  20.724  0.00  0.00     0.027 A 
ATOM     13  C   UNL d   1     -41.264  15.274  20.407  0.00  0.00     0.027 A 
BRANCH  11  14
ATOM     14  C   UNL d   1     -42.493  13.648  21.114  0.00  0.00     0.023 A 
ATOM     15  C   UNL d   1     -43.252  13.872  21.325  0.00  0.00     0.002 A 
ATOM     16  C   UNL d   1     -43.779  13.324  21.606  0.00  0.00     0.000 A 
ATOM     17  C   UNL d   1     -43.518  12.499  21.676  0.00  0.00     0.000 A 
ATOM     18  C   UNL d   1     -42.754  12.296  21.459  0.00  0.00     0.000 A 
ATOM     19  C   UNL d   1     -42.253  12.890  21.178  0.00  0.00     0.002 A 
ENDBRANCH  11  14
ENDBRANCH   3   9
BRANCH   2  20
ATOM     20  C   UNL d   1     -39.461  14.747  21.316  0.00  0.00     0.302 C 
ATOM     21  O   UNL d   1     -39.635  15.466  21.646  0.00  0.00    -0.259 OA
BRANCH  20  22
ATOM     22  O   UNL d   1     -39.357  14.100  21.816  0.00  0.00    -0.271 OA
BRANCH  22  23
ATOM     23  C   UNL d   1     -39.061  14.098  22.742  0.00  0.00     0.126 C 
ATOM     24  C   UNL d   1     -39.068  13.354  23.088  0.00  0.00     0.029 C 
ENDBRANCH  22  23
ENDBRANCH  20  22
ENDBRANCH   2  20
BRANCH   1  25
ATOM     25  C   UNL d   1     -40.644  14.441  18.642  0.00  0.00     0.302 C 
ATOM     26  O   UNL d   1     -41.018  13.736  18.552  0.00  0.00    -0.259 OA
BRANCH  25  27
ATOM     27  O   UNL d   1     -40.890  15.121  18.227  0.00  0.00    -0.271 OA
BRANCH  27  28
ATOM     28  C   UNL d   1     -41.329  15.088  17.522  0.00  0.00     0.126 C 
ATOM     29  C   UNL d   1     -41.365  15.920  17.298  0.00  0.00     0.029 C 
ENDBRANCH  27  28
ENDBRANCH  25  27
ENDBRANCH   1  25
TORSDOF 8
ENDMDL
MODEL 3
REMARK VINA RESULT:      -3.6      7.392      9.860
REMARK  8 active torsions:
REMARK  status: ('A' for Active; 'I' for Inactive)
REMARK    1  A    between atoms: C_11  and  C_1 
REMARK    2  A    between atoms: C_10  and  C_2 
REMARK    3  A    between atoms: C_4  and  C_3 
REMARK    4  A    between atoms: C_14  and  C_9 
REMARK    5  A    between atoms: O_17  and  C_10 
REMARK    6  A    between atoms: O_18  and  C_11 
REMARK    7  A    between atoms: C_24  and  O_17 
REMARK    8  A    between atoms: C_23  and  O_18 
ROOT
ATOM      1  C   UNL d   1     -39.277  14.443  17.890  0.00  0.00     0.083 A 
ATOM      2  C   UNL d   1     -40.396  14.869  18.716  0.00  0.00     0.083 A 
ATOM      3  C   UNL d   1     -39.596  14.699  18.607  0.00  0.00     0.036 A 
ATOM      4  C   UNL d   1     -40.899  14.778  18.076  0.00  0.00     0.087 A 
ATOM      5  C   UNL d   1     -39.822  14.352  17.220  0.00  0.00     0.087 A 
ATOM      6  N   UNL d   1     -40.634  14.525  17.335  0.00  0.00    -0.245 NA
ATOM      7  C   UNL d   1     -41.750  14.951  18.165  0.00  0.00     0.021 C 
ATOM      8  C   UNL d   1     -39.555  14.100  16.485  0.00  0.00     0.021 C 
ENDROOT
BRANCH   3   9
ATOM      9  C   UNL d   1     -39.066  14.784  19.242  0.00  0.00     0.100 A 
ATOM     10  O   UNL d   1     -38.997  14.280  19.908  0.00  0.00    -0.307 OA
ATOM     11  C   UNL d   1     -38.394  14.602  20.377  0.00  0.00     0.100 A 
ATOM     12  C   UNL d   1     -38.114  15.278  19.998  0.00  0.00     0.027 A 
ATOM     13  C   UNL d   1     -38.519  15.390  19.313  0.00  0.00     0.027 A 
BRANCH  11  14
ATOM     14  C   UNL d   1     -38.244  14.171  21.071  0.00  0.00     0.023 A 
ATOM     15  C   UNL d   1     -38.090  14.589  21.759  0.00  0.00     0.002 A 
ATOM     16  C   UNL d   1     -37.940  14.196  22.452  0.00  0.00     0.000 A 
ATOM     17  C   UNL d   1     -37.947  13.328  22.445  0.00  0.00     0.000 A 
ATOM     18  C   UNL d   1     -38.103  12.930  21.746  0.00  0.00     0.000 A 
ATOM     19  C   UNL d   1     -38.250  13.373  21.065  0.00  0.00     0.002 A 
ENDBRANCH  11  14
ENDBRANCH   3   9
BRANCH   2  20
ATOM     20  C   UNL d   1     -40.711  15.125  19.438  0.00  0.00     0.302 C 
ATOM     21  O   UNL d   1     -40.679  15.907  19.646  0.00  0.00    -0.259 OA
BRANCH  20  22
ATOM     22  O   UNL d   1     -41.065  14.595  19.960  0.00  0.00    -0.271 OA
BRANCH  22  23
ATOM     23  C   UNL d   1     -41.668  14.788  20.696  0.00  0.00     0.126 C 
ATOM     24  C   UNL d   1     -41.932  14.118  21.091  0.00  0.00     0.029 C 
ENDBRANCH  22  23
ENDBRANCH  20  22
ENDBRANCH   2  20
BRANCH   1  25
ATOM     25  C   UNL d   1     -38.448  14.266  17.770  0.00  0.00     0.302 C 
ATOM     26  O   UNL d   1     -37.940  14.834  17.519  0.00  0.00    -0.259 OA
BRANCH  25  27
ATOM     27  O   UNL d   1     -38.192  13.487  17.922  0.00  0.00    -0.271 OA
BRANCH  27  28
ATOM     28  C   UNL d   1     -37.944  12.966  17.324  0.00  0.00     0.126 C 
ATOM     29  C   UNL d   1     -37.956  12.208  17.734  0.00  0.00     0.029 C 
ENDBRANCH  27  28
ENDBRANCH  25  27
ENDBRANCH   1  25
TORSDOF 8
ENDMDL
MODEL 4
REMARK VINA RESULT:      -3.4      5.924      8.133
REMARK  8 active torsions:
REMARK  status: ('A' for Active; 'I' for Inactive)
REMARK    1  A    between atoms: C_11  and  C_1 
REMARK    2  A    between atoms: C_10  and  C_2 
REMARK    3  A    between atoms: C_4  and  C_3 
REMARK    4  A    between atoms: C_14  and  C_9 
REMARK    5  A    between atoms: O_17  and  C_10 
REMARK    6  A    between atoms: O_18  and  C_11 
REMARK    7  A    between atoms: C_24  and  O_17 
REMARK    8  A    between atoms: C_23  and  O_18 
ROOT
ATOM      1  C   UNL d   1     -39.371  14.931  20.854  0.00  0.00     0.083 A 
ATOM      2  C   UNL d   1     -39.756  14.678  19.474  0.00  0.00     0.083 A 
ATOM      3  C   UNL d   1     -39.937  14.778  20.272  0.00  0.00     0.036 A 
ATOM      4  C   UNL d   1     -38.970  14.732  19.248  0.00  0.00     0.087 A 
ATOM      5  C   UNL d   1     -38.543  14.986  20.600  0.00  0.00     0.087 A 
ATOM      6  N   UNL d   1     -38.362  14.883  19.788  0.00  0.00    -0.245 NA
ATOM      7  C   UNL d   1     -38.752  14.629  18.410  0.00  0.00     0.021 C 
ATOM      8  C   UNL d   1     -37.941  15.136  21.140  0.00  0.00     0.021 C 
ENDROOT
BRANCH   3   9
ATOM      9  C   UNL d   1     -40.728  14.727  20.525  0.00  0.00     0.100 A 
ATOM     10  O   UNL d   1     -41.151  14.028  20.707  0.00  0.00    -0.307 OA
ATOM     11  C   UNL d   1     -41.912  14.272  20.930  0.00  0.00     0.100 A 
ATOM     12  C   UNL d   1     -41.937  15.094  20.881  0.00  0.00     0.027 A 
ATOM     13  C   UNL d   1     -41.222  15.371  20.637  0.00  0.00     0.027 A 
BRANCH  11  14
ATOM     14  C   UNL d   1     -42.419  13.646  21.132  0.00  0.00     0.023 A 
ATOM     15  C   UNL d   1     -43.224  13.793  21.153  0.00  0.00     0.002 A 
ATOM     16  C   UNL d   1     -43.744  13.202  21.348  0.00  0.00     0.000 A 
ATOM     17  C   UNL d   1     -43.426  12.415  21.531  0.00  0.00     0.000 A 
ATOM     18  C   UNL d   1     -42.616  12.290  21.504  0.00  0.00     0.000 A 
ATOM     19  C   UNL d   1     -42.126  12.923  21.301  0.00  0.00     0.002 A 
ENDBRANCH  11  14
ENDBRANCH   3   9
BRANCH   2  20
ATOM     20  C   UNL d   1     -40.327  14.525  18.894  0.00  0.00     0.302 C 
ATOM     21  O   UNL d   1     -40.564  13.766  18.739  0.00  0.00    -0.259 OA
BRANCH  20  22
ATOM     22  O   UNL d   1     -40.669  15.138  18.461  0.00  0.00    -0.271 OA
BRANCH  22  23
ATOM     23  C   UNL d   1     -40.947  15.134  17.531  0.00  0.00     0.126 C 
ATOM     24  C   UNL d   1     -41.352  15.812  17.305  0.00  0.00     0.029 C 
ENDBRANCH  22  23
ENDBRANCH  20  22
ENDBRANCH   2  20
BRANCH   1  25
ATOM     25  C   UNL d   1     -39.553  15.036  21.684  0.00  0.00     0.302 C 
ATOM     26  O   UNL d   1     -39.785  15.752  21.964  0.00  0.00    -0.259 OA
BRANCH  25  27
ATOM     27  O   UNL d   1     -39.480  14.373  22.185  0.00  0.00    -0.271 OA
BRANCH  27  28
ATOM     28  C   UNL d   1     -39.070  14.395  22.908  0.00  0.00     0.126 C 
ATOM     29  C   UNL d   1     -38.951  13.556  23.067  0.00  0.00     0.029 C 
ENDBRANCH  27  28
ENDBRANCH  25  27
ENDBRANCH   1  25
TORSDOF 8
ENDMDL
MODEL 5
REMARK VINA RESULT:      -1.5      1.460      4.448
REMARK  8 active torsions:
REMARK  status: ('A' for Active; 'I' for Inactive)
REMARK    1  A    between atoms: C_11  and  C_1 
REMARK    2  A    between atoms: C_10  and  C_2 
REMARK    3  A    between atoms: C_4  and  C_3 
REMARK    4  A    between atoms: C_14  and  C_9 
REMARK    5  A    between atoms: O_17  and  C_10 
REMARK    6  A    between atoms: O_18  and  C_11 
REMARK    7  A    between atoms: C_24  and  O_17 
REMARK    8  A    between atoms: C_23  and  O_18 
ROOT
ATOM      1  C   UNL d   1     -49.383  13.749  22.323  0.00  0.00     0.083 A 
ATOM      2  C   UNL d   1     -49.192  12.340  22.625  0.00  0.00     0.083 A 
ATOM      3  C   UNL d   1     -48.926  13.120  22.598  0.00  0.00     0.036 A 
ATOM      4  C   UNL d   1     -49.953  12.184  22.363  0.00  0.00     0.087 A 
ATOM      5  C   UNL d   1     -50.187  13.569  22.049  0.00  0.00     0.087 A 
ATOM      6  N   UNL d   1     -50.455  12.775  22.078  0.00  0.00    -0.245 NA
ATOM      7  C   UNL d   1     -50.258  11.367  22.381  0.00  0.00     0.021 C 
ATOM      8  C   UNL d   1     -50.683  14.161  21.766  0.00  0.00     0.021 C 
ENDROOT
BRANCH   3   9
ATOM      9  C   UNL d   1     -48.157  13.302  22.858  0.00  0.00     0.100 A 
ATOM     10  O   UNL d   1     -47.455  13.279  22.401  0.00  0.00    -0.307 OA
ATOM     11  C   UNL d   1     -46.842  13.507  22.912  0.00  0.00     0.100 A 
ATOM     12  C   UNL d   1     -47.174  13.661  23.651  0.00  0.00     0.027 A 
ATOM     13  C   UNL d   1     -47.968  13.537  23.620  0.00  0.00     0.027 A 
BRANCH  11  14
ATOM     14  C   UNL d   1     -46.094  13.518  22.552  0.00  0.00     0.023 A 
ATOM     15  C   UNL d   1     -45.658  14.210  22.588  0.00  0.00     0.002 A 
ATOM     16  C   UNL d   1     -44.924  14.251  22.247  0.00  0.00     0.000 A 
ATOM     17  C   UNL d   1     -44.615  13.546  21.845  0.00  0.00     0.000 A 
ATOM     18  C   UNL d   1     -45.068  12.863  21.821  0.00  0.00     0.000 A 
ATOM     19  C   UNL d   1     -45.810  12.869  22.183  0.00  0.00     0.002 A 
ENDBRANCH  11  14
ENDBRANCH   3   9
BRANCH   2  20
ATOM     20  C   UNL d   1     -48.729  11.711  22.902  0.00  0.00     0.302 C 
ATOM     21  O   UNL d   1     -48.605  11.610  23.696  0.00  0.00    -0.259 OA
BRANCH  20  22
ATOM     22  O   UNL d   1     -48.385  11.173  22.380  0.00  0.00    -0.271 OA
BRANCH  22  23
ATOM     23  C   UNL d   1     -47.839  10.398  22.589  0.00  0.00     0.126 C 
ATOM     24  C   UNL d   1     -47.470  10.068  21.935  0.00  0.00     0.029 C 
ENDBRANCH  22  23
ENDBRANCH  20  22
ENDBRANCH   2  20
BRANCH   1  25
ATOM     25  C   UNL d   1     -49.113  14.561  22.293  0.00  0.00     0.302 C 
ATOM     26  O   UNL d   1     -48.735  14.843  21.642  0.00  0.00    -0.259 OA
BRANCH  25  27
ATOM     27  O   UNL d   1     -49.256  15.043  22.958  0.00  0.00    -0.271 OA
BRANCH  27  28
ATOM     28  C   UNL d   1     -49.572  15.810  22.902  0.00  0.00     0.126 C 
ATOM     29  C   UNL d   1     -49.901  15.922  23.691  0.00  0.00     0.029 C 
ENDBRANCH  27  28
ENDBRANCH  25  27
ENDBRANCH   1  25
TORSDOF 8
ENDMDL
