MODEL 1
REMARK VINA RESULT:      -4.3      0.000      0.000
REMARK  3 active torsions:
REMARK  status: ('A' for Active; 'I' for Inactive)
REMARK    1  A    between atoms: N_2  and  S_1 
REMARK    2  A    between atoms: C_3  and  S_1 
REMARK    3  A    between atoms: O_16  and  C_9 
ROOT
ATOM      1  S   UNL d   1     -41.765-122.565 -50.919  0.00  0.00     0.274 S 
ATOM      2  O   UNL d   1     -41.170-123.136 -50.950  0.00  0.00    -0.199 OA
ATOM      3  O   UNL d   1     -42.361-121.990 -50.895  0.00  0.00    -0.199 OA
ENDROOT
BRANCH   1   4
ATOM      4  N   UNL d   1     -41.532-122.281 -51.663  0.00  0.00    -0.214 N 
ATOM      5  C   UNL d   1     -41.309-121.507 -51.838  0.00  0.00     0.157 A 
ATOM      6  N   UNL d   1     -41.123-121.473 -52.641  0.00  0.00    -0.226 NA
ATOM      7  C   UNL d   1     -41.275-120.875 -51.309  0.00  0.00     0.041 C 
ATOM      8  C   UNL d   1     -41.232-122.226 -52.962  0.00  0.00     0.100 A 
ATOM      9  C   UNL d   1     -41.483-122.721 -52.361  0.00  0.00     0.094 A 
ATOM     10  C   UNL d   1     -41.131-122.516 -53.728  0.00  0.00     0.021 A 
ATOM     11  C   UNL d   1     -41.638-123.518 -52.521  0.00  0.00     0.020 A 
ATOM     12  C   UNL d   1     -41.541-123.817 -53.281  0.00  0.00     0.002 A 
ATOM     13  C   UNL d   1     -41.286-123.313 -53.888  0.00  0.00     0.002 A 
ENDBRANCH   1   4
BRANCH   1  14
ATOM     14  C   UNL d   1     -41.997-122.848 -50.178  0.00  0.00     0.126 A 
ATOM     15  C   UNL d   1     -41.442-123.188 -49.673  0.00  0.00     0.015 A 
ATOM     16  C   UNL d   1     -41.674-123.471 -48.932  0.00  0.00     0.001 A 
ATOM     17  C   UNL d   1     -41.123-123.805 -48.437  0.00  0.00     0.000 C 
ATOM     18  C   UNL d   1     -42.467-123.411 -48.700  0.00  0.00     0.002 A 
ATOM     19  C   UNL d   1     -43.022-123.072 -49.204  0.00  0.00     0.025 A 
ATOM     20  C   UNL d   1     -42.693-123.691 -47.969  0.00  0.00     0.000 C 
ATOM     21  C   UNL d   1     -42.787-122.790 -49.944  0.00  0.00     0.106 A 
BRANCH  21  22
ATOM     22  O   UNL d   1     -43.338-122.452 -50.448  0.00  0.00    -0.327 OA
ATOM     23  C   UNL d   1     -44.123-122.426 -50.233  0.00  0.00     0.181 C 
ENDBRANCH  21  22
ENDBRANCH   1  14
TORSDOF 3
ENDMDL
