MODEL 1
REMARK VINA RESULT:       2.8      0.000      0.000
REMARK  9 active torsions:
REMARK  status: ('A' for Active; 'I' for Inactive)
REMARK    1  A    between atoms: C_22  and  N_1 
REMARK    2  A    between atoms: S_10  and  C_2 
REMARK    3  A    between atoms: N_8  and  C_9 
REMARK    4  A    between atoms: C_24  and  S_10 
REMARK    5  A    between atoms: C_11  and  C_24 
REMARK       I    between atoms: N_15  and  C_11 
REMARK    6  A    between atoms: C_13  and  C_25 
REMARK    7  A    between atoms: C_25  and  N_15 
REMARK    8  A    between atoms: C_30  and  C_22 
REMARK    9  A    between atoms: C_31  and  C_30 
ROOT
ATOM      1  N   UNL d   1     -41.275-121.750 -51.642  0.00  0.00    -0.253 N 
ATOM      2  C   UNL d   1     -41.277-122.492 -52.002  0.00  0.00     0.182 A 
ATOM      3  C   UNL d   1     -41.416-121.688 -50.826  0.00  0.00     0.268 A 
ATOM      4  C   UNL d   1     -41.557-122.364 -50.377  0.00  0.00     0.076 A 
ATOM      5  N   UNL d   1     -41.419-123.172 -51.547  0.00  0.00    -0.222 NA
ATOM      6  C   UNL d   1     -41.558-123.106 -50.737  0.00  0.00     0.088 A 
ATOM      7  C   UNL d   1     -41.696-122.298 -49.569  0.00  0.00     0.024 A 
ATOM      8  C   UNL d   1     -41.836-122.974 -49.120  0.00  0.00     0.065 A 
ATOM      9  O   UNL d   1     -41.414-120.946 -50.465  0.00  0.00    -0.267 OA
ATOM     10  C   UNL d   1     -41.699-123.782 -50.290  0.00  0.00     0.021 A 
ATOM     11  C   UNL d   1     -41.838-123.716 -49.480  0.00  0.00     0.019 A 
ENDROOT
BRANCH   2  12
ATOM     12  S   UNL d   1     -41.137-122.561 -52.816  0.00  0.00    -0.044 SA
BRANCH  12  13
ATOM     13  C   UNL d   1     -41.218-123.300 -53.194  0.00  0.00     0.101 C 
BRANCH  13  14
ATOM     14  C   UNL d   1     -41.500-123.335 -53.972  0.00  0.00     0.286 C 
ATOM     15  N   UNL d   1     -41.123-122.894 -54.565  0.00  0.00    -0.204 NA
ATOM     16  O   UNL d   1     -42.151-123.809 -54.150  0.00  0.00    -0.265 OA
BRANCH  15  17
ATOM     17  C   UNL d   1     -41.408-122.930 -55.348  0.00  0.00     0.127 C 
BRANCH  17  18
ATOM     18  C   UNL d   1     -41.710-122.244 -55.706  0.00  0.00     0.119 A 
ATOM     19  O   UNL d   1     -41.348-121.627 -56.105  0.00  0.00    -0.304 OA
ATOM     20  C   UNL d   1     -41.933-121.094 -56.341  0.00  0.00     0.123 A 
ATOM     21  C   UNL d   1     -42.662-121.379 -56.088  0.00  0.00     0.029 A 
ATOM     22  C   UNL d   1     -42.521-122.094 -55.693  0.00  0.00     0.028 A 
ENDBRANCH  17  18
ENDBRANCH  15  17
ENDBRANCH  13  14
ENDBRANCH  12  13
ENDBRANCH   2  12
BRANCH   1  23
ATOM     23  C   UNL d   1     -41.133-121.073 -52.093  0.00  0.00     0.085 C 
BRANCH  23  24
ATOM     24  C   UNL d   1     -41.451-120.348 -51.859  0.00  0.00     0.019 C 
BRANCH  24  25
ATOM     25  C   UNL d   1     -41.424-119.699 -52.377  0.00  0.00     0.002 C 
ATOM     26  C   UNL d   1     -41.162-118.955 -52.097  0.00  0.00     0.000 C 
ENDBRANCH  24  25
ENDBRANCH  23  24
ENDBRANCH   1  23
BRANCH   8  27
ATOM     27  N   UNL d   1     -41.976-122.908 -48.312  0.00  0.00    -0.300 N 
ATOM     28  C   UNL d   1     -41.370-123.089 -47.768  0.00  0.00     0.107 A 
ATOM     29  C   UNL d   1     -41.510-123.023 -46.959  0.00  0.00     0.142 A 
ATOM     30  O   UNL d   1     -42.255-122.776 -46.678  0.00  0.00    -0.300 OA
ATOM     31  C   UNL d   1     -42.861-122.595 -47.223  0.00  0.00     0.142 A 
ATOM     32  C   UNL d   1     -42.716-122.663 -48.038  0.00  0.00     0.107 A 
ENDBRANCH   8  27
TORSDOF 9
ENDMDL
