MODEL 1
REMARK VINA RESULT:       5.7      0.000      0.000
REMARK  2 active torsions:
REMARK  status: ('A' for Active; 'I' for Inactive)
REMARK    1  A    between atoms: C_10  and  C_5 
REMARK    2  A    between atoms: O_22  and  C_15 
ROOT
ATOM      1  C   UNL d   1     -41.250-120.907 -51.671  0.00  0.00     0.120 A 
ATOM      2  C   UNL d   1     -41.355-121.237 -52.420  0.00  0.00     0.058 A 
ATOM      3  N   UNL d   1     -41.150-120.095 -51.768  0.00  0.00    -0.195 NA
ATOM      4  S   UNL d   1     -41.258-121.383 -51.005  0.00  0.00    -0.072 SA
ATOM      5  C   UNL d   1     -41.469-122.042 -52.499  0.00  0.00     0.005 A 
ATOM      6  C   UNL d   1     -41.372-122.190 -51.084  0.00  0.00     0.009 A 
ATOM      7  C   UNL d   1     -41.478-122.523 -51.833  0.00  0.00    -0.015 A 
ATOM      8  C   UNL d   1     -41.193-119.920 -52.577  0.00  0.00     0.311 A 
ATOM      9  S   UNL d   1     -41.321-120.636 -52.979  0.00  0.00    -0.024 SA
ATOM     10  C   UNL d   1     -41.592-123.337 -51.911  0.00  0.00     0.045 A 
ATOM     11  C   UNL d   1     -41.380-122.670 -50.415  0.00  0.00     0.050 A 
ATOM     12  C   UNL d   1     -41.460-122.766 -51.228  0.00  0.00     0.018 A 
ATOM     13  O   UNL d   1     -41.123-119.173 -52.928  0.00  0.00    -0.258 OA
ATOM     14  C   UNL d   1     -41.601-123.817 -51.241  0.00  0.00    -0.026 A 
ATOM     15  C   UNL d   1     -41.495-123.484 -50.492  0.00  0.00    -0.026 A 
ENDROOT
BRANCH   5  16
ATOM     16  C   UNL d   1     -41.573-122.371 -53.240  0.00  0.00     0.002 A 
ATOM     17  C   UNL d   1     -42.118-122.050 -53.759  0.00  0.00     0.028 A 
ATOM     18  C   UNL d   1     -42.225-122.379 -54.504  0.00  0.00     0.133 A 
ATOM     19  C   UNL d   1     -41.780-123.039 -54.734  0.00  0.00     0.218 A 
ATOM     20  C   UNL d   1     -41.227-123.364 -54.207  0.00  0.00     0.044 A 
ATOM     21  O   UNL d   1     -41.884-123.373 -55.481  0.00  0.00    -0.284 OA
ATOM     22  C   UNL d   1     -41.123-123.033 -53.463  0.00  0.00     0.003 A 
BRANCH  18  23
ATOM     23  O   UNL d   1     -42.776-122.054 -55.027  0.00  0.00    -0.325 OA
ATOM     24  C   UNL d   1     -42.535-121.792 -55.773  0.00  0.00     0.181 C 
ENDBRANCH  18  23
ENDBRANCH   5  16
TORSDOF 2
ENDMDL
MODEL 2
REMARK VINA RESULT:       6.6      2.023      3.610
REMARK  2 active torsions:
REMARK  status: ('A' for Active; 'I' for Inactive)
REMARK    1  A    between atoms: C_10  and  C_5 
REMARK    2  A    between atoms: O_22  and  C_15 
ROOT
ATOM      1  C   UNL d   1     -41.524-121.879 -53.277  0.00  0.00     0.120 A 
ATOM      2  C   UNL d   1     -41.653-122.333 -52.600  0.00  0.00     0.058 A 
ATOM      3  N   UNL d   1     -41.595-122.377 -53.929  0.00  0.00    -0.195 NA
ATOM      4  S   UNL d   1     -41.360-121.079 -53.212  0.00  0.00    -0.072 SA
ATOM      5  C   UNL d   1     -41.617-121.985 -51.862  0.00  0.00     0.005 A 
ATOM      6  C   UNL d   1     -41.324-120.731 -52.472  0.00  0.00     0.009 A 
ATOM      7  C   UNL d   1     -41.453-121.183 -51.792  0.00  0.00    -0.015 A 
ATOM      8  C   UNL d   1     -41.768-123.140 -53.658  0.00  0.00     0.311 A 
ATOM      9  S   UNL d   1     -41.803-123.108 -52.828  0.00  0.00    -0.024 SA
ATOM     10  C   UNL d   1     -41.417-120.829 -51.047  0.00  0.00     0.045 A 
ATOM     11  C   UNL d   1     -41.160-119.926 -52.406  0.00  0.00     0.050 A 
ATOM     12  C   UNL d   1     -41.316-120.554 -51.898  0.00  0.00     0.018 A 
ATOM     13  O   UNL d   1     -41.886-123.817 -54.121  0.00  0.00    -0.258 OA
ATOM     14  C   UNL d   1     -41.252-120.025 -50.981  0.00  0.00    -0.026 A 
ATOM     15  C   UNL d   1     -41.123-119.572 -51.661  0.00  0.00    -0.026 A 
ENDROOT
BRANCH   5  16
ATOM     16  C   UNL d   1     -41.745-122.433 -51.190  0.00  0.00     0.002 A 
ATOM     17  C   UNL d   1     -42.472-122.416 -50.816  0.00  0.00     0.028 A 
ATOM     18  C   UNL d   1     -42.602-122.865 -50.140  0.00  0.00     0.133 A 
ATOM     19  C   UNL d   1     -41.996-123.340 -49.835  0.00  0.00     0.218 A 
ATOM     20  C   UNL d   1     -41.258-123.358 -50.216  0.00  0.00     0.044 A 
ATOM     21  O   UNL d   1     -42.122-123.793 -49.157  0.00  0.00    -0.284 OA
ATOM     22  C   UNL d   1     -41.131-122.907 -50.890  0.00  0.00     0.003 A 
BRANCH  18  23
ATOM     23  O   UNL d   1     -43.337-122.846 -49.764  0.00  0.00    -0.325 OA
ATOM     24  C   UNL d   1     -43.804-123.526 -49.732  0.00  0.00     0.181 C 
ENDBRANCH  18  23
ENDBRANCH   5  16
TORSDOF 2
ENDMDL
MODEL 3
REMARK VINA RESULT:       8.5      1.539      2.464
REMARK  2 active torsions:
REMARK  status: ('A' for Active; 'I' for Inactive)
REMARK    1  A    between atoms: C_10  and  C_5 
REMARK    2  A    between atoms: O_22  and  C_15 
ROOT
ATOM      1  C   UNL d   1     -41.853-121.882 -50.349  0.00  0.00     0.120 A 
ATOM      2  C   UNL d   1     -41.852-122.336 -51.038  0.00  0.00     0.058 A 
ATOM      3  N   UNL d   1     -42.055-122.379 -49.724  0.00  0.00    -0.195 NA
ATOM      4  S   UNL d   1     -41.673-121.084 -50.380  0.00  0.00    -0.072 SA
ATOM      5  C   UNL d   1     -41.670-121.989 -51.755  0.00  0.00     0.005 A 
ATOM      6  C   UNL d   1     -41.491-120.737 -51.098  0.00  0.00     0.009 A 
ATOM      7  C   UNL d   1     -41.488-121.188 -51.790  0.00  0.00    -0.015 A 
ATOM      8  C   UNL d   1     -42.178-123.142 -50.024  0.00  0.00     0.311 A 
ATOM      9  S   UNL d   1     -42.050-123.110 -50.845  0.00  0.00    -0.024 SA
ATOM     10  C   UNL d   1     -41.304-120.836 -52.514  0.00  0.00     0.045 A 
ATOM     11  C   UNL d   1     -41.310-119.933 -51.130  0.00  0.00     0.050 A 
ATOM     12  C   UNL d   1     -41.370-120.561 -51.659  0.00  0.00     0.018 A 
ATOM     13  O   UNL d   1     -42.390-123.817 -49.593  0.00  0.00    -0.258 OA
ATOM     14  C   UNL d   1     -41.123-120.032 -52.545  0.00  0.00    -0.026 A 
ATOM     15  C   UNL d   1     -41.125-119.580 -51.853  0.00  0.00    -0.026 A 
ENDROOT
BRANCH   5  16
ATOM     16  C   UNL d   1     -41.667-122.437 -52.439  0.00  0.00     0.002 A 
ATOM     17  C   UNL d   1     -42.173-122.250 -53.054  0.00  0.00     0.028 A 
ATOM     18  C   UNL d   1     -42.173-122.699 -53.743  0.00  0.00     0.133 A 
ATOM     19  C   UNL d   1     -41.658-123.344 -53.818  0.00  0.00     0.218 A 
ATOM     20  C   UNL d   1     -41.145-123.532 -53.192  0.00  0.00     0.044 A 
ATOM     21  O   UNL d   1     -41.654-123.797 -54.507  0.00  0.00    -0.284 OA
ATOM     22  C   UNL d   1     -41.148-123.082 -52.506  0.00  0.00     0.003 A 
BRANCH  18  23
ATOM     23  O   UNL d   1     -42.684-122.509 -54.363  0.00  0.00    -0.325 OA
ATOM     24  C   UNL d   1     -42.385-122.202 -55.069  0.00  0.00     0.181 C 
ENDBRANCH  18  23
ENDBRANCH   5  16
TORSDOF 2
ENDMDL
