MODEL 1
REMARK VINA RESULT:     -11.0      0.000      0.000
REMARK  2 active torsions:
REMARK  status: ('A' for Active; 'I' for Inactive)
REMARK    1  A    between atoms: N_5  and  C_1 
REMARK    2  A    between atoms: C_8  and  C_4 
ROOT
ATOM      1  C   UNL d   1      53.108  32.503  53.566  0.00  0.00     0.166 A 
ATOM      2  N   UNL d   1      52.663  31.942  53.190  0.00  0.00    -0.225 NA
ATOM      3  N   UNL d   1      53.946  31.450  54.037  0.00  0.00    -0.241 NA
ATOM      4  C   UNL d   1      53.761  32.252  53.997  0.00  0.00     0.116 A 
ATOM      5  C   UNL d   1      52.822  31.147  53.212  0.00  0.00     0.101 A 
ATOM      6  C   UNL d   1      53.475  30.897  53.644  0.00  0.00     0.099 A 
ATOM      7  C   UNL d   1      52.377  30.585  52.836  0.00  0.00     0.021 A 
ATOM      8  C   UNL d   1      53.659  30.093  53.684  0.00  0.00     0.021 A 
ATOM      9  C   UNL d   1      53.195  29.568  53.298  0.00  0.00     0.002 A 
ATOM     10  C   UNL d   1      52.541  29.819  52.866  0.00  0.00     0.002 A 
ENDROOT
BRANCH   1  11
ATOM     11  N   UNL d   1      52.949  33.295  53.542  0.00  0.00    -0.284 N 
ATOM     12  C   UNL d   1      52.444  33.607  54.120  0.00  0.00     0.108 A 
ATOM     13  C   UNL d   1      52.274  34.428  54.102  0.00  0.00     0.142 A 
ATOM     14  O   UNL d   1      52.608  34.899  53.519  0.00  0.00    -0.300 OA
ATOM     15  C   UNL d   1      53.105  34.574  52.956  0.00  0.00     0.142 A 
ATOM     16  C   UNL d   1      53.289  33.769  52.950  0.00  0.00     0.108 A 
ENDBRANCH   1  11
BRANCH   4  17
ATOM     17  C   UNL d   1      54.231  32.803  54.390  0.00  0.00     0.021 A 
ATOM     18  C   UNL d   1      54.067  33.002  55.174  0.00  0.00     0.002 A 
ATOM     19  C   UNL d   1      54.538  33.554  55.569  0.00  0.00     0.000 A 
ATOM     20  C   UNL d   1      55.173  33.907  55.179  0.00  0.00     0.000 A 
ATOM     21  C   UNL d   1      55.338  33.708  54.394  0.00  0.00     0.000 A 
ATOM     22  C   UNL d   1      54.867  33.156  54.000  0.00  0.00     0.002 A 
ENDBRANCH   4  17
TORSDOF 2
ENDMDL
MODEL 2
REMARK VINA RESULT:     -10.5      0.835      2.010
REMARK  2 active torsions:
REMARK  status: ('A' for Active; 'I' for Inactive)
REMARK    1  A    between atoms: N_5  and  C_1 
REMARK    2  A    between atoms: C_8  and  C_4 
ROOT
ATOM      1  C   UNL d   1      53.864  32.345  54.086  0.00  0.00     0.166 A 
ATOM      2  N   UNL d   1      54.008  31.549  54.069  0.00  0.00    -0.225 NA
ATOM      3  N   UNL d   1      52.720  32.104  53.270  0.00  0.00    -0.241 NA
ATOM      4  C   UNL d   1      53.208  32.628  53.679  0.00  0.00     0.116 A 
ATOM      5  C   UNL d   1      53.544  31.013  53.676  0.00  0.00     0.101 A 
ATOM      6  C   UNL d   1      52.888  31.296  53.269  0.00  0.00     0.099 A 
ATOM      7  C   UNL d   1      53.687  30.216  53.660  0.00  0.00     0.021 A 
ATOM      8  C   UNL d   1      52.400  30.771  52.861  0.00  0.00     0.021 A 
ATOM      9  C   UNL d   1      52.575  29.990  52.868  0.00  0.00     0.002 A 
ATOM     10  C   UNL d   1      53.231  29.708  53.275  0.00  0.00     0.002 A 
ENDROOT
BRANCH   1  11
ATOM     11  N   UNL d   1      54.327  32.879  54.478  0.00  0.00    -0.284 N 
ATOM     12  C   UNL d   1      54.164  33.020  55.278  0.00  0.00     0.108 A 
ATOM     13  C   UNL d   1      54.641  33.573  55.691  0.00  0.00     0.142 A 
ATOM     14  O   UNL d   1      55.250  33.957  55.299  0.00  0.00    -0.300 OA
ATOM     15  C   UNL d   1      55.397  33.806  54.509  0.00  0.00     0.142 A 
ATOM     16  C   UNL d   1      54.944  33.266  54.077  0.00  0.00     0.108 A 
ENDBRANCH   1  11
BRANCH   4  17
ATOM     17  C   UNL d   1      53.039  33.434  53.679  0.00  0.00     0.021 A 
ATOM     18  C   UNL d   1      52.579  33.759  54.281  0.00  0.00     0.002 A 
ATOM     19  C   UNL d   1      52.408  34.567  54.283  0.00  0.00     0.000 A 
ATOM     20  C   UNL d   1      52.699  35.050  53.680  0.00  0.00     0.000 A 
ATOM     21  C   UNL d   1      53.160  34.725  53.076  0.00  0.00     0.000 A 
ATOM     22  C   UNL d   1      53.330  33.917  53.076  0.00  0.00     0.002 A 
ENDBRANCH   4  17
TORSDOF 2
ENDMDL
MODEL 3
REMARK VINA RESULT:      -8.7      1.486      2.907
REMARK  2 active torsions:
REMARK  status: ('A' for Active; 'I' for Inactive)
REMARK    1  A    between atoms: N_5  and  C_1 
REMARK    2  A    between atoms: C_8  and  C_4 
ROOT
ATOM      1  C   UNL d   1      52.650  32.650  53.446  0.00  0.00     0.166 A 
ATOM      2  N   UNL d   1      51.936  32.684  53.067  0.00  0.00    -0.225 NA
ATOM      3  N   UNL d   1      52.498  34.034  53.751  0.00  0.00    -0.241 NA
ATOM      4  C   UNL d   1      52.936  33.337  53.794  0.00  0.00     0.116 A 
ATOM      5  C   UNL d   1      51.486  33.356  53.010  0.00  0.00     0.101 A 
ATOM      6  C   UNL d   1      51.772  34.043  53.358  0.00  0.00     0.099 A 
ATOM      7  C   UNL d   1      50.771  33.391  52.630  0.00  0.00     0.021 A 
ATOM      8  C   UNL d   1      51.333  34.741  53.315  0.00  0.00     0.021 A 
ATOM      9  C   UNL d   1      50.631  34.735  52.931  0.00  0.00     0.002 A 
ATOM     10  C   UNL d   1      50.345  34.048  52.582  0.00  0.00     0.002 A 
ENDROOT
BRANCH   1  11
ATOM     11  N   UNL d   1      53.098  31.980  53.502  0.00  0.00    -0.284 N 
ATOM     12  C   UNL d   1      52.949  31.464  54.133  0.00  0.00     0.108 A 
ATOM     13  C   UNL d   1      53.411  30.766  54.198  0.00  0.00     0.142 A 
ATOM     14  O   UNL d   1      53.993  30.613  53.641  0.00  0.00    -0.300 OA
ATOM     15  C   UNL d   1      54.128  31.132  53.024  0.00  0.00     0.142 A 
ATOM     16  C   UNL d   1      53.688  31.827  52.936  0.00  0.00     0.108 A 
ENDBRANCH   1  11
BRANCH   4  17
ATOM     17  C   UNL d   1      53.660  33.329  54.186  0.00  0.00     0.021 A 
ATOM     18  C   UNL d   1      53.689  33.179  54.997  0.00  0.00     0.002 A 
ATOM     19  C   UNL d   1      54.415  33.171  55.392  0.00  0.00     0.000 A 
ATOM     20  C   UNL d   1      55.112  33.313  54.974  0.00  0.00     0.000 A 
ATOM     21  C   UNL d   1      55.084  33.464  54.162  0.00  0.00     0.000 A 
ATOM     22  C   UNL d   1      54.358  33.471  53.769  0.00  0.00     0.002 A 
ENDBRANCH   4  17
TORSDOF 2
ENDMDL
MODEL 4
REMARK VINA RESULT:      -8.7      1.345      3.136
REMARK  2 active torsions:
REMARK  status: ('A' for Active; 'I' for Inactive)
REMARK    1  A    between atoms: N_5  and  C_1 
REMARK    2  A    between atoms: C_8  and  C_4 
ROOT
ATOM      1  C   UNL d   1      52.922  33.236  53.650  0.00  0.00     0.166 A 
ATOM      2  N   UNL d   1      52.518  33.933  53.582  0.00  0.00    -0.225 NA
ATOM      3  N   UNL d   1      51.785  32.582  53.090  0.00  0.00    -0.241 NA
ATOM      4  C   UNL d   1      52.549  32.548  53.399  0.00  0.00     0.116 A 
ATOM      5  C   UNL d   1      51.767  33.995  53.282  0.00  0.00     0.101 A 
ATOM      6  C   UNL d   1      51.394  33.307  53.032  0.00  0.00     0.099 A 
ATOM      7  C   UNL d   1      51.362  34.693  53.214  0.00  0.00     0.021 A 
ATOM      8  C   UNL d   1      50.630  33.342  52.723  0.00  0.00     0.021 A 
ATOM      9  C   UNL d   1      50.263  34.051  52.672  0.00  0.00     0.002 A 
ATOM     10  C   UNL d   1      50.636  34.740  52.922  0.00  0.00     0.002 A 
ENDROOT
BRANCH   1  11
ATOM     11  N   UNL d   1      53.670  33.175  53.949  0.00  0.00    -0.284 N 
ATOM     12  C   UNL d   1      53.757  33.124  54.771  0.00  0.00     0.108 A 
ATOM     13  C   UNL d   1      54.531  33.060  55.088  0.00  0.00     0.142 A 
ATOM     14  O   UNL d   1      55.177  33.052  54.583  0.00  0.00    -0.300 OA
ATOM     15  C   UNL d   1      55.074  33.104  53.773  0.00  0.00     0.142 A 
ATOM     16  C   UNL d   1      54.323  33.167  53.434  0.00  0.00     0.108 A 
ENDBRANCH   1  11
BRANCH   4  17
ATOM     17  C   UNL d   1      52.937  31.824  53.457  0.00  0.00     0.021 A 
ATOM     18  C   UNL d   1      52.896  31.387  54.156  0.00  0.00     0.002 A 
ATOM     19  C   UNL d   1      53.285  30.661  54.215  0.00  0.00     0.000 A 
ATOM     20  C   UNL d   1      53.716  30.372  53.574  0.00  0.00     0.000 A 
ATOM     21  C   UNL d   1      53.758  30.809  52.873  0.00  0.00     0.000 A 
ATOM     22  C   UNL d   1      53.368  31.535  52.816  0.00  0.00     0.002 A 
ENDBRANCH   4  17
TORSDOF 2
ENDMDL
