MODEL 1
REMARK VINA RESULT:      -8.8      0.000      0.000
REMARK  4 active torsions:
REMARK  status: ('A' for Active; 'I' for Inactive)
REMARK    1  A    between atoms: C_6  and  C_1 
REMARK       I    between atoms: N_8  and  C_6 
REMARK    2  A    between atoms: C_17  and  N_8 
REMARK    3  A    between atoms: C_9  and  C_17 
REMARK    4  A    between atoms: O_18  and  C_12 
ROOT
ATOM      1  C   UNL d   1     -47.116  12.701  23.012  0.00  0.00     0.121 A 
ATOM      2  C   UNL d   1     -47.328  12.982  22.277  0.00  0.00     0.305 A 
ATOM      3  O   UNL d   1     -48.105  12.892  22.001  0.00  0.00    -0.271 OA
ATOM      4  C   UNL d   1     -47.671  12.323  23.493  0.00  0.00     0.012 A 
ATOM      5  C   UNL d   1     -48.660  12.514  22.482  0.00  0.00     0.125 A 
ATOM      6  C   UNL d   1     -48.448  12.233  23.217  0.00  0.00     0.025 A 
ATOM      7  O   UNL d   1     -46.765  13.362  21.795  0.00  0.00    -0.259 OA
ATOM      8  C   UNL d   1     -49.426  12.424  22.212  0.00  0.00     0.117 A 
ATOM      9  C   UNL d   1     -48.998  11.857  23.698  0.00  0.00     0.002 A 
ATOM     10  C   UNL d   1     -49.780  11.760  23.434  0.00  0.00     0.002 A 
ATOM     11  C   UNL d   1     -49.995  12.045  22.688  0.00  0.00     0.026 A 
ENDROOT
BRANCH   1  12
ATOM     12  C   UNL d   1     -46.341  12.800  23.269  0.00  0.00     0.284 C 
ATOM     13  N   UNL d   1     -45.699  12.311  23.439  0.00  0.00    -0.204 NA
ATOM     14  O   UNL d   1     -46.047  13.563  23.419  0.00  0.00    -0.265 OA
BRANCH  13  15
ATOM     15  C   UNL d   1     -45.781  11.494  23.353  0.00  0.00     0.127 C 
BRANCH  15  16
ATOM     16  C   UNL d   1     -45.125  10.993  23.437  0.00  0.00     0.119 A 
ATOM     17  O   UNL d   1     -44.343  11.188  23.276  0.00  0.00    -0.304 OA
ATOM     18  C   UNL d   1     -43.892  10.528  23.437  0.00  0.00     0.123 A 
ATOM     19  C   UNL d   1     -44.401   9.926  23.698  0.00  0.00     0.029 A 
ATOM     20  C   UNL d   1     -45.160  10.212  23.697  0.00  0.00     0.028 A 
ENDBRANCH  15  16
ENDBRANCH  13  15
ENDBRANCH   1  12
BRANCH   8  21
ATOM     21  O   UNL d   1     -49.639  12.706  21.473  0.00  0.00    -0.326 OA
ATOM     22  C   UNL d   1     -50.381  13.031  21.349  0.00  0.00     0.181 C 
ENDBRANCH   8  21
TORSDOF 4
ENDMDL
MODEL 2
REMARK VINA RESULT:      -7.5      1.801      2.225
REMARK  4 active torsions:
REMARK  status: ('A' for Active; 'I' for Inactive)
REMARK    1  A    between atoms: C_6  and  C_1 
REMARK       I    between atoms: N_8  and  C_6 
REMARK    2  A    between atoms: C_17  and  N_8 
REMARK    3  A    between atoms: C_9  and  C_17 
REMARK    4  A    between atoms: O_18  and  C_12 
ROOT
ATOM      1  C   UNL d   1     -46.756  12.922  22.859  0.00  0.00     0.121 A 
ATOM      2  C   UNL d   1     -46.834  13.668  23.178  0.00  0.00     0.305 A 
ATOM      3  O   UNL d   1     -47.491  14.139  22.990  0.00  0.00    -0.271 OA
ATOM      4  C   UNL d   1     -47.329  12.624  22.343  0.00  0.00     0.012 A 
ATOM      5  C   UNL d   1     -48.063  13.841  22.475  0.00  0.00     0.125 A 
ATOM      6  C   UNL d   1     -47.986  13.096  22.155  0.00  0.00     0.025 A 
ATOM      7  O   UNL d   1     -46.255  13.964  23.698  0.00  0.00    -0.259 OA
ATOM      8  C   UNL d   1     -48.711  14.304  22.288  0.00  0.00     0.117 A 
ATOM      9  C   UNL d   1     -48.554  12.798  21.642  0.00  0.00     0.002 A 
ATOM     10  C   UNL d   1     -49.216  13.259  21.445  0.00  0.00     0.002 A 
ATOM     11  C   UNL d   1     -49.295  14.016  21.770  0.00  0.00     0.026 A 
ENDROOT
BRANCH   1  12
ATOM     12  C   UNL d   1     -46.099  12.470  23.056  0.00  0.00     0.284 C 
ATOM     13  N   UNL d   1     -45.329  12.376  22.776  0.00  0.00    -0.204 NA
ATOM     14  O   UNL d   1     -46.137  11.940  23.697  0.00  0.00    -0.265 OA
BRANCH  13  15
ATOM     15  C   UNL d   1     -45.080  12.821  22.127  0.00  0.00     0.127 C 
BRANCH  15  16
ATOM     16  C   UNL d   1     -44.300  12.765  21.853  0.00  0.00     0.119 A 
ATOM     17  O   UNL d   1     -43.749  12.196  22.071  0.00  0.00    -0.304 OA
ATOM     18  C   UNL d   1     -43.060  12.358  21.665  0.00  0.00     0.123 A 
ATOM     19  C   UNL d   1     -43.191  13.030  21.195  0.00  0.00     0.029 A 
ATOM     20  C   UNL d   1     -43.954  13.280  21.310  0.00  0.00     0.028 A 
ENDBRANCH  15  16
ENDBRANCH  13  15
ENDBRANCH   1  12
BRANCH   8  21
ATOM     21  O   UNL d   1     -48.789  15.054  22.610  0.00  0.00    -0.326 OA
ATOM     22  C   UNL d   1     -49.497  15.461  22.548  0.00  0.00     0.181 C 
ENDBRANCH   8  21
TORSDOF 4
ENDMDL
MODEL 3
REMARK VINA RESULT:      -7.3      1.492      1.703
REMARK  4 active torsions:
REMARK  status: ('A' for Active; 'I' for Inactive)
REMARK    1  A    between atoms: C_6  and  C_1 
REMARK       I    between atoms: N_8  and  C_6 
REMARK    2  A    between atoms: C_17  and  N_8 
REMARK    3  A    between atoms: C_9  and  C_17 
REMARK    4  A    between atoms: O_18  and  C_12 
ROOT
ATOM      1  C   UNL d   1     -47.031  13.552  22.951  0.00  0.00     0.121 A 
ATOM      2  C   UNL d   1     -47.642  13.915  22.554  0.00  0.00     0.305 A 
ATOM      3  O   UNL d   1     -48.395  13.566  22.530  0.00  0.00    -0.271 OA
ATOM      4  C   UNL d   1     -47.150  12.831  23.336  0.00  0.00     0.012 A 
ATOM      5  C   UNL d   1     -48.514  12.845  22.915  0.00  0.00     0.125 A 
ATOM      6  C   UNL d   1     -47.903  12.481  23.312  0.00  0.00     0.025 A 
ATOM      7  O   UNL d   1     -47.518  14.642  22.167  0.00  0.00    -0.259 OA
ATOM      8  C   UNL d   1     -49.254  12.499  22.893  0.00  0.00     0.117 A 
ATOM      9  C   UNL d   1     -48.019  11.764  23.696  0.00  0.00     0.002 A 
ATOM     10  C   UNL d   1     -48.767  11.403  23.680  0.00  0.00     0.002 A 
ATOM     11  C   UNL d   1     -49.388  11.772  23.277  0.00  0.00     0.026 A 
ENDROOT
BRANCH   1  12
ATOM     12  C   UNL d   1     -46.292  13.913  22.964  0.00  0.00     0.284 C 
ATOM     13  N   UNL d   1     -45.540  13.751  22.666  0.00  0.00    -0.204 NA
ATOM     14  O   UNL d   1     -46.191  14.637  23.362  0.00  0.00    -0.265 OA
BRANCH  13  15
ATOM     15  C   UNL d   1     -45.420  13.062  22.228  0.00  0.00     0.127 C 
BRANCH  15  16
ATOM     16  C   UNL d   1     -44.656  12.832  22.005  0.00  0.00     0.119 A 
ATOM     17  O   UNL d   1     -44.261  12.157  22.257  0.00  0.00    -0.304 OA
ATOM     18  C   UNL d   1     -43.528  12.158  21.898  0.00  0.00     0.123 A 
ATOM     19  C   UNL d   1     -43.475  12.837  21.423  0.00  0.00     0.029 A 
ATOM     20  C   UNL d   1     -44.169  13.251  21.490  0.00  0.00     0.028 A 
ENDBRANCH  15  16
ENDBRANCH  13  15
ENDBRANCH   1  12
BRANCH   8  21
ATOM     21  O   UNL d   1     -49.869  12.865  22.493  0.00  0.00    -0.326 OA
ATOM     22  C   UNL d   1     -50.619  12.536  22.493  0.00  0.00     0.181 C 
ENDBRANCH   8  21
TORSDOF 4
ENDMDL
MODEL 4
REMARK VINA RESULT:      -6.9      1.602      2.133
REMARK  4 active torsions:
REMARK  status: ('A' for Active; 'I' for Inactive)
REMARK    1  A    between atoms: C_6  and  C_1 
REMARK       I    between atoms: N_8  and  C_6 
REMARK    2  A    between atoms: C_17  and  N_8 
REMARK    3  A    between atoms: C_9  and  C_17 
REMARK    4  A    between atoms: O_18  and  C_12 
ROOT
ATOM      1  C   UNL d   1     -47.918  12.708  22.913  0.00  0.00     0.121 A 
ATOM      2  C   UNL d   1     -48.508  12.329  22.497  0.00  0.00     0.305 A 
ATOM      3  O   UNL d   1     -49.171  12.751  22.230  0.00  0.00    -0.271 OA
ATOM      4  C   UNL d   1     -47.970  13.516  23.074  0.00  0.00     0.012 A 
ATOM      5  C   UNL d   1     -49.223  13.559  22.391  0.00  0.00     0.125 A 
ATOM      6  C   UNL d   1     -48.633  13.938  22.806  0.00  0.00     0.025 A 
ATOM      7  O   UNL d   1     -48.452  11.514  22.337  0.00  0.00    -0.259 OA
ATOM      8  C   UNL d   1     -49.875  13.976  22.128  0.00  0.00     0.117 A 
ATOM      9  C   UNL d   1     -48.683  14.742  22.968  0.00  0.00     0.002 A 
ATOM     10  C   UNL d   1     -49.341  15.176  22.705  0.00  0.00     0.002 A 
ATOM     11  C   UNL d   1     -49.939  14.792  22.284  0.00  0.00     0.026 A 
ENDROOT
BRANCH   1  12
ATOM     12  C   UNL d   1     -47.269  12.273  23.170  0.00  0.00     0.284 C 
ATOM     13  N   UNL d   1     -46.454  12.282  23.046  0.00  0.00    -0.204 NA
ATOM     14  O   UNL d   1     -47.377  11.639  23.698  0.00  0.00    -0.265 OA
BRANCH  13  15
ATOM     15  C   UNL d   1     -46.130  12.850  22.541  0.00  0.00     0.127 C 
BRANCH  15  16
ATOM     16  C   UNL d   1     -45.342  12.790  22.291  0.00  0.00     0.119 A 
ATOM     17  O   UNL d   1     -44.803  12.215  22.521  0.00  0.00    -0.304 OA
ATOM     18  C   UNL d   1     -44.100  12.375  22.137  0.00  0.00     0.123 A 
ATOM     19  C   UNL d   1     -44.211  13.052  21.670  0.00  0.00     0.029 A 
ATOM     20  C   UNL d   1     -44.975  13.307  21.765  0.00  0.00     0.028 A 
ENDBRANCH  15  16
ENDBRANCH  13  15
ENDBRANCH   1  12
BRANCH   8  21
ATOM     21  O   UNL d   1     -50.468  13.596  21.710  0.00  0.00    -0.326 OA
ATOM     22  C   UNL d   1     -51.064  14.026  21.348  0.00  0.00     0.181 C 
ENDBRANCH   8  21
TORSDOF 4
ENDMDL
MODEL 5
REMARK VINA RESULT:      -6.8      1.510      4.385
REMARK  4 active torsions:
REMARK  status: ('A' for Active; 'I' for Inactive)
REMARK    1  A    between atoms: C_6  and  C_1 
REMARK       I    between atoms: N_8  and  C_6 
REMARK    2  A    between atoms: C_17  and  N_8 
REMARK    3  A    between atoms: C_9  and  C_17 
REMARK    4  A    between atoms: O_18  and  C_12 
ROOT
ATOM      1  C   UNL d   1     -47.507  13.671  23.036  0.00  0.00     0.121 A 
ATOM      2  C   UNL d   1     -46.795  13.889  22.705  0.00  0.00     0.305 A 
ATOM      3  O   UNL d   1     -46.155  13.361  22.699  0.00  0.00    -0.271 OA
ATOM      4  C   UNL d   1     -47.603  12.921  23.370  0.00  0.00     0.012 A 
ATOM      5  C   UNL d   1     -46.251  12.611  23.033  0.00  0.00     0.125 A 
ATOM      6  C   UNL d   1     -46.963  12.393  23.364  0.00  0.00     0.025 A 
ATOM      7  O   UNL d   1     -46.703  14.646  22.370  0.00  0.00    -0.259 OA
ATOM      8  C   UNL d   1     -45.622  12.090  23.028  0.00  0.00     0.117 A 
ATOM      9  C   UNL d   1     -47.061  11.648  23.696  0.00  0.00     0.002 A 
ATOM     10  C   UNL d   1     -46.428  11.109  23.697  0.00  0.00     0.002 A 
ATOM     11  C   UNL d   1     -45.706  11.331  23.361  0.00  0.00     0.026 A 
ENDROOT
BRANCH   1  12
ATOM     12  C   UNL d   1     -48.130  14.207  23.033  0.00  0.00     0.284 C 
ATOM     13  N   UNL d   1     -48.879  14.255  22.691  0.00  0.00    -0.204 NA
ATOM     14  O   UNL d   1     -48.069  14.916  23.465  0.00  0.00    -0.265 OA
BRANCH  13  15
ATOM     15  C   UNL d   1     -49.142  13.638  22.211  0.00  0.00     0.127 C 
BRANCH  15  16
ATOM     16  C   UNL d   1     -49.906  13.651  21.889  0.00  0.00     0.119 A 
ATOM     17  O   UNL d   1     -50.343  14.322  21.705  0.00  0.00    -0.304 OA
ATOM     18  C   UNL d   1     -51.058  14.070  21.403  0.00  0.00     0.123 A 
ATOM     19  C   UNL d   1     -51.058  13.239  21.402  0.00  0.00     0.029 A 
ATOM     20  C   UNL d   1     -50.349  12.982  21.701  0.00  0.00     0.028 A 
ENDBRANCH  15  16
ENDBRANCH  13  15
ENDBRANCH   1  12
BRANCH   8  21
ATOM     21  O   UNL d   1     -44.906  12.309  22.695  0.00  0.00    -0.326 OA
ATOM     22  C   UNL d   1     -44.279  11.783  22.673  0.00  0.00     0.181 C 
ENDBRANCH   8  21
TORSDOF 4
ENDMDL
MODEL 6
REMARK VINA RESULT:      -6.4      8.256     10.031
REMARK  4 active torsions:
REMARK  status: ('A' for Active; 'I' for Inactive)
REMARK    1  A    between atoms: C_6  and  C_1 
REMARK       I    between atoms: N_8  and  C_6 
REMARK    2  A    between atoms: C_17  and  N_8 
REMARK    3  A    between atoms: C_9  and  C_17 
REMARK    4  A    between atoms: O_18  and  C_12 
ROOT
ATOM      1  C   UNL d   1     -40.008  14.362  17.962  0.00  0.00     0.121 A 
ATOM      2  C   UNL d   1     -40.006  15.063  17.545  0.00  0.00     0.305 A 
ATOM      3  O   UNL d   1     -39.488  15.170  16.906  0.00  0.00    -0.271 OA
ATOM      4  C   UNL d   1     -39.494  13.750  17.756  0.00  0.00     0.012 A 
ATOM      5  C   UNL d   1     -38.974  14.557  16.700  0.00  0.00     0.125 A 
ATOM      6  C   UNL d   1     -38.976  13.857  17.116  0.00  0.00     0.025 A 
ATOM      7  O   UNL d   1     -40.526  15.678  17.756  0.00  0.00    -0.259 OA
ATOM      8  C   UNL d   1     -38.463  14.661  16.071  0.00  0.00     0.117 A 
ATOM      9  C   UNL d   1     -38.466  13.246  16.913  0.00  0.00     0.002 A 
ATOM     10  C   UNL d   1     -37.941  13.340  16.275  0.00  0.00     0.002 A 
ATOM     11  C   UNL d   1     -37.940  14.051  15.852  0.00  0.00     0.026 A 
ENDROOT
BRANCH   1  12
ATOM     12  C   UNL d   1     -40.529  14.274  18.592  0.00  0.00     0.284 C 
ATOM     13  N   UNL d   1     -40.496  14.352  19.412  0.00  0.00    -0.204 NA
ATOM     14  O   UNL d   1     -41.317  14.048  18.450  0.00  0.00    -0.265 OA
BRANCH  13  15
ATOM     15  C   UNL d   1     -39.785  14.575  19.768  0.00  0.00     0.127 C 
BRANCH  15  16
ATOM     16  C   UNL d   1     -39.743  14.695  20.587  0.00  0.00     0.119 A 
ATOM     17  O   UNL d   1     -40.051  15.335  21.000  0.00  0.00    -0.304 OA
ATOM     18  C   UNL d   1     -39.879  15.219  21.789  0.00  0.00     0.123 A 
ATOM     19  C   UNL d   1     -39.464  14.504  21.859  0.00  0.00     0.029 A 
ATOM     20  C   UNL d   1     -39.380  14.181  21.120  0.00  0.00     0.028 A 
ENDBRANCH  15  16
ENDBRANCH  13  15
ENDBRANCH   1  12
BRANCH   8  21
ATOM     21  O   UNL d   1     -38.461  15.365  15.652  0.00  0.00    -0.326 OA
ATOM     22  C   UNL d   1     -37.965  15.464  15.007  0.00  0.00     0.181 C 
ENDBRANCH   8  21
TORSDOF 4
ENDMDL
MODEL 7
REMARK VINA RESULT:      -6.2      8.058      9.744
REMARK  4 active torsions:
REMARK  status: ('A' for Active; 'I' for Inactive)
REMARK    1  A    between atoms: C_6  and  C_1 
REMARK       I    between atoms: N_8  and  C_6 
REMARK    2  A    between atoms: C_17  and  N_8 
REMARK    3  A    between atoms: C_9  and  C_17 
REMARK    4  A    between atoms: O_18  and  C_12 
ROOT
ATOM      1  C   UNL d   1     -40.318  14.920  18.380  0.00  0.00     0.121 A 
ATOM      2  C   UNL d   1     -40.596  14.237  18.727  0.00  0.00     0.305 A 
ATOM      3  O   UNL d   1     -40.486  14.104  19.539  0.00  0.00    -0.271 OA
ATOM      4  C   UNL d   1     -39.922  15.488  18.829  0.00  0.00     0.012 A 
ATOM      5  C   UNL d   1     -40.090  14.672  19.988  0.00  0.00     0.125 A 
ATOM      6  C   UNL d   1     -39.811  15.355  19.641  0.00  0.00     0.025 A 
ATOM      7  O   UNL d   1     -40.995  13.666  18.271  0.00  0.00    -0.259 OA
ATOM      8  C   UNL d   1     -39.980  14.543  20.788  0.00  0.00     0.117 A 
ATOM      9  C   UNL d   1     -39.417  15.922  20.086  0.00  0.00     0.002 A 
ATOM     10  C   UNL d   1     -39.300  15.801  20.900  0.00  0.00     0.002 A 
ATOM     11  C   UNL d   1     -39.582  15.109  21.252  0.00  0.00     0.026 A 
ENDROOT
BRANCH   1  12
ATOM     12  C   UNL d   1     -40.436  15.034  17.574  0.00  0.00     0.284 C 
ATOM     13  N   UNL d   1     -39.977  15.002  16.890  0.00  0.00    -0.204 NA
ATOM     14  O   UNL d   1     -41.191  15.240  17.291  0.00  0.00    -0.265 OA
BRANCH  13  15
ATOM     15  C   UNL d   1     -39.177  14.811  16.951  0.00  0.00     0.127 C 
BRANCH  15  16
ATOM     16  C   UNL d   1     -38.694  14.798  16.277  0.00  0.00     0.119 A 
ATOM     17  O   UNL d   1     -38.457  15.452  15.838  0.00  0.00    -0.304 OA
ATOM     18  C   UNL d   1     -37.990  15.177  15.228  0.00  0.00     0.123 A 
ATOM     19  C   UNL d   1     -37.940  14.350  15.295  0.00  0.00     0.029 A 
ATOM     20  C   UNL d   1     -38.373  14.118  15.940  0.00  0.00     0.028 A 
ENDBRANCH  15  16
ENDBRANCH  13  15
ENDBRANCH   1  12
BRANCH   8  21
ATOM     21  O   UNL d   1     -40.260  13.857  21.137  0.00  0.00    -0.326 OA
ATOM     22  C   UNL d   1     -40.122  13.708  21.931  0.00  0.00     0.181 C 
ENDBRANCH   8  21
TORSDOF 4
ENDMDL
MODEL 8
REMARK VINA RESULT:      -5.8      7.661      9.050
REMARK  4 active torsions:
REMARK  status: ('A' for Active; 'I' for Inactive)
REMARK    1  A    between atoms: C_6  and  C_1 
REMARK       I    between atoms: N_8  and  C_6 
REMARK    2  A    between atoms: C_17  and  N_8 
REMARK    3  A    between atoms: C_9  and  C_17 
REMARK    4  A    between atoms: O_18  and  C_12 
ROOT
ATOM      1  C   UNL d   1     -40.358  14.624  19.641  0.00  0.00     0.121 A 
ATOM      2  C   UNL d   1     -40.523  15.340  19.289  0.00  0.00     0.305 A 
ATOM      3  O   UNL d   1     -40.266  15.498  18.516  0.00  0.00    -0.271 OA
ATOM      4  C   UNL d   1     -39.933  14.044  19.234  0.00  0.00     0.012 A 
ATOM      5  C   UNL d   1     -39.841  14.919  18.109  0.00  0.00     0.125 A 
ATOM      6  C   UNL d   1     -39.676  14.202  18.461  0.00  0.00     0.025 A 
ATOM      7  O   UNL d   1     -40.952  15.922  19.703  0.00  0.00    -0.259 OA
ATOM      8  C   UNL d   1     -39.586  15.072  17.348  0.00  0.00     0.117 A 
ATOM      9  C   UNL d   1     -39.253  13.624  18.058  0.00  0.00     0.002 A 
ATOM     10  C   UNL d   1     -38.989  13.769  17.283  0.00  0.00     0.002 A 
ATOM     11  C   UNL d   1     -39.157  14.496  16.927  0.00  0.00     0.026 A 
ENDROOT
BRANCH   1  12
ATOM     12  C   UNL d   1     -40.621  14.485  20.407  0.00  0.00     0.284 C 
ATOM     13  N   UNL d   1     -40.283  14.436  21.158  0.00  0.00    -0.204 NA
ATOM     14  O   UNL d   1     -41.430  14.350  20.551  0.00  0.00    -0.265 OA
BRANCH  13  15
ATOM     15  C   UNL d   1     -39.468  14.543  21.240  0.00  0.00     0.127 C 
BRANCH  15  16
ATOM     16  C   UNL d   1     -39.115  14.526  21.990  0.00  0.00     0.119 A 
ATOM     17  O   UNL d   1     -39.047  15.161  22.507  0.00  0.00    -0.304 OA
ATOM     18  C   UNL d   1     -38.663  14.889  23.174  0.00  0.00     0.123 A 
ATOM     19  C   UNL d   1     -38.494  14.084  23.063  0.00  0.00     0.029 A 
ATOM     20  C   UNL d   1     -38.773  13.861  22.334  0.00  0.00     0.028 A 
ENDBRANCH  15  16
ENDBRANCH  13  15
ENDBRANCH   1  12
BRANCH   8  21
ATOM     21  O   UNL d   1     -39.752  15.792  16.994  0.00  0.00    -0.326 OA
ATOM     22  C   UNL d   1     -39.567  15.922  16.207  0.00  0.00     0.181 C 
ENDBRANCH   8  21
TORSDOF 4
ENDMDL
