MODEL 1
REMARK VINA RESULT:      -3.9      0.000      0.000
REMARK  5 active torsions:
REMARK  status: ('A' for Active; 'I' for Inactive)
REMARK    1  A    between atoms: C_4  and  S_1 
REMARK    2  A    between atoms: C_12  and  S_1 
REMARK    3  A    between atoms: C_3  and  C_6 
REMARK       I    between atoms: N_8  and  C_3 
REMARK    4  A    between atoms: C_6  and  C_4 
REMARK    5  A    between atoms: C_14  and  N_8 
ROOT
ATOM      1  C   UNL d   1      33.011  20.098 -21.918  0.00  0.00     0.280 C 
ATOM      2  N   UNL d   1      32.750  20.296 -21.157  0.00  0.00    -0.208 NA
ATOM      3  O   UNL d   1      33.235  20.707 -22.444  0.00  0.00    -0.265 OA
ENDROOT
BRANCH   1   4
ATOM      4  C   UNL d   1      33.052  19.322 -22.157  0.00  0.00     0.075 C 
BRANCH   4   5
ATOM      5  C   UNL d   1      32.867  19.139 -22.853  0.00  0.00     0.104 C 
BRANCH   5   6
ATOM      6  S   UNL d   1      32.732  18.380 -23.179  0.00  0.00     0.211 S 
ATOM      7  O   UNL d   1      33.236  18.038 -22.612  0.00  0.00    -0.217 OA
ATOM      8  O   UNL d   1      32.221  18.730 -23.753  0.00  0.00    -0.217 OA
BRANCH   6   9
ATOM      9  C   UNL d   1      32.594  17.633 -23.506  0.00  0.00     0.088 A 
ATOM     10  C   UNL d   1      33.223  17.184 -23.796  0.00  0.00     0.011 A 
ATOM     11  C   UNL d   1      33.086  16.435 -24.124  0.00  0.00     0.001 A 
ATOM     12  C   UNL d   1      32.317  16.141 -24.159  0.00  0.00     0.000 A 
ATOM     13  C   UNL d   1      31.680  16.581 -23.873  0.00  0.00     0.001 A 
ATOM     14  C   UNL d   1      31.820  17.332 -23.544  0.00  0.00     0.011 A 
ENDBRANCH   6   9
ENDBRANCH   5   6
ENDBRANCH   4   5
ENDBRANCH   1   4
BRANCH   2  15
ATOM     15  C   UNL d   1      32.712  21.087 -20.920  0.00  0.00     0.087 A 
ATOM     16  C   UNL d   1      32.141  21.580 -21.249  0.00  0.00     0.045 A 
ATOM     17  C   UNL d   1      32.102  22.365 -21.014  0.00  0.00     0.121 A 
ATOM     18  O   UNL d   1      31.594  22.983 -21.245  0.00  0.00    -0.299 OA
ATOM     19  C   UNL d   1      32.635  22.652 -20.452  0.00  0.00     0.119 A 
ATOM     20  C   UNL d   1      31.832  23.647 -20.811  0.00  0.00     0.304 A 
ATOM     21  O   UNL d   1      32.457  23.452 -20.334  0.00  0.00    -0.300 OA
ATOM     22  C   UNL d   1      33.201  22.162 -20.126  0.00  0.00     0.028 A 
ATOM     23  C   UNL d   1      33.239  21.380 -20.361  0.00  0.00     0.021 A 
ENDBRANCH   2  15
TORSDOF 5
ENDMDL
MODEL 2
REMARK VINA RESULT:      -3.1      1.384      5.476
REMARK  5 active torsions:
REMARK  status: ('A' for Active; 'I' for Inactive)
REMARK    1  A    between atoms: C_4  and  S_1 
REMARK    2  A    between atoms: C_12  and  S_1 
REMARK    3  A    between atoms: C_3  and  C_6 
REMARK       I    between atoms: N_8  and  C_3 
REMARK    4  A    between atoms: C_6  and  C_4 
REMARK    5  A    between atoms: C_14  and  N_8 
ROOT
ATOM      1  C   UNL d   1      32.806  19.790 -22.341  0.00  0.00     0.280 C 
ATOM      2  N   UNL d   1      33.241  19.092 -22.440  0.00  0.00    -0.208 NA
ATOM      3  O   UNL d   1      32.166  19.949 -22.853  0.00  0.00    -0.265 OA
ENDROOT
BRANCH   1   4
ATOM      4  C   UNL d   1      32.995  20.320 -21.753  0.00  0.00     0.075 C 
BRANCH   4   5
ATOM      5  C   UNL d   1      32.519  20.862 -21.576  0.00  0.00     0.104 C 
BRANCH   5   6
ATOM      6  S   UNL d   1      32.632  21.514 -21.064  0.00  0.00     0.211 S 
ATOM      7  O   UNL d   1      32.303  21.084 -20.432  0.00  0.00    -0.217 OA
ATOM      8  O   UNL d   1      32.964  21.948 -21.708  0.00  0.00    -0.217 OA
BRANCH   6   9
ATOM      9  C   UNL d   1      32.746  22.163 -20.564  0.00  0.00     0.088 A 
ATOM     10  C   UNL d   1      33.106  22.061 -19.829  0.00  0.00     0.011 A 
ATOM     11  C   UNL d   1      33.221  22.710 -19.326  0.00  0.00     0.001 A 
ATOM     12  C   UNL d   1      32.974  23.459 -19.565  0.00  0.00     0.000 A 
ATOM     13  C   UNL d   1      32.612  23.573 -20.298  0.00  0.00     0.001 A 
ATOM     14  C   UNL d   1      32.498  22.920 -20.801  0.00  0.00     0.011 A 
ENDBRANCH   6   9
ENDBRANCH   5   6
ENDBRANCH   4   5
ENDBRANCH   1   4
BRANCH   2  15
ATOM     15  C   UNL d   1      33.043  18.558 -23.040  0.00  0.00     0.087 A 
ATOM     16  C   UNL d   1      32.648  17.863 -22.848  0.00  0.00     0.045 A 
ATOM     17  C   UNL d   1      32.451  17.333 -23.443  0.00  0.00     0.121 A 
ATOM     18  O   UNL d   1      32.059  16.599 -23.417  0.00  0.00    -0.299 OA
ATOM     19  C   UNL d   1      32.653  17.502 -24.226  0.00  0.00     0.119 A 
ATOM     20  C   UNL d   1      32.028  16.330 -24.200  0.00  0.00     0.304 A 
ATOM     21  O   UNL d   1      32.384  16.870 -24.688  0.00  0.00    -0.300 OA
ATOM     22  C   UNL d   1      33.046  18.192 -24.415  0.00  0.00     0.028 A 
ATOM     23  C   UNL d   1      33.241  18.719 -23.822  0.00  0.00     0.021 A 
ENDBRANCH   2  15
TORSDOF 5
ENDMDL
MODEL 3
REMARK VINA RESULT:      -2.9      1.040      1.432
REMARK  5 active torsions:
REMARK  status: ('A' for Active; 'I' for Inactive)
REMARK    1  A    between atoms: C_4  and  S_1 
REMARK    2  A    between atoms: C_12  and  S_1 
REMARK    3  A    between atoms: C_3  and  C_6 
REMARK       I    between atoms: N_8  and  C_3 
REMARK    4  A    between atoms: C_6  and  C_4 
REMARK    5  A    between atoms: C_14  and  N_8 
ROOT
ATOM      1  C   UNL d   1      32.921  20.912 -21.832  0.00  0.00     0.280 C 
ATOM      2  N   UNL d   1      33.152  21.708 -21.839  0.00  0.00    -0.208 NA
ATOM      3  O   UNL d   1      32.407  20.641 -21.232  0.00  0.00    -0.265 OA
ENDROOT
BRANCH   1   4
ATOM      4  C   UNL d   1      33.188  20.395 -22.400  0.00  0.00     0.075 C 
BRANCH   4   5
ATOM      5  C   UNL d   1      33.132  19.662 -22.289  0.00  0.00     0.104 C 
BRANCH   5   6
ATOM      6  S   UNL d   1      33.097  19.046 -22.855  0.00  0.00     0.211 S 
ATOM      7  O   UNL d   1      33.055  18.480 -22.247  0.00  0.00    -0.217 OA
ATOM      8  O   UNL d   1      33.139  19.624 -23.470  0.00  0.00    -0.217 OA
BRANCH   6   9
ATOM      9  C   UNL d   1      33.062  18.443 -23.419  0.00  0.00     0.088 A 
ATOM     10  C   UNL d   1      33.235  17.665 -23.206  0.00  0.00     0.011 A 
ATOM     11  C   UNL d   1      33.201  17.058 -23.770  0.00  0.00     0.001 A 
ATOM     12  C   UNL d   1      32.992  17.237 -24.547  0.00  0.00     0.000 A 
ATOM     13  C   UNL d   1      32.817  18.012 -24.772  0.00  0.00     0.001 A 
ATOM     14  C   UNL d   1      32.852  18.618 -24.204  0.00  0.00     0.011 A 
ENDBRANCH   6   9
ENDBRANCH   5   6
ENDBRANCH   4   5
ENDBRANCH   1   4
BRANCH   2  15
ATOM     15  C   UNL d   1      32.876  22.229 -21.258  0.00  0.00     0.087 A 
ATOM     16  C   UNL d   1      33.232  22.231 -20.517  0.00  0.00     0.045 A 
ATOM     17  C   UNL d   1      32.959  22.748 -19.940  0.00  0.00     0.121 A 
ATOM     18  O   UNL d   1      33.205  22.874 -19.154  0.00  0.00    -0.299 OA
ATOM     19  C   UNL d   1      32.332  23.258 -20.110  0.00  0.00     0.119 A 
ATOM     20  C   UNL d   1      32.713  23.469 -18.855  0.00  0.00     0.304 A 
ATOM     21  O   UNL d   1      32.188  23.702 -19.427  0.00  0.00    -0.300 OA
ATOM     22  C   UNL d   1      31.980  23.254 -20.847  0.00  0.00     0.028 A 
ATOM     23  C   UNL d   1      32.253  22.739 -21.420  0.00  0.00     0.021 A 
ENDBRANCH   2  15
TORSDOF 5
ENDMDL
MODEL 4
REMARK VINA RESULT:      -1.8      1.772      2.696
REMARK  5 active torsions:
REMARK  status: ('A' for Active; 'I' for Inactive)
REMARK    1  A    between atoms: C_4  and  S_1 
REMARK    2  A    between atoms: C_12  and  S_1 
REMARK    3  A    between atoms: C_3  and  C_6 
REMARK       I    between atoms: N_8  and  C_3 
REMARK    4  A    between atoms: C_6  and  C_4 
REMARK    5  A    between atoms: C_14  and  N_8 
ROOT
ATOM      1  C   UNL d   1      32.934  21.474 -20.503  0.00  0.00     0.280 C 
ATOM      2  N   UNL d   1      33.241  22.220 -20.313  0.00  0.00    -0.208 NA
ATOM      3  O   UNL d   1      32.351  21.135 -20.011  0.00  0.00    -0.265 OA
ENDROOT
BRANCH   1   4
ATOM      4  C   UNL d   1      33.192  21.072 -21.161  0.00  0.00     0.075 C 
BRANCH   4   5
ATOM      5  C   UNL d   1      32.699  20.778 -21.633  0.00  0.00     0.104 C 
BRANCH   5   6
ATOM      6  S   UNL d   1      32.837  20.373 -22.352  0.00  0.00     0.211 S 
ATOM      7  O   UNL d   1      32.936  21.098 -22.750  0.00  0.00    -0.217 OA
ATOM      8  O   UNL d   1      32.735  19.640 -21.946  0.00  0.00    -0.217 OA
BRANCH   6   9
ATOM      9  C   UNL d   1      32.972  19.967 -23.060  0.00  0.00     0.088 A 
ATOM     10  C   UNL d   1      33.039  19.145 -23.060  0.00  0.00     0.011 A 
ATOM     11  C   UNL d   1      33.174  18.736 -23.769  0.00  0.00     0.001 A 
ATOM     12  C   UNL d   1      33.241  19.156 -24.474  0.00  0.00     0.000 A 
ATOM     13  C   UNL d   1      33.175  19.979 -24.487  0.00  0.00     0.001 A 
ATOM     14  C   UNL d   1      33.039  20.387 -23.774  0.00  0.00     0.011 A 
ENDBRANCH   6   9
ENDBRANCH   5   6
ENDBRANCH   4   5
ENDBRANCH   1   4
BRANCH   2  15
ATOM     15  C   UNL d   1      32.973  22.624 -19.642  0.00  0.00     0.087 A 
ATOM     16  C   UNL d   1      33.213  22.372 -18.897  0.00  0.00     0.045 A 
ATOM     17  C   UNL d   1      32.948  22.772 -18.231  0.00  0.00     0.121 A 
ATOM     18  O   UNL d   1      33.094  22.648 -17.421  0.00  0.00    -0.299 OA
ATOM     19  C   UNL d   1      32.445  23.422 -18.317  0.00  0.00     0.119 A 
ATOM     20  C   UNL d   1      32.669  23.236 -17.021  0.00  0.00     0.304 A 
ATOM     21  O   UNL d   1      32.278  23.702 -17.556  0.00  0.00    -0.300 OA
ATOM     22  C   UNL d   1      32.208  23.671 -19.057  0.00  0.00     0.028 A 
ATOM     23  C   UNL d   1      32.473  23.271 -19.719  0.00  0.00     0.021 A 
ENDBRANCH   2  15
TORSDOF 5
ENDMDL
