MODEL 1
REMARK VINA RESULT:      10.0      0.000      0.000
REMARK  4 active torsions:
REMARK  status: ('A' for Active; 'I' for Inactive)
REMARK    1  A    between atoms: C_3  and  C_1 
REMARK    2  A    between atoms: C_2  and  C_3 
REMARK    3  A    between atoms: C_6  and  C_2 
REMARK    4  A    between atoms: C_16  and  C_6 
ROOT
ATOM      1  C   UNL d   1      45.086 -14.194  44.129  0.00  0.00     0.119 A 
ATOM      2  C   UNL d   1      45.707 -13.778  44.466  0.00  0.00     0.119 A 
ATOM      3  O   UNL d   1      44.586 -13.651  43.761  0.00  0.00    -0.300 OA
ATOM      4  O   UNL d   1      45.594 -12.977  44.308  0.00  0.00    -0.300 OA
ATOM      5  C   UNL d   1      44.908 -12.900  43.877  0.00  0.00     0.304 A 
ATOM      6  C   UNL d   1      45.053 -15.007  44.197  0.00  0.00     0.026 A 
ATOM      7  C   UNL d   1      45.646 -15.414  44.607  0.00  0.00     0.002 A 
ATOM      8  C   UNL d   1      46.294 -14.177  44.871  0.00  0.00     0.026 A 
ATOM      9  C   UNL d   1      46.262 -15.003  44.941  0.00  0.00     0.002 A 
ENDROOT
BRANCH   7  10
ATOM     10  C   UNL d   1      45.625 -16.240  44.684  0.00  0.00     0.003 C 
BRANCH  10  11
ATOM     11  C   UNL d   1      45.915 -16.720  44.074  0.00  0.00     0.044 C 
BRANCH  11  12
ATOM     12  C   UNL d   1      45.974 -17.539  44.185  0.00  0.00     0.213 C 
ATOM     13  O   UNL d   1      45.813 -17.866  44.916  0.00  0.00    -0.285 OA
BRANCH  12  14
ATOM     14  C   UNL d   1      46.198 -18.031  43.554  0.00  0.00     0.120 A 
ATOM     15  N   UNL d   1      46.414 -18.809  43.694  0.00  0.00    -0.241 NA
ATOM     16  C   UNL d   1      46.606 -19.156  42.967  0.00  0.00     0.099 A 
ATOM     17  C   UNL d   1      46.504 -18.582  42.384  0.00  0.00     0.022 A 
ATOM     18  C   UNL d   1      46.256 -17.895  42.738  0.00  0.00     0.024 A 
ENDBRANCH  12  14
ENDBRANCH  11  12
ENDBRANCH  10  11
ENDBRANCH   7  10
TORSDOF 4
ENDMDL
MODEL 2
REMARK VINA RESULT:      10.5      1.608      4.584
REMARK  4 active torsions:
REMARK  status: ('A' for Active; 'I' for Inactive)
REMARK    1  A    between atoms: C_3  and  C_1 
REMARK    2  A    between atoms: C_2  and  C_3 
REMARK    3  A    between atoms: C_6  and  C_2 
REMARK    4  A    between atoms: C_16  and  C_6 
ROOT
ATOM      1  C   UNL d   1      46.415 -19.188  43.557  0.00  0.00     0.119 A 
ATOM      2  C   UNL d   1      46.462 -19.026  42.754  0.00  0.00     0.119 A 
ATOM      3  O   UNL d   1      46.528 -19.998  43.660  0.00  0.00    -0.300 OA
ATOM      4  O   UNL d   1      46.605 -19.735  42.359  0.00  0.00    -0.300 OA
ATOM      5  C   UNL d   1      46.645 -20.330  42.914  0.00  0.00     0.304 A 
ATOM      6  C   UNL d   1      46.276 -18.584  44.089  0.00  0.00     0.026 A 
ATOM      7  C   UNL d   1      46.182 -17.806  43.819  0.00  0.00     0.002 A 
ATOM      8  C   UNL d   1      46.370 -18.260  42.486  0.00  0.00     0.026 A 
ATOM      9  C   UNL d   1      46.229 -17.646  43.025  0.00  0.00     0.002 A 
ENDROOT
BRANCH   7  10
ATOM     10  C   UNL d   1      46.041 -17.183  44.349  0.00  0.00     0.003 C 
BRANCH  10  11
ATOM     11  C   UNL d   1      45.855 -16.430  44.060  0.00  0.00     0.044 C 
BRANCH  11  12
ATOM     12  C   UNL d   1      45.396 -15.912  44.518  0.00  0.00     0.213 C 
ATOM     13  O   UNL d   1      44.769 -16.200  44.955  0.00  0.00    -0.285 OA
BRANCH  12  14
ATOM     14  C   UNL d   1      45.573 -15.101  44.534  0.00  0.00     0.120 A 
ATOM     15  N   UNL d   1      45.098 -14.568  44.132  0.00  0.00    -0.241 NA
ATOM     16  C   UNL d   1      45.409 -13.809  44.249  0.00  0.00     0.099 A 
ATOM     17  C   UNL d   1      46.077 -13.886  44.726  0.00  0.00     0.022 A 
ATOM     18  C   UNL d   1      46.180 -14.672  44.902  0.00  0.00     0.024 A 
ENDBRANCH  12  14
ENDBRANCH  11  12
ENDBRANCH  10  11
ENDBRANCH   7  10
TORSDOF 4
ENDMDL
