MODEL 1
REMARK VINA RESULT:      59.6      0.000      0.000
REMARK  3 active torsions:
REMARK  status: ('A' for Active; 'I' for Inactive)
REMARK    1  A    between atoms: C_4  and  C_1 
REMARK       I    between atoms: C_5  and  N_6 
REMARK    2  A    between atoms: C_8  and  C_5 
REMARK    3  A    between atoms: N_6  and  C_7 
ROOT
ATOM      1  C   UNL d   1     -56.091 -99.176 -44.800  0.00  0.00     0.042 A 
ATOM      2  C   UNL d   1     -55.494 -99.688 -44.546  0.00  0.00     0.087 A 
ATOM      3  C   UNL d   1     -55.993 -98.758 -45.504  0.00  0.00     0.004 A 
ATOM      4  C   UNL d   1     -54.806 -99.784 -44.989  0.00  0.00     0.019 A 
ATOM      5  C   UNL d   1     -55.311 -98.846 -45.954  0.00  0.00     0.000 A 
ATOM      6  C   UNL d   1     -54.713 -99.364 -45.693  0.00  0.00     0.002 A 
ENDROOT
BRANCH   1   7
ATOM      7  C   UNL d   1     -56.779 -99.082 -44.354  0.00  0.00     0.112 A 
ATOM      8  N   UNL d   1     -56.891 -98.995 -43.549  0.00  0.00    -0.238 NA
ATOM      9  C   UNL d   1     -57.700 -98.924 -43.415  0.00  0.00     0.088 A 
ATOM     10  C   UNL d   1     -58.137 -98.825 -42.728  0.00  0.00     0.020 A 
ATOM     11  C   UNL d   1     -58.080 -98.967 -44.139  0.00  0.00     0.049 A 
ATOM     12  C   UNL d   1     -58.961 -98.769 -42.768  0.00  0.00     0.002 A 
ATOM     13  C   UNL d   1     -59.340 -98.813 -43.493  0.00  0.00     0.001 A 
ATOM     14  C   UNL d   1     -58.903 -98.912 -44.178  0.00  0.00     0.008 A 
ATOM     15  S   UNL d   1     -57.502 -99.066 -44.723  0.00  0.00    -0.066 SA
ENDBRANCH   1   7
BRANCH   2  16
ATOM     16  N   UNL d   1     -55.591-100.106 -43.842  0.00  0.00    -0.206 NA
ATOM     17  C   UNL d   1     -55.197-100.833 -43.732  0.00  0.00     0.302 C 
ATOM     18  O   UNL d   1     -54.713-101.130 -44.328  0.00  0.00    -0.263 OA
BRANCH  17  19
ATOM     19  C   UNL d   1     -55.292-101.254 -43.029  0.00  0.00     0.158 A 
ATOM     20  O   UNL d   1     -55.876-101.784 -42.773  0.00  0.00    -0.300 OA
ATOM     21  C   UNL d   1     -55.675-102.028 -42.021  0.00  0.00     0.123 A 
ATOM     22  C   UNL d   1     -54.972-101.661 -41.796  0.00  0.00     0.029 A 
ATOM     23  C   UNL d   1     -54.736-101.181 -42.424  0.00  0.00     0.032 A 
ENDBRANCH  17  19
ENDBRANCH   2  16
TORSDOF 3
ENDMDL
