MODEL 1
REMARK VINA RESULT:      19.6      0.000      0.000
REMARK  1 active torsions:
REMARK  status: ('A' for Active; 'I' for Inactive)
REMARK    1  A    between atoms: C_5  and  C_1 
ROOT
ATOM      1  C   UNL d   1     -57.489 -98.782 -44.443  0.00  0.00     0.162 A 
ATOM      2  N   UNL d   1     -57.122 -98.803 -45.154  0.00  0.00    -0.225 NA
ATOM      3  N   UNL d   1     -56.962 -98.768 -43.846  0.00  0.00    -0.225 NA
ATOM      4  C   UNL d   1     -56.293 -98.803 -45.004  0.00  0.00     0.101 A 
ATOM      5  C   UNL d   1     -56.193 -98.781 -44.192  0.00  0.00     0.101 A 
ATOM      6  C   UNL d   1     -55.641 -98.820 -45.513  0.00  0.00     0.021 A 
ATOM      7  C   UNL d   1     -55.439 -98.775 -43.866  0.00  0.00     0.021 A 
ATOM      8  C   UNL d   1     -54.779 -98.792 -44.365  0.00  0.00     0.002 A 
ATOM      9  C   UNL d   1     -54.879 -98.813 -45.178  0.00  0.00     0.002 A 
ENDROOT
BRANCH   1  10
ATOM     10  C   UNL d   1     -58.298 -98.776 -44.343  0.00  0.00     0.036 A 
ATOM     11  C   UNL d   1     -58.800 -98.763 -44.996  0.00  0.00     0.003 A 
ATOM     12  C   UNL d   1     -58.472 -98.755 -45.758  0.00  0.00     0.000 C 
ATOM     13  C   UNL d   1     -59.620 -98.756 -44.896  0.00  0.00     0.000 A 
ATOM     14  C   UNL d   1     -59.957 -98.764 -44.140  0.00  0.00     0.000 A 
ATOM     15  C   UNL d   1     -59.448 -98.777 -43.493  0.00  0.00     0.000 A 
ATOM     16  C   UNL d   1     -58.628 -98.783 -43.594  0.00  0.00     0.003 A 
ENDBRANCH   1  10
TORSDOF 1
ENDMDL
MODEL 2
REMARK VINA RESULT:      21.6      0.428      3.333
REMARK  1 active torsions:
REMARK  status: ('A' for Active; 'I' for Inactive)
REMARK    1  A    between atoms: C_5  and  C_1 
ROOT
ATOM      1  C   UNL d   1     -57.198 -98.790 -44.373  0.00  0.00     0.162 A 
ATOM      2  N   UNL d   1     -57.619 -98.784 -45.054  0.00  0.00    -0.225 NA
ATOM      3  N   UNL d   1     -57.676 -98.786 -43.736  0.00  0.00    -0.225 NA
ATOM      4  C   UNL d   1     -58.434 -98.774 -44.839  0.00  0.00     0.101 A 
ATOM      5  C   UNL d   1     -58.470 -98.775 -44.021  0.00  0.00     0.101 A 
ATOM      6  C   UNL d   1     -59.124 -98.765 -45.295  0.00  0.00     0.021 A 
ATOM      7  C   UNL d   1     -59.196 -98.767 -43.637  0.00  0.00     0.021 A 
ATOM      8  C   UNL d   1     -59.893 -98.757 -44.083  0.00  0.00     0.002 A 
ATOM      9  C   UNL d   1     -59.858 -98.756 -44.901  0.00  0.00     0.002 A 
ENDROOT
BRANCH   1  10
ATOM     10  C   UNL d   1     -56.383 -98.801 -44.338  0.00  0.00     0.036 A 
ATOM     11  C   UNL d   1     -55.934 -98.783 -45.028  0.00  0.00     0.003 A 
ATOM     12  C   UNL d   1     -56.321 -98.755 -45.761  0.00  0.00     0.000 C 
ATOM     13  C   UNL d   1     -55.109 -98.793 -44.992  0.00  0.00     0.000 A 
ATOM     14  C   UNL d   1     -54.714 -98.821 -44.266  0.00  0.00     0.000 A 
ATOM     15  C   UNL d   1     -55.170 -98.839 -43.581  0.00  0.00     0.000 A 
ATOM     16  C   UNL d   1     -55.995 -98.828 -43.617  0.00  0.00     0.003 A 
ENDBRANCH   1  10
TORSDOF 1
ENDMDL
