MODEL 1
REMARK VINA RESULT:      -4.4      0.000      0.000
REMARK  5 active torsions:
REMARK  status: ('A' for Active; 'I' for Inactive)
REMARK    1  A    between atoms: C_6  and  C_1 
REMARK    2  A    between atoms: C_7  and  C_6 
REMARK    3  A    between atoms: C_11  and  C_19 
REMARK    4  A    between atoms: O_18  and  C_17 
REMARK    5  A    between atoms: C_19  and  O_18 
ROOT
ATOM      1  C   UNL d   1      58.387  -0.825  29.593  0.00  0.00     0.139 A 
ATOM      2  C   UNL d   1      57.881   0.035  30.491  0.00  0.00     0.064 A 
ATOM      3  C   UNL d   1      58.324  -0.025  29.800  0.00  0.00     0.220 A 
ATOM      4  C   UNL d   1      57.664  -0.729  30.718  0.00  0.00     0.105 A 
ATOM      5  O   UNL d   1      57.979  -1.262  30.160  0.00  0.00    -0.304 OA
ATOM      6  C   UNL d   1      57.213  -0.849  31.396  0.00  0.00     0.049 A 
ATOM      7  C   UNL d   1      57.647   0.680  30.940  0.00  0.00     0.007 A 
ATOM      8  O   UNL d   1      58.653   0.604  29.381  0.00  0.00    -0.284 OA
ATOM      9  C   UNL d   1      56.981  -0.195  31.844  0.00  0.00     0.097 A 
ATOM     10  C   UNL d   1      57.197   0.565  31.617  0.00  0.00     0.025 A 
ENDROOT
BRANCH   1  11
ATOM     11  C   UNL d   1      58.785  -1.134  28.938  0.00  0.00     0.034 C 
BRANCH  11  12
ATOM     12  C   UNL d   1      59.087  -1.899  28.958  0.00  0.00     0.032 A 
ATOM     13  S   UNL d   1      59.855  -2.114  29.156  0.00  0.00    -0.086 SA
ATOM     14  C   UNL d   1      59.915  -2.941  29.103  0.00  0.00     0.035 A 
ATOM     15  C   UNL d   1      59.179  -3.232  28.872  0.00  0.00     0.007 A 
ATOM     16  C   UNL d   1      58.660  -2.592  28.780  0.00  0.00     0.007 A 
ENDBRANCH  11  12
ENDBRANCH   1  11
BRANCH   9  17
ATOM     17  O   UNL d   1      56.528  -0.318  32.524  0.00  0.00    -0.319 OA
BRANCH  17  18
ATOM     18  C   UNL d   1      55.969   0.250  32.745  0.00  0.00     0.246 C 
BRANCH  18  19
ATOM     19  C   UNL d   1      55.528   0.138  33.430  0.00  0.00     0.217 C 
ATOM     20  O   UNL d   1      54.834  -0.313  33.411  0.00  0.00    -0.645 OA
ATOM     21  O   UNL d   1      55.792   0.497  34.188  0.00  0.00    -0.645 OA
ENDBRANCH  18  19
ENDBRANCH  17  18
ENDBRANCH   9  17
TORSDOF 5
ENDMDL
MODEL 2
REMARK VINA RESULT:      -3.1      2.228      5.039
REMARK  5 active torsions:
REMARK  status: ('A' for Active; 'I' for Inactive)
REMARK    1  A    between atoms: C_6  and  C_1 
REMARK    2  A    between atoms: C_7  and  C_6 
REMARK    3  A    between atoms: C_11  and  C_19 
REMARK    4  A    between atoms: O_18  and  C_17 
REMARK    5  A    between atoms: C_19  and  O_18 
ROOT
ATOM      1  C   UNL d   1      55.893  -0.376  32.698  0.00  0.00     0.139 A 
ATOM      2  C   UNL d   1      56.748  -0.862  31.785  0.00  0.00     0.064 A 
ATOM      3  C   UNL d   1      56.179  -1.068  32.342  0.00  0.00     0.220 A 
ATOM      4  C   UNL d   1      56.820  -0.040  31.789  0.00  0.00     0.105 A 
ATOM      5  O   UNL d   1      56.289   0.261  32.356  0.00  0.00    -0.304 OA
ATOM      6  C   UNL d   1      57.352   0.334  31.285  0.00  0.00     0.049 A 
ATOM      7  C   UNL d   1      57.208  -1.313  31.276  0.00  0.00     0.007 A 
ATOM      8  O   UNL d   1      55.932  -1.834  32.521  0.00  0.00    -0.284 OA
ATOM      9  C   UNL d   1      57.812  -0.125  30.775  0.00  0.00     0.097 A 
ATOM     10  C   UNL d   1      57.740  -0.944  30.771  0.00  0.00     0.025 A 
ENDROOT
BRANCH   1  11
ATOM     11  C   UNL d   1      55.316  -0.328  33.288  0.00  0.00     0.034 C 
BRANCH  11  12
ATOM     12  C   UNL d   1      55.473   0.068  33.992  0.00  0.00     0.032 A 
ATOM     13  S   UNL d   1      54.921   0.300  34.554  0.00  0.00    -0.086 SA
ATOM     14  C   UNL d   1      55.325   0.681  35.172  0.00  0.00     0.035 A 
ATOM     15  C   UNL d   1      56.128   0.682  34.985  0.00  0.00     0.007 A 
ATOM     16  C   UNL d   1      56.228   0.303  34.255  0.00  0.00     0.007 A 
ENDBRANCH  11  12
ENDBRANCH   1  11
BRANCH   9  17
ATOM     17  O   UNL d   1      58.345   0.252  30.270  0.00  0.00    -0.319 OA
BRANCH  17  18
ATOM     18  C   UNL d   1      58.650  -0.161  29.622  0.00  0.00     0.246 C 
BRANCH  18  19
ATOM     19  C   UNL d   1      59.292   0.147  29.211  0.00  0.00     0.217 C 
ATOM     20  O   UNL d   1      60.064  -0.036  29.444  0.00  0.00    -0.645 OA
ATOM     21  O   UNL d   1      59.160   0.675  28.520  0.00  0.00    -0.645 OA
ENDBRANCH  18  19
ENDBRANCH  17  18
ENDBRANCH   9  17
TORSDOF 5
ENDMDL
MODEL 3
REMARK VINA RESULT:      -2.2      1.855      4.554
REMARK  5 active torsions:
REMARK  status: ('A' for Active; 'I' for Inactive)
REMARK    1  A    between atoms: C_6  and  C_1 
REMARK    2  A    between atoms: C_7  and  C_6 
REMARK    3  A    between atoms: C_11  and  C_19 
REMARK    4  A    between atoms: O_18  and  C_17 
REMARK    5  A    between atoms: C_19  and  O_18 
ROOT
ATOM      1  C   UNL d   1      57.389  -0.342  31.237  0.00  0.00     0.139 A 
ATOM      2  C   UNL d   1      58.359  -0.591  30.344  0.00  0.00     0.064 A 
ATOM      3  C   UNL d   1      58.082  -0.044  30.892  0.00  0.00     0.220 A 
ATOM      4  C   UNL d   1      57.840  -1.234  30.344  0.00  0.00     0.105 A 
ATOM      5  O   UNL d   1      57.238  -1.078  30.898  0.00  0.00    -0.304 OA
ATOM      6  C   UNL d   1      57.974  -1.876  29.846  0.00  0.00     0.049 A 
ATOM      7  C   UNL d   1      59.012  -0.590  29.848  0.00  0.00     0.007 A 
ATOM      8  O   UNL d   1      58.431   0.680  31.072  0.00  0.00    -0.284 OA
ATOM      9  C   UNL d   1      58.633  -1.868  29.349  0.00  0.00     0.097 A 
ATOM     10  C   UNL d   1      59.150  -1.229  29.350  0.00  0.00     0.025 A 
ENDROOT
BRANCH   1  11
ATOM     11  C   UNL d   1      56.929   0.029  31.815  0.00  0.00     0.034 C 
BRANCH  11  12
ATOM     12  C   UNL d   1      56.518  -0.421  32.370  0.00  0.00     0.032 A 
ATOM     13  S   UNL d   1      56.799  -0.666  33.102  0.00  0.00    -0.086 SA
ATOM     14  C   UNL d   1      56.201  -1.104  33.475  0.00  0.00     0.035 A 
ATOM     15  C   UNL d   1      55.551  -1.126  32.968  0.00  0.00     0.007 A 
ATOM     16  C   UNL d   1      55.740  -0.704  32.281  0.00  0.00     0.007 A 
ENDBRANCH  11  12
ENDBRANCH   1  11
BRANCH   9  17
ATOM     17  O   UNL d   1      58.765  -2.514  28.852  0.00  0.00    -0.319 OA
BRANCH  17  18
ATOM     18  C   UNL d   1      59.409  -3.012  28.998  0.00  0.00     0.246 C 
BRANCH  18  19
ATOM     19  C   UNL d   1      59.383  -3.793  28.742  0.00  0.00     0.217 C 
ATOM     20  O   UNL d   1      58.658  -4.184  28.668  0.00  0.00    -0.645 OA
ATOM     21  O   UNL d   1      60.127  -4.217  28.546  0.00  0.00    -0.645 OA
ENDBRANCH  18  19
ENDBRANCH  17  18
ENDBRANCH   9  17
TORSDOF 5
ENDMDL
MODEL 4
REMARK VINA RESULT:      -1.9      2.348      4.937
REMARK  5 active torsions:
REMARK  status: ('A' for Active; 'I' for Inactive)
REMARK    1  A    between atoms: C_6  and  C_1 
REMARK    2  A    between atoms: C_7  and  C_6 
REMARK    3  A    between atoms: C_11  and  C_19 
REMARK    4  A    between atoms: O_18  and  C_17 
REMARK    5  A    between atoms: C_19  and  O_18 
ROOT
ATOM      1  C   UNL d   1      57.062   0.680  33.298  0.00  0.00     0.139 A 
ATOM      2  C   UNL d   1      58.189   0.679  32.569  0.00  0.00     0.064 A 
ATOM      3  C   UNL d   1      57.891   0.678  33.336  0.00  0.00     0.220 A 
ATOM      4  C   UNL d   1      57.548   0.681  32.049  0.00  0.00     0.105 A 
ATOM      5  O   UNL d   1      56.849   0.682  32.503  0.00  0.00    -0.304 OA
ATOM      6  C   UNL d   1      57.673   0.682  31.235  0.00  0.00     0.049 A 
ATOM      7  C   UNL d   1      58.956   0.678  32.277  0.00  0.00     0.007 A 
ATOM      8  O   UNL d   1      58.337   0.676  34.028  0.00  0.00    -0.284 OA
ATOM      9  C   UNL d   1      58.447   0.680  30.948  0.00  0.00     0.097 A 
ATOM     10  C   UNL d   1      59.085   0.679  31.466  0.00  0.00     0.025 A 
ENDROOT
BRANCH   1  11
ATOM     11  C   UNL d   1      56.541   0.680  33.940  0.00  0.00     0.034 C 
BRANCH  11  12
ATOM     12  C   UNL d   1      55.785   0.364  33.861  0.00  0.00     0.032 A 
ATOM     13  S   UNL d   1      55.091   0.678  34.170  0.00  0.00    -0.086 SA
ATOM     14  C   UNL d   1      54.463   0.179  33.955  0.00  0.00     0.035 A 
ATOM     15  C   UNL d   1      54.775  -0.442  33.511  0.00  0.00     0.007 A 
ATOM     16  C   UNL d   1      55.595  -0.334  33.449  0.00  0.00     0.007 A 
ENDBRANCH  11  12
ENDBRANCH   1  11
BRANCH   9  17
ATOM     17  O   UNL d   1      58.569   0.681  30.131  0.00  0.00    -0.319 OA
BRANCH  17  18
ATOM     18  C   UNL d   1      59.211   0.264  29.819  0.00  0.00     0.246 C 
BRANCH  18  19
ATOM     19  C   UNL d   1      59.213   0.063  29.021  0.00  0.00     0.217 C 
ATOM     20  O   UNL d   1      58.791   0.518  28.474  0.00  0.00    -0.645 OA
ATOM     21  O   UNL d   1      59.664  -0.640  28.746  0.00  0.00    -0.645 OA
ENDBRANCH  18  19
ENDBRANCH  17  18
ENDBRANCH   9  17
TORSDOF 5
ENDMDL
