MODEL 1
REMARK VINA RESULT:      -7.4      0.000      0.000
REMARK  3 active torsions:
REMARK  status: ('A' for Active; 'I' for Inactive)
REMARK    1  A    between atoms: C_2  and  C_1 
REMARK    2  A    between atoms: N_12  and  C_6 
REMARK    3  A    between atoms: C_15  and  N_12 
ROOT
ATOM      1  C   UNL d   1     -46.581  13.225  22.662  0.00  0.00     0.082 A 
ATOM      2  C   UNL d   1     -46.583  12.595  23.201  0.00  0.00     0.302 A 
ATOM      3  C   UNL d   1     -45.905  13.384  22.197  0.00  0.00     0.009 A 
ATOM      4  O   UNL d   1     -45.906  12.118  23.280  0.00  0.00    -0.273 OA
ATOM      5  C   UNL d   1     -45.239  12.898  22.288  0.00  0.00     0.025 A 
ATOM      6  C   UNL d   1     -45.242  12.272  22.825  0.00  0.00     0.103 A 
ATOM      7  O   UNL d   1     -47.247  12.441  23.656  0.00  0.00    -0.259 OA
ATOM      8  C   UNL d   1     -44.568  13.050  21.831  0.00  0.00     0.026 A 
ATOM      9  C   UNL d   1     -44.563  11.799  22.900  0.00  0.00     0.027 A 
ATOM     10  C   UNL d   1     -43.902  12.580  21.910  0.00  0.00     0.094 A 
ATOM     11  C   UNL d   1     -43.899  11.952  22.446  0.00  0.00     0.026 A 
ATOM     12  O   UNL d   1     -43.238  12.730  21.459  0.00  0.00    -0.328 OA
ATOM     13  C   UNL d   1     -42.575  12.893  20.996  0.00  0.00     0.181 C 
ENDROOT
BRANCH   1  14
ATOM     14  C   UNL d   1     -47.247  13.695  22.584  0.00  0.00     0.095 A 
ATOM     15  N   UNL d   1     -47.903  13.525  22.128  0.00  0.00    -0.221 NA
ATOM     16  C   UNL d   1     -48.434  14.143  22.212  0.00  0.00     0.194 A 
ATOM     17  S   UNL d   1     -48.105  14.702  22.723  0.00  0.00    -0.046 SA
ATOM     18  C   UNL d   1     -47.366  14.422  22.955  0.00  0.00     0.058 A 
BRANCH  16  19
ATOM     19  N   UNL d   1     -49.166  14.204  21.853  0.00  0.00    -0.221 NA
BRANCH  19  20
ATOM     20  C   UNL d   1     -49.753  13.665  22.035  0.00  0.00     0.087 A 
ATOM     21  C   UNL d   1     -50.117  13.685  22.775  0.00  0.00     0.061 A 
ATOM     22  C   UNL d   1     -50.704  13.145  22.957  0.00  0.00     0.197 A 
ATOM     23  O   UNL d   1     -51.064  13.168  23.695  0.00  0.00    -0.286 OA
ATOM     24  C   UNL d   1     -50.933  12.578  22.398  0.00  0.00     0.042 A 
ATOM     25  C   UNL d   1     -50.572  12.559  21.665  0.00  0.00     0.005 A 
ATOM     26  C   UNL d   1     -49.979  13.101  21.476  0.00  0.00     0.019 A 
ENDBRANCH  19  20
ENDBRANCH  16  19
ENDBRANCH   1  14
TORSDOF 3
ENDMDL
MODEL 2
REMARK VINA RESULT:      -7.1      1.623      5.311
REMARK  3 active torsions:
REMARK  status: ('A' for Active; 'I' for Inactive)
REMARK    1  A    between atoms: C_2  and  C_1 
REMARK    2  A    between atoms: N_12  and  C_6 
REMARK    3  A    between atoms: C_15  and  N_12 
ROOT
ATOM      1  C   UNL d   1     -48.595  12.352  23.002  0.00  0.00     0.082 A 
ATOM      2  C   UNL d   1     -49.068  11.923  22.474  0.00  0.00     0.302 A 
ATOM      3  C   UNL d   1     -48.849  13.092  23.298  0.00  0.00     0.009 A 
ATOM      4  O   UNL d   1     -49.803  12.233  22.237  0.00  0.00    -0.273 OA
ATOM      5  C   UNL d   1     -49.585  13.384  23.050  0.00  0.00     0.025 A 
ATOM      6  C   UNL d   1     -50.055  12.957  22.524  0.00  0.00     0.103 A 
ATOM      7  O   UNL d   1     -48.817  11.199  22.186  0.00  0.00    -0.259 OA
ATOM      8  C   UNL d   1     -49.842  14.115  23.338  0.00  0.00     0.026 A 
ATOM      9  C   UNL d   1     -50.788  13.270  22.290  0.00  0.00     0.027 A 
ATOM     10  C   UNL d   1     -50.566  14.417  23.103  0.00  0.00     0.094 A 
ATOM     11  C   UNL d   1     -51.040  13.994  22.577  0.00  0.00     0.026 A 
ATOM     12  O   UNL d   1     -50.820  15.139  23.388  0.00  0.00    -0.328 OA
ATOM     13  C   UNL d   1     -51.064  15.870  23.683  0.00  0.00     0.181 C 
ENDROOT
BRANCH   1  14
ATOM     14  C   UNL d   1     -47.871  12.049  23.237  0.00  0.00     0.095 A 
ATOM     15  N   UNL d   1     -47.167  12.461  23.272  0.00  0.00    -0.221 NA
ATOM     16  C   UNL d   1     -46.586  11.946  23.535  0.00  0.00     0.194 A 
ATOM     17  S   UNL d   1     -46.933  11.207  23.664  0.00  0.00    -0.046 SA
ATOM     18  C   UNL d   1     -47.733  11.272  23.479  0.00  0.00     0.058 A 
BRANCH  16  19
ATOM     19  N   UNL d   1     -45.798  12.124  23.652  0.00  0.00    -0.221 NA
BRANCH  19  20
ATOM     20  C   UNL d   1     -45.346  12.395  23.026  0.00  0.00     0.087 A 
ATOM     21  C   UNL d   1     -44.694  11.960  22.769  0.00  0.00     0.061 A 
ATOM     22  C   UNL d   1     -44.242  12.231  22.144  0.00  0.00     0.197 A 
ATOM     23  O   UNL d   1     -43.594  11.796  21.891  0.00  0.00    -0.286 OA
ATOM     24  C   UNL d   1     -44.440  12.943  21.768  0.00  0.00     0.042 A 
ATOM     25  C   UNL d   1     -45.086  13.373  22.023  0.00  0.00     0.005 A 
ATOM     26  C   UNL d   1     -45.545  13.105  22.653  0.00  0.00     0.019 A 
ENDBRANCH  19  20
ENDBRANCH  16  19
ENDBRANCH   1  14
TORSDOF 3
ENDMDL
MODEL 3
REMARK VINA RESULT:      -4.7      1.914      5.144
REMARK  3 active torsions:
REMARK  status: ('A' for Active; 'I' for Inactive)
REMARK    1  A    between atoms: C_2  and  C_1 
REMARK    2  A    between atoms: N_12  and  C_6 
REMARK    3  A    between atoms: C_15  and  N_12 
ROOT
ATOM      1  C   UNL d   1     -46.965  13.590  22.697  0.00  0.00     0.082 A 
ATOM      2  C   UNL d   1     -47.021  14.417  22.659  0.00  0.00     0.302 A 
ATOM      3  C   UNL d   1     -47.637  13.127  22.878  0.00  0.00     0.009 A 
ATOM      4  O   UNL d   1     -47.752  14.787  22.803  0.00  0.00    -0.273 OA
ATOM      5  C   UNL d   1     -48.357  13.514  23.019  0.00  0.00     0.025 A 
ATOM      6  C   UNL d   1     -48.412  14.336  22.981  0.00  0.00     0.103 A 
ATOM      7  O   UNL d   1     -46.361  14.869  22.481  0.00  0.00    -0.259 OA
ATOM      8  C   UNL d   1     -49.025  13.061  23.199  0.00  0.00     0.026 A 
ATOM      9  C   UNL d   1     -49.143  14.701  23.126  0.00  0.00     0.027 A 
ATOM     10  C   UNL d   1     -49.744  13.428  23.341  0.00  0.00     0.094 A 
ATOM     11  C   UNL d   1     -49.803  14.250  23.304  0.00  0.00     0.026 A 
ATOM     12  O   UNL d   1     -50.403  12.981  23.518  0.00  0.00    -0.328 OA
ATOM     13  C   UNL d   1     -51.063  12.517  23.697  0.00  0.00     0.181 C 
ENDROOT
BRANCH   1  14
ATOM     14  C   UNL d   1     -46.247  13.224  22.555  0.00  0.00     0.095 A 
ATOM     15  N   UNL d   1     -45.814  12.791  23.095  0.00  0.00    -0.221 NA
ATOM     16  C   UNL d   1     -45.135  12.527  22.721  0.00  0.00     0.194 A 
ATOM     17  S   UNL d   1     -45.146  12.799  21.941  0.00  0.00    -0.046 SA
ATOM     18  C   UNL d   1     -45.838  13.233  21.839  0.00  0.00     0.058 A 
BRANCH  16  19
ATOM     19  N   UNL d   1     -44.544  12.072  23.054  0.00  0.00    -0.221 NA
BRANCH  19  20
ATOM     20  C   UNL d   1     -44.699  11.298  23.267  0.00  0.00     0.087 A 
ATOM     21  C   UNL d   1     -44.087  10.745  23.284  0.00  0.00     0.061 A 
ATOM     22  C   UNL d   1     -44.241   9.970  23.497  0.00  0.00     0.197 A 
ATOM     23  O   UNL d   1     -43.630   9.423  23.513  0.00  0.00    -0.286 OA
ATOM     24  C   UNL d   1     -45.012   9.742  23.696  0.00  0.00     0.042 A 
ATOM     25  C   UNL d   1     -45.618  10.290  23.680  0.00  0.00     0.005 A 
ATOM     26  C   UNL d   1     -45.468  11.073  23.465  0.00  0.00     0.019 A 
ENDBRANCH  19  20
ENDBRANCH  16  19
ENDBRANCH   1  14
TORSDOF 3
ENDMDL
