MODEL 1
REMARK VINA RESULT:      -3.2      0.000      0.000
REMARK  5 active torsions:
REMARK  status: ('A' for Active; 'I' for Inactive)
REMARK    1  A    between atoms: N_2  and  S_1 
REMARK    2  A    between atoms: C_4  and  S_1 
REMARK    3  A    between atoms: C_3  and  C_8 
REMARK       I    between atoms: N_7  and  C_3 
REMARK    4  A    between atoms: C_16  and  N_7 
REMARK    5  A    between atoms: C_15  and  C_16 
ROOT
ATOM      1  C   UNL d   1      32.920  20.971 -21.717  0.00  0.00     0.104 A 
ATOM      2  C   UNL d   1      32.953  19.804 -22.880  0.00  0.00     0.058 A 
ATOM      3  C   UNL d   1      32.856  20.175 -21.507  0.00  0.00     0.013 A 
ATOM      4  C   UNL d   1      33.001  21.177 -22.526  0.00  0.00     0.013 A 
ATOM      5  C   UNL d   1      32.872  19.588 -22.073  0.00  0.00     0.005 A 
ATOM      6  C   UNL d   1      33.017  20.578 -23.105  0.00  0.00     0.005 A 
ENDROOT
BRANCH   2   7
ATOM      7  C   UNL d   1      32.971  19.197 -23.486  0.00  0.00     0.279 C 
ATOM      8  N   UNL d   1      32.710  18.434 -23.284  0.00  0.00    -0.206 NA
ATOM      9  O   UNL d   1      33.235  19.376 -24.226  0.00  0.00    -0.265 OA
BRANCH   8  10
ATOM     10  C   UNL d   1      32.723  17.851 -23.853  0.00  0.00     0.104 C 
BRANCH  10  11
ATOM     11  C   UNL d   1      32.428  17.115 -23.679  0.00  0.00     0.038 A 
ATOM     12  C   UNL d   1      32.928  16.514 -23.392  0.00  0.00     0.101 A 
ATOM     13  N   UNL d   1      32.634  15.778 -23.217  0.00  0.00    -0.242 NA
ATOM     14  C   UNL d   1      31.830  15.618 -23.324  0.00  0.00     0.099 A 
ATOM     15  C   UNL d   1      31.330  16.202 -23.606  0.00  0.00     0.021 A 
ATOM     16  C   UNL d   1      31.640  16.960 -23.784  0.00  0.00     0.005 A 
ENDBRANCH  10  11
ENDBRANCH   8  10
ENDBRANCH   2   7
BRANCH   1  17
ATOM     17  S   UNL d   1      32.905  21.570 -21.139  0.00  0.00     0.271 S 
ATOM     18  O   UNL d   1      33.165  21.027 -20.564  0.00  0.00    -0.200 OA
ATOM     19  O   UNL d   1      32.637  22.127 -21.729  0.00  0.00    -0.200 OA
BRANCH  17  20
ATOM     20  N   UNL d   1      32.888  22.174 -20.561  0.00  0.00    -0.229 N 
ATOM     21  C   UNL d   1      33.235  22.035 -19.828  0.00  0.00     0.092 A 
ATOM     22  C   UNL d   1      33.218  22.625 -19.265  0.00  0.00     0.020 A 
ATOM     23  C   UNL d   1      32.846  23.357 -19.451  0.00  0.00     0.003 A 
ATOM     24  C   UNL d   1      32.508  23.480 -20.178  0.00  0.00     0.020 A 
ATOM     25  C   UNL d   1      32.530  22.885 -20.734  0.00  0.00     0.092 A 
ENDBRANCH  17  20
ENDBRANCH   1  17
TORSDOF 5
ENDMDL
MODEL 2
REMARK VINA RESULT:      -2.4      1.203      1.907
REMARK  5 active torsions:
REMARK  status: ('A' for Active; 'I' for Inactive)
REMARK    1  A    between atoms: N_2  and  S_1 
REMARK    2  A    between atoms: C_4  and  S_1 
REMARK    3  A    between atoms: C_3  and  C_8 
REMARK       I    between atoms: N_7  and  C_3 
REMARK    4  A    between atoms: C_16  and  N_7 
REMARK    5  A    between atoms: C_15  and  C_16 
ROOT
ATOM      1  C   UNL d   1      32.833  22.057 -20.503  0.00  0.00     0.104 A 
ATOM      2  C   UNL d   1      33.030  21.251 -21.927  0.00  0.00     0.058 A 
ATOM      3  C   UNL d   1      32.768  21.235 -20.525  0.00  0.00     0.013 A 
ATOM      4  C   UNL d   1      33.001  22.475 -21.211  0.00  0.00     0.013 A 
ATOM      5  C   UNL d   1      32.863  20.824 -21.223  0.00  0.00     0.005 A 
ATOM      6  C   UNL d   1      33.098  22.057 -21.924  0.00  0.00     0.005 A 
ENDROOT
BRANCH   2   7
ATOM      7  C   UNL d   1      33.132  20.833 -22.668  0.00  0.00     0.279 C 
ATOM      8  N   UNL d   1      33.134  20.001 -22.652  0.00  0.00    -0.206 NA
ATOM      9  O   UNL d   1      33.223  21.246 -23.354  0.00  0.00    -0.265 OA
BRANCH   8  10
ATOM     10  C   UNL d   1      33.231  19.594 -23.351  0.00  0.00     0.104 C 
BRANCH  10  11
ATOM     11  C   UNL d   1      33.000  18.818 -23.398  0.00  0.00     0.038 A 
ATOM     12  C   UNL d   1      33.194  18.280 -22.793  0.00  0.00     0.101 A 
ATOM     13  N   UNL d   1      32.964  17.503 -22.840  0.00  0.00    -0.242 NA
ATOM     14  C   UNL d   1      32.531  17.238 -23.493  0.00  0.00     0.099 A 
ATOM     15  C   UNL d   1      32.335  17.760 -24.093  0.00  0.00     0.021 A 
ATOM     16  C   UNL d   1      32.577  18.561 -24.039  0.00  0.00     0.005 A 
ENDBRANCH  10  11
ENDBRANCH   8  10
ENDBRANCH   2   7
BRANCH   1  17
ATOM     17  S   UNL d   1      32.736  22.476 -19.790  0.00  0.00     0.271 S 
ATOM     18  O   UNL d   1      32.741  23.196 -20.207  0.00  0.00    -0.200 OA
ATOM     19  O   UNL d   1      32.731  21.737 -19.360  0.00  0.00    -0.200 OA
BRANCH  17  20
ATOM     20  N   UNL d   1      32.638  22.894 -19.072  0.00  0.00    -0.229 N 
ATOM     21  C   UNL d   1      31.933  23.296 -18.936  0.00  0.00     0.092 A 
ATOM     22  C   UNL d   1      31.840  23.702 -18.236  0.00  0.00     0.020 A 
ATOM     23  C   UNL d   1      32.466  23.699 -17.674  0.00  0.00     0.003 A 
ATOM     24  C   UNL d   1      33.156  23.298 -17.820  0.00  0.00     0.020 A 
ATOM     25  C   UNL d   1      33.241  22.894 -18.524  0.00  0.00     0.092 A 
ENDBRANCH  17  20
ENDBRANCH   1  17
TORSDOF 5
ENDMDL
MODEL 3
REMARK VINA RESULT:      -2.2      1.331      5.588
REMARK  5 active torsions:
REMARK  status: ('A' for Active; 'I' for Inactive)
REMARK    1  A    between atoms: N_2  and  S_1 
REMARK    2  A    between atoms: C_4  and  S_1 
REMARK    3  A    between atoms: C_3  and  C_8 
REMARK       I    between atoms: N_7  and  C_3 
REMARK    4  A    between atoms: C_16  and  N_7 
REMARK    5  A    between atoms: C_15  and  C_16 
ROOT
ATOM      1  C   UNL d   1      32.663  18.907 -23.188  0.00  0.00     0.104 A 
ATOM      2  C   UNL d   1      32.952  20.496 -22.862  0.00  0.00     0.058 A 
ATOM      3  C   UNL d   1      32.534  19.203 -22.429  0.00  0.00     0.013 A 
ATOM      4  C   UNL d   1      32.941  19.422 -23.789  0.00  0.00     0.013 A 
ATOM      5  C   UNL d   1      32.673  19.987 -22.254  0.00  0.00     0.005 A 
ATOM      6  C   UNL d   1      33.083  20.223 -23.611  0.00  0.00     0.005 A 
ENDROOT
BRANCH   2   7
ATOM      7  C   UNL d   1      33.102  21.323 -22.692  0.00  0.00     0.279 C 
ATOM      8  N   UNL d   1      33.099  21.567 -21.898  0.00  0.00    -0.206 NA
ATOM      9  O   UNL d   1      33.241  21.838 -23.297  0.00  0.00    -0.265 OA
BRANCH   8  10
ATOM     10  C   UNL d   1      33.241  22.352 -21.727  0.00  0.00     0.104 C 
BRANCH  10  11
ATOM     11  C   UNL d   1      32.902  22.686 -21.070  0.00  0.00     0.038 A 
ATOM     12  C   UNL d   1      32.241  23.188 -21.141  0.00  0.00     0.101 A 
ATOM     13  N   UNL d   1      31.902  23.522 -20.484  0.00  0.00    -0.242 NA
ATOM     14  C   UNL d   1      32.212  23.366 -19.733  0.00  0.00     0.099 A 
ATOM     15  C   UNL d   1      32.862  22.874 -19.653  0.00  0.00     0.021 A 
ATOM     16  C   UNL d   1      33.208  22.532 -20.336  0.00  0.00     0.005 A 
ENDBRANCH  10  11
ENDBRANCH   8  10
ENDBRANCH   2   7
BRANCH   1  17
ATOM     17  S   UNL d   1      32.521  18.106 -23.366  0.00  0.00     0.271 S 
ATOM     18  O   UNL d   1      33.192  17.885 -22.926  0.00  0.00    -0.200 OA
ATOM     19  O   UNL d   1      31.832  18.331 -23.817  0.00  0.00    -0.200 OA
BRANCH  17  20
ATOM     20  N   UNL d   1      32.376  17.302 -23.546  0.00  0.00    -0.229 N 
ATOM     21  C   UNL d   1      32.992  16.839 -23.835  0.00  0.00     0.092 A 
ATOM     22  C   UNL d   1      32.848  16.056 -24.010  0.00  0.00     0.020 A 
ATOM     23  C   UNL d   1      32.076  15.745 -23.891  0.00  0.00     0.003 A 
ATOM     24  C   UNL d   1      31.477  16.212 -23.606  0.00  0.00     0.020 A 
ATOM     25  C   UNL d   1      31.630  16.995 -23.433  0.00  0.00     0.092 A 
ENDBRANCH  17  20
ENDBRANCH   1  17
TORSDOF 5
ENDMDL
MODEL 4
REMARK VINA RESULT:      -1.2      1.620      5.887
REMARK  5 active torsions:
REMARK  status: ('A' for Active; 'I' for Inactive)
REMARK    1  A    between atoms: N_2  and  S_1 
REMARK    2  A    between atoms: C_4  and  S_1 
REMARK    3  A    between atoms: C_3  and  C_8 
REMARK       I    between atoms: N_7  and  C_3 
REMARK    4  A    between atoms: C_16  and  N_7 
REMARK    5  A    between atoms: C_15  and  C_16 
ROOT
ATOM      1  C   UNL d   1      32.569  20.814 -21.598  0.00  0.00     0.104 A 
ATOM      2  C   UNL d   1      32.390  22.096 -20.580  0.00  0.00     0.058 A 
ATOM      3  C   UNL d   1      31.815  21.063 -21.376  0.00  0.00     0.013 A 
ATOM      4  C   UNL d   1      33.241  21.220 -21.301  0.00  0.00     0.013 A 
ATOM      5  C   UNL d   1      31.712  21.696 -20.872  0.00  0.00     0.005 A 
ATOM      6  C   UNL d   1      33.136  21.867 -20.787  0.00  0.00     0.005 A 
ENDROOT
BRANCH   2   7
ATOM      7  C   UNL d   1      32.297  22.764 -20.050  0.00  0.00     0.279 C 
ATOM      8  N   UNL d   1      32.742  22.773 -19.347  0.00  0.00    -0.206 NA
ATOM      9  O   UNL d   1      31.789  23.360 -20.240  0.00  0.00    -0.265 OA
BRANCH   8  10
ATOM     10  C   UNL d   1      32.660  23.403 -18.837  0.00  0.00     0.104 C 
BRANCH  10  11
ATOM     11  C   UNL d   1      32.687  23.276 -18.037  0.00  0.00     0.038 A 
ATOM     12  C   UNL d   1      32.185  22.717 -17.677  0.00  0.00     0.101 A 
ATOM     13  N   UNL d   1      32.213  22.590 -16.877  0.00  0.00    -0.242 NA
ATOM     14  C   UNL d   1      32.742  23.018 -16.407  0.00  0.00     0.099 A 
ATOM     15  C   UNL d   1      33.240  23.570 -16.751  0.00  0.00     0.021 A 
ATOM     16  C   UNL d   1      33.207  23.697 -17.579  0.00  0.00     0.005 A 
ENDBRANCH  10  11
ENDBRANCH   8  10
ENDBRANCH   2   7
BRANCH   1  17
ATOM     17  S   UNL d   1      32.674  20.167 -22.112  0.00  0.00     0.271 S 
ATOM     18  O   UNL d   1      32.861  19.678 -21.465  0.00  0.00    -0.200 OA
ATOM     19  O   UNL d   1      32.481  20.668 -22.777  0.00  0.00    -0.200 OA
BRANCH  17  20
ATOM     20  N   UNL d   1      32.778  19.519 -22.631  0.00  0.00    -0.229 N 
ATOM     21  C   UNL d   1      33.013  18.794 -22.323  0.00  0.00     0.092 A 
ATOM     22  C   UNL d   1      33.114  18.164 -22.830  0.00  0.00     0.020 A 
ATOM     23  C   UNL d   1      32.974  18.274 -23.652  0.00  0.00     0.003 A 
ATOM     24  C   UNL d   1      32.743  18.995 -23.943  0.00  0.00     0.020 A 
ATOM     25  C   UNL d   1      32.644  19.620 -23.429  0.00  0.00     0.092 A 
ENDBRANCH  17  20
ENDBRANCH   1  17
TORSDOF 5
ENDMDL
