MODEL 1
REMARK VINA RESULT:      38.7      0.000      0.000
REMARK  2 active torsions:
REMARK  status: ('A' for Active; 'I' for Inactive)
REMARK    1  A    between atoms: N_8  and  C_3 
REMARK    2  A    between atoms: C_7  and  N_9 
ROOT
ATOM      1  N   UNL d   1     -55.005-102.087 -38.008  0.00  0.00    -0.286 N 
ATOM      2  N   UNL d   1     -54.885-102.045 -39.672  0.00  0.00    -0.135 N 
ATOM      3  C   UNL d   1     -54.922-101.378 -38.421  0.00  0.00     0.101 A 
ATOM      4  C   UNL d   1     -55.029-102.788 -38.433  0.00  0.00     0.101 A 
ATOM      5  C   UNL d   1     -54.972-102.798 -39.260  0.00  0.00     0.117 A 
ATOM      6  C   UNL d   1     -54.862-101.357 -39.248  0.00  0.00     0.117 A 
ENDROOT
BRANCH   1   7
ATOM      7  C   UNL d   1     -55.062-102.108 -37.213  0.00  0.00     0.152 A 
ATOM      8  C   UNL d   1     -54.989-101.427 -36.753  0.00  0.00     0.059 A 
ATOM      9  C   UNL d   1     -55.049-101.448 -35.927  0.00  0.00     0.115 A 
ATOM     10  C   UNL d   1     -54.857-100.660 -36.975  0.00  0.00     0.011 A 
ATOM     11  S   UNL d   1     -54.953-100.693 -35.650  0.00  0.00    -0.068 SA
ATOM     12  N   UNL d   1     -55.182-102.150 -35.549  0.00  0.00    -0.217 NA
ATOM     13  C   UNL d   1     -54.838-100.219 -36.279  0.00  0.00     0.031 A 
ATOM     14  C   UNL d   1     -54.713 -99.388 -36.249  0.00  0.00     0.007 C 
ATOM     15  C   UNL d   1     -55.263-102.876 -35.979  0.00  0.00     0.201 A 
ATOM     16  N   UNL d   1     -55.201-102.854 -36.837  0.00  0.00    -0.206 NA
ATOM     17  C   UNL d   1     -54.754-100.334 -37.765  0.00  0.00     0.001 C 
ENDBRANCH   1   7
BRANCH   2  18
ATOM     18  C   UNL d   1     -54.826-102.062 -40.538  0.00  0.00     0.735 A 
ATOM     19  N   UNL d   1     -54.774-101.371 -40.910  0.00  0.00    -0.059 NA
ATOM     20  C   UNL d   1     -54.715-101.350 -41.748  0.00  0.00     0.120 A 
ATOM     21  C   UNL d   1     -54.713-102.052 -42.159  0.00  0.00     0.043 A 
ATOM     22  C   UNL d   1     -54.768-102.762 -41.749  0.00  0.00     0.120 A 
ATOM     23  N   UNL d   1     -54.824-102.783 -40.949  0.00  0.00    -0.059 NA
ENDBRANCH   2  18
TORSDOF 2
ENDMDL
