MODEL 1
REMARK VINA RESULT:      43.1      0.000      0.000
REMARK  7 active torsions:
REMARK  status: ('A' for Active; 'I' for Inactive)
REMARK    1  A    between atoms: C_6  and  C_1 
REMARK    2  A    between atoms: O_8  and  C_6 
REMARK    3  A    between atoms: C_13  and  O_8 
REMARK    4  A    between atoms: C_9  and  C_13 
REMARK    5  A    between atoms: C_15  and  C_9 
REMARK    6  A    between atoms: C_19  and  C_11 
REMARK    7  A    between atoms: C_16  and  C_19 
ROOT
ATOM      1  C   UNL d   1     -50.660  26.469  33.525  0.00  0.00     0.127 A 
ATOM      2  C   UNL d   1     -51.511  26.382  33.487  0.00  0.00     0.305 A 
ATOM      3  O   UNL d   1     -51.858  25.648  33.428  0.00  0.00    -0.273 OA
ATOM      4  C   UNL d   1     -50.212  25.816  33.500  0.00  0.00     0.013 A 
ATOM      5  C   UNL d   1     -51.366  24.985  33.405  0.00  0.00     0.103 A 
ATOM      6  C   UNL d   1     -50.546  25.068  33.441  0.00  0.00     0.023 A 
ATOM      7  O   UNL d   1     -52.053  27.057  33.509  0.00  0.00    -0.259 OA
ATOM      8  C   UNL d   1     -51.712  24.246  33.345  0.00  0.00     0.023 A 
ATOM      9  C   UNL d   1     -50.066  24.414  33.417  0.00  0.00     0.002 A 
ATOM     10  C   UNL d   1     -50.369  23.685  33.360  0.00  0.00     0.000 A 
ATOM     11  C   UNL d   1     -51.221  23.598  33.323  0.00  0.00     0.002 A 
ENDROOT
BRANCH   1  12
ATOM     12  C   UNL d   1     -50.275  27.206  33.585  0.00  0.00     0.305 C 
ATOM     13  O   UNL d   1     -50.679  27.907  33.374  0.00  0.00    -0.259 OA
BRANCH  12  14
ATOM     14  O   UNL d   1     -49.465  27.253  33.865  0.00  0.00    -0.268 OA
BRANCH  14  15
ATOM     15  C   UNL d   1     -49.229  27.965  34.168  0.00  0.00     0.168 C 
BRANCH  15  16
ATOM     16  C   UNL d   1     -48.492  28.010  34.536  0.00  0.00     0.220 C 
ATOM     17  O   UNL d   1     -48.006  27.347  34.560  0.00  0.00    -0.284 OA
BRANCH  16  18
ATOM     18  C   UNL d   1     -48.223  28.719  34.890  0.00  0.00     0.041 A 
ATOM     19  C   UNL d   1     -48.240  29.413  34.466  0.00  0.00     0.003 A 
ATOM     20  C   UNL d   1     -47.974  30.110  34.820  0.00  0.00     0.000 A 
ATOM     21  C   UNL d   1     -47.684  30.104  35.622  0.00  0.00     0.000 A 
ATOM     22  C   UNL d   1     -47.676  29.389  36.033  0.00  0.00     0.000 A 
ATOM     23  C   UNL d   1     -47.947  28.695  35.663  0.00  0.00     0.003 A 
ENDBRANCH  16  18
ENDBRANCH  15  16
ENDBRANCH  14  15
ENDBRANCH  12  14
ENDBRANCH   1  12
BRANCH   8  24
ATOM     24  C   UNL d   1     -52.529  24.136  33.308  0.00  0.00     0.002 C 
BRANCH  24  25
ATOM     25  C   UNL d   1     -52.828  23.389  33.393  0.00  0.00     0.000 C 
ATOM     26  C   UNL d   1     -53.667  23.285  33.535  0.00  0.00     0.000 C 
ENDBRANCH  24  25
ENDBRANCH   8  24
TORSDOF 7
ENDMDL
