MODEL 1
REMARK VINA RESULT:      -2.8      0.000      0.000
REMARK  2 active torsions:
REMARK  status: ('A' for Active; 'I' for Inactive)
REMARK       I    between atoms: C_6  and  N_8 
REMARK    1  A    between atoms: C_7  and  C_6 
REMARK    2  A    between atoms: N_8  and  C_11 
ROOT
ATOM      1  N   UNL d   1      33.218  20.184 -23.677  0.00  0.00    -0.246 NA
ATOM      2  C   UNL d   1      33.207  19.450 -22.557  0.00  0.00     0.019 A 
ATOM      3  C   UNL d   1      33.207  20.223 -22.853  0.00  0.00     0.081 A 
ATOM      4  C   UNL d   1      33.218  18.943 -23.200  0.00  0.00     0.021 A 
ATOM      5  C   UNL d   1      33.225  19.405 -23.884  0.00  0.00     0.082 A 
ATOM      6  C   UNL d   1      33.223  18.127 -23.247  0.00  0.00     0.021 A 
ATOM      7  C   UNL d   1      33.234  17.754 -23.987  0.00  0.00     0.085 A 
ATOM      8  C   UNL d   1      33.236  19.034 -24.631  0.00  0.00     0.021 A 
ATOM      9  C   UNL d   1      33.241  18.213 -24.673  0.00  0.00     0.021 A 
ATOM     10  C   UNL d   1      33.197  19.313 -21.733  0.00  0.00     0.002 A 
ATOM     11  C   UNL d   1      33.197  20.862 -22.326  0.00  0.00     0.019 A 
ATOM     12  C   UNL d   1      33.187  19.951 -21.211  0.00  0.00     0.000 A 
ATOM     13  C   UNL d   1      33.187  20.725 -21.507  0.00  0.00     0.002 A 
ENDROOT
BRANCH   7  14
ATOM     14  N   UNL d   1      33.239  16.909 -24.033  0.00  0.00    -0.206 NA
ATOM     15  C   UNL d   1      32.539  16.498 -24.198  0.00  0.00     0.302 C 
ATOM     16  O   UNL d   1      32.561  15.685 -24.239  0.00  0.00    -0.263 OA
BRANCH  15  17
ATOM     17  C   UNL d   1      31.823  16.920 -24.319  0.00  0.00     0.158 A 
ATOM     18  O   UNL d   1      31.565  17.428 -24.918  0.00  0.00    -0.300 OA
ATOM     19  C   UNL d   1      30.808  17.672 -24.729  0.00  0.00     0.123 A 
ATOM     20  C   UNL d   1      30.595  17.325 -24.029  0.00  0.00     0.029 A 
ATOM     21  C   UNL d   1      31.225  16.863 -23.780  0.00  0.00     0.032 A 
ENDBRANCH  15  17
ENDBRANCH   7  14
TORSDOF 2
ENDMDL
MODEL 2
REMARK VINA RESULT:      -2.4      2.171      4.322
REMARK  2 active torsions:
REMARK  status: ('A' for Active; 'I' for Inactive)
REMARK       I    between atoms: C_6  and  N_8 
REMARK    1  A    between atoms: C_7  and  C_6 
REMARK    2  A    between atoms: N_8  and  C_11 
ROOT
ATOM      1  N   UNL d   1      29.791  15.453 -25.023  0.00  0.00    -0.246 NA
ATOM      2  C   UNL d   1      29.490  15.973 -23.826  0.00  0.00     0.019 A 
ATOM      3  C   UNL d   1      29.170  15.635 -24.511  0.00  0.00     0.081 A 
ATOM      4  C   UNL d   1      30.302  15.995 -23.922  0.00  0.00     0.021 A 
ATOM      5  C   UNL d   1      30.477  15.673 -24.661  0.00  0.00     0.082 A 
ATOM      6  C   UNL d   1      30.898  16.266 -23.433  0.00  0.00     0.021 A 
ATOM      7  C   UNL d   1      31.689  16.219 -23.677  0.00  0.00     0.085 A 
ATOM      8  C   UNL d   1      31.271  15.623 -24.911  0.00  0.00     0.021 A 
ATOM      9  C   UNL d   1      31.868  15.897 -24.416  0.00  0.00     0.021 A 
ATOM     10  C   UNL d   1      28.989  16.216 -23.203  0.00  0.00     0.002 A 
ATOM     11  C   UNL d   1      28.349  15.540 -24.575  0.00  0.00     0.019 A 
ATOM     12  C   UNL d   1      28.173  16.120 -23.269  0.00  0.00     0.000 A 
ATOM     13  C   UNL d   1      27.853  15.782 -23.955  0.00  0.00     0.002 A 
ENDROOT
BRANCH   7  14
ATOM     14  N   UNL d   1      32.304  16.499 -23.169  0.00  0.00    -0.206 NA
ATOM     15  C   UNL d   1      32.650  17.240 -23.305  0.00  0.00     0.302 C 
ATOM     16  O   UNL d   1      33.241  17.495 -22.807  0.00  0.00    -0.263 OA
BRANCH  15  17
ATOM     17  C   UNL d   1      32.390  17.713 -23.949  0.00  0.00     0.158 A 
ATOM     18  O   UNL d   1      31.662  18.061 -24.132  0.00  0.00    -0.300 OA
ATOM     19  C   UNL d   1      31.748  18.459 -24.840  0.00  0.00     0.123 A 
ATOM     20  C   UNL d   1      32.511  18.364 -25.096  0.00  0.00     0.029 A 
ATOM     21  C   UNL d   1      32.902  17.903 -24.542  0.00  0.00     0.032 A 
ENDBRANCH  15  17
ENDBRANCH   7  14
TORSDOF 2
ENDMDL
MODEL 3
REMARK VINA RESULT:      -2.4      2.049      3.427
REMARK  2 active torsions:
REMARK  status: ('A' for Active; 'I' for Inactive)
REMARK       I    between atoms: C_6  and  N_8 
REMARK    1  A    between atoms: C_7  and  C_6 
REMARK    2  A    between atoms: N_8  and  C_11 
ROOT
ATOM      1  N   UNL d   1      32.112  17.049 -23.220  0.00  0.00    -0.246 NA
ATOM      2  C   UNL d   1      31.746  17.571 -24.398  0.00  0.00     0.019 A 
ATOM      3  C   UNL d   1      32.271  17.649 -23.762  0.00  0.00     0.081 A 
ATOM      4  C   UNL d   1      31.270  16.924 -24.241  0.00  0.00     0.021 A 
ATOM      5  C   UNL d   1      31.503  16.610 -23.514  0.00  0.00     0.082 A 
ATOM      6  C   UNL d   1      30.659  16.585 -24.665  0.00  0.00     0.021 A 
ATOM      7  C   UNL d   1      30.265  15.919 -24.367  0.00  0.00     0.085 A 
ATOM      8  C   UNL d   1      31.111  15.940 -23.210  0.00  0.00     0.021 A 
ATOM      9  C   UNL d   1      30.496  15.602 -23.641  0.00  0.00     0.021 A 
ATOM     10  C   UNL d   1      31.776  18.106 -25.038  0.00  0.00     0.002 A 
ATOM     11  C   UNL d   1      32.828  18.264 -23.766  0.00  0.00     0.019 A 
ATOM     12  C   UNL d   1      32.330  18.717 -25.039  0.00  0.00     0.000 A 
ATOM     13  C   UNL d   1      32.856  18.795 -24.403  0.00  0.00     0.002 A 
ENDROOT
BRANCH   7  14
ATOM     14  N   UNL d   1      29.633  15.570 -24.808  0.00  0.00    -0.206 NA
ATOM     15  C   UNL d   1      28.850  15.799 -24.664  0.00  0.00     0.302 C 
ATOM     16  O   UNL d   1      28.254  15.454 -25.097  0.00  0.00    -0.263 OA
BRANCH  15  17
ATOM     17  C   UNL d   1      28.683  16.378 -24.078  0.00  0.00     0.158 A 
ATOM     18  O   UNL d   1      28.765  17.201 -24.061  0.00  0.00    -0.300 OA
ATOM     19  C   UNL d   1      28.508  17.462 -23.331  0.00  0.00     0.123 A 
ATOM     20  C   UNL d   1      28.270  16.819 -22.899  0.00  0.00     0.029 A 
ATOM     21  C   UNL d   1      28.381  16.154 -23.365  0.00  0.00     0.032 A 
ENDBRANCH  15  17
ENDBRANCH   7  14
TORSDOF 2
ENDMDL
MODEL 4
REMARK VINA RESULT:      -0.7      0.980      1.584
REMARK  2 active torsions:
REMARK  status: ('A' for Active; 'I' for Inactive)
REMARK       I    between atoms: C_6  and  N_8 
REMARK    1  A    between atoms: C_7  and  C_6 
REMARK    2  A    between atoms: N_8  and  C_11 
ROOT
ATOM      1  N   UNL d   1      33.041  18.718 -21.951  0.00  0.00    -0.246 NA
ATOM      2  C   UNL d   1      33.112  19.141 -23.219  0.00  0.00     0.019 A 
ATOM      3  C   UNL d   1      33.111  19.386 -22.429  0.00  0.00     0.081 A 
ATOM      4  C   UNL d   1      33.042  18.326 -23.221  0.00  0.00     0.021 A 
ATOM      5  C   UNL d   1      33.000  18.075 -22.436  0.00  0.00     0.082 A 
ATOM      6  C   UNL d   1      33.013  17.785 -23.833  0.00  0.00     0.021 A 
ATOM      7  C   UNL d   1      32.940  16.975 -23.670  0.00  0.00     0.085 A 
ATOM      8  C   UNL d   1      32.926  17.262 -22.266  0.00  0.00     0.021 A 
ATOM      9  C   UNL d   1      32.897  16.722 -22.886  0.00  0.00     0.021 A 
ATOM     10  C   UNL d   1      33.176  19.702 -23.835  0.00  0.00     0.002 A 
ATOM     11  C   UNL d   1      33.174  20.194 -22.252  0.00  0.00     0.019 A 
ATOM     12  C   UNL d   1      33.239  20.504 -23.657  0.00  0.00     0.000 A 
ATOM     13  C   UNL d   1      33.238  20.750 -22.865  0.00  0.00     0.002 A 
ENDROOT
BRANCH   7  14
ATOM     14  N   UNL d   1      32.911  16.418 -24.305  0.00  0.00    -0.206 NA
ATOM     15  C   UNL d   1      32.202  16.026 -24.482  0.00  0.00     0.302 C 
ATOM     16  O   UNL d   1      32.191  15.493 -25.096  0.00  0.00    -0.263 OA
BRANCH  15  17
ATOM     17  C   UNL d   1      31.512  16.182 -24.029  0.00  0.00     0.158 A 
ATOM     18  O   UNL d   1      31.343  16.119 -23.222  0.00  0.00    -0.300 OA
ATOM     19  C   UNL d   1      30.568  16.353 -23.110  0.00  0.00     0.123 A 
ATOM     20  C   UNL d   1      30.257  16.558 -23.829  0.00  0.00     0.029 A 
ATOM     21  C   UNL d   1      30.844  16.451 -24.392  0.00  0.00     0.032 A 
ENDBRANCH  15  17
ENDBRANCH   7  14
TORSDOF 2
ENDMDL
