MODEL 1
REMARK VINA RESULT:      19.6      0.000      0.000
REMARK  1 active torsions:
REMARK  status: ('A' for Active; 'I' for Inactive)
REMARK    1  A    between atoms: C_12  and  N_4 
ROOT
ATOM      1  C   UNL d   1      14.002  12.849  -2.344  0.00  0.00     0.081 A 
ATOM      2  C   UNL d   1      13.687  12.093  -2.331  0.00  0.00     0.118 A 
ATOM      3  C   UNL d   1      13.909  13.322  -3.031  0.00  0.00     0.268 A 
ATOM      4  N   UNL d   1      13.504  13.029  -3.685  0.00  0.00    -0.249 N 
ATOM      5  N   UNL d   1      13.279  11.779  -2.972  0.00  0.00    -0.212 NA
ATOM      6  C   UNL d   1      13.186  12.253  -3.659  0.00  0.00     0.209 A 
ATOM      7  S   UNL d   1      13.881  11.779  -1.568  0.00  0.00    -0.068 SA
ATOM      8  C   UNL d   1      14.373  12.993  -1.621  0.00  0.00     0.013 A 
ATOM      9  C   UNL d   1      14.280  12.302  -1.155  0.00  0.00     0.031 A 
ATOM     10  S   UNL d   1      12.769  11.920  -4.304  0.00  0.00    -0.038 SA
ATOM     11  O   UNL d   1      14.226  14.109  -3.069  0.00  0.00    -0.267 OA
ATOM     12  C   UNL d   1      14.777  13.647  -1.324  0.00  0.00     0.001 A 
ATOM     13  C   UNL d   1      14.601  12.285  -0.387  0.00  0.00     0.006 A 
ATOM     14  C   UNL d   1      15.091  13.622  -0.568  0.00  0.00     0.000 A 
ATOM     15  C   UNL d   1      15.006  12.950  -0.101  0.00  0.00     0.001 A 
ENDROOT
BRANCH   4  16
ATOM     16  C   UNL d   1      13.418  13.508  -4.361  0.00  0.00     0.085 C 
ATOM     17  C   UNL d   1      12.813  14.060  -4.403  0.00  0.00     0.021 C 
ENDBRANCH   4  16
TORSDOF 1
ENDMDL
