MODEL 1
REMARK VINA RESULT:      14.6      0.000      0.000
REMARK  2 active torsions:
REMARK  status: ('A' for Active; 'I' for Inactive)
REMARK    1  A    between atoms: C_6  and  C_1 
REMARK    2  A    between atoms: O_15  and  C_12 
ROOT
ATOM      1  C   UNL d   1     -52.274  24.596  33.439  0.00  0.00     0.128 A 
ATOM      2  C   UNL d   1     -51.679  23.996  33.384  0.00  0.00     0.306 A 
ATOM      3  C   UNL d   1     -52.046  25.380  33.448  0.00  0.00     0.013 A 
ATOM      4  O   UNL d   1     -50.899  24.225  33.342  0.00  0.00    -0.273 OA
ATOM      5  C   UNL d   1     -51.275  25.591  33.406  0.00  0.00     0.025 A 
ATOM      6  C   UNL d   1     -50.679  24.992  33.350  0.00  0.00     0.103 A 
ATOM      7  O   UNL d   1     -51.903  23.189  33.374  0.00  0.00    -0.259 OA
ATOM      8  C   UNL d   1     -51.041  26.380  33.414  0.00  0.00     0.026 A 
ATOM      9  C   UNL d   1     -49.895  25.225  33.308  0.00  0.00     0.027 A 
ATOM     10  C   UNL d   1     -50.249  26.614  33.371  0.00  0.00     0.094 A 
ATOM     11  C   UNL d   1     -49.653  26.014  33.316  0.00  0.00     0.026 A 
ENDROOT
BRANCH   1  12
ATOM     12  C   UNL d   1     -53.085  24.379  33.484  0.00  0.00     0.216 C 
ATOM     13  O   UNL d   1     -53.669  24.938  33.330  0.00  0.00    -0.644 OA
ATOM     14  O   UNL d   1     -53.295  23.597  33.685  0.00  0.00    -0.644 OA
ENDBRANCH   1  12
BRANCH  10  15
ATOM     15  O   UNL d   1     -50.038  27.415  33.381  0.00  0.00    -0.328 OA
ATOM     16  C   UNL d   1     -50.617  27.998  33.387  0.00  0.00     0.181 C 
ENDBRANCH  10  15
TORSDOF 2
ENDMDL
