MODEL 1
REMARK VINA RESULT:      74.9      0.000      0.000
REMARK  8 active torsions:
REMARK  status: ('A' for Active; 'I' for Inactive)
REMARK    1  A    between atoms: C_10  and  C_3 
REMARK       I    between atoms: N_14  and  C_10 
REMARK    2  A    between atoms: C_12  and  C_13 
REMARK       I    between atoms: N_21  and  C_12 
REMARK    3  A    between atoms: C_29  and  N_14 
REMARK    4  A    between atoms: C_28  and  N_21 
REMARK    5  A    between atoms: O_30  and  C_22 
REMARK    6  A    between atoms: C_23  and  C_31 
REMARK    7  A    between atoms: C_31  and  C_28 
REMARK    8  A    between atoms: C_32  and  O_30 
ROOT
ATOM      1  N   UNL d   1      45.846 -19.003  41.201  0.00  0.00    -0.277 N 
ATOM      2  C   UNL d   1      45.767 -18.917  42.026  0.00  0.00     0.163 A 
ATOM      3  C   UNL d   1      46.186 -19.534  42.382  0.00  0.00     0.124 A 
ATOM      4  C   UNL d   1      46.313 -19.672  41.058  0.00  0.00     0.152 A 
ATOM      5  N   UNL d   1      45.328 -18.294  42.336  0.00  0.00    -0.190 NA
ATOM      6  S   UNL d   1      46.520 -19.996  41.794  0.00  0.00    -0.051 SA
ATOM      7  C   UNL d   1      45.485 -18.465  40.693  0.00  0.00     0.071 A 
ATOM      8  C   UNL d   1      45.045 -17.841  41.003  0.00  0.00     0.074 A 
ATOM      9  C   UNL d   1      44.967 -17.755  41.828  0.00  0.00     0.282 A 
ATOM     10  C   UNL d   1      45.563 -18.550  39.872  0.00  0.00     0.023 A 
ATOM     11  C   UNL d   1      45.202 -18.011  39.366  0.00  0.00     0.059 A 
ATOM     12  S   UNL d   1      46.527 -19.957  40.313  0.00  0.00    -0.052 SA
ATOM     13  C   UNL d   1      44.682 -17.298  40.495  0.00  0.00     0.006 A 
ATOM     14  O   UNL d   1      44.520 -17.120  42.140  0.00  0.00    -0.265 OA
ATOM     15  C   UNL d   1      44.760 -17.384  39.674  0.00  0.00     0.005 A 
ENDROOT
BRANCH  11  16
ATOM     16  C   UNL d   1      45.280 -18.096  38.549  0.00  0.00     0.279 C 
ATOM     17  O   UNL d   1      45.508 -18.821  38.229  0.00  0.00    -0.265 OA
ATOM     18  N   UNL d   1      45.130 -17.458  38.051  0.00  0.00    -0.206 NA
BRANCH  18  19
ATOM     19  C   UNL d   1      44.902 -16.734  38.371  0.00  0.00     0.102 C 
BRANCH  19  20
ATOM     20  C   UNL d   1      44.875 -16.065  37.895  0.00  0.00     0.021 C 
BRANCH  20  21
ATOM     21  C   UNL d   1      44.163 -15.851  37.531  0.00  0.00     0.002 A 
ATOM     22  C   UNL d   1      43.492 -15.737  37.992  0.00  0.00     0.002 A 
ATOM     23  C   UNL d   1      42.780 -15.525  37.636  0.00  0.00     0.025 A 
ATOM     24  C   UNL d   1      42.741 -15.427  36.818  0.00  0.00     0.100 A 
ATOM     25  C   UNL d   1      43.413 -15.541  36.356  0.00  0.00     0.025 A 
ATOM     26  C   UNL d   1      44.124 -15.753  36.712  0.00  0.00     0.002 A 
BRANCH  24  27
ATOM     27  O   UNL d   1      42.025 -15.213  36.461  0.00  0.00    -0.305 OA
BRANCH  27  28
ATOM     28  C   UNL d   1      41.353 -15.672  36.584  0.00  0.00     0.123 C 
ATOM     29  C   UNL d   1      40.685 -15.342  36.951  0.00  0.00     0.029 C 
ENDBRANCH  27  28
ENDBRANCH  24  27
ENDBRANCH  20  21
ENDBRANCH  19  20
ENDBRANCH  18  19
ENDBRANCH  11  16
BRANCH   3  30
ATOM     30  C   UNL d   1      46.252 -19.656  43.197  0.00  0.00     0.288 C 
ATOM     31  N   UNL d   1      45.921 -19.111  43.723  0.00  0.00    -0.207 NA
ATOM     32  O   UNL d   1      46.645 -20.318  43.489  0.00  0.00    -0.265 OA
BRANCH  31  33
ATOM     33  C   UNL d   1      45.985 -19.230  44.539  0.00  0.00     0.085 C 
ATOM     34  C   UNL d   1      46.635 -18.946  44.948  0.00  0.00     0.021 C 
ATOM     35  C   UNL d   1      45.391 -19.638  44.945  0.00  0.00     0.021 C 
ENDBRANCH  31  33
ENDBRANCH   3  30
TORSDOF 8
ENDMDL
MODEL 2
REMARK VINA RESULT:      75.5      2.176      5.867
REMARK  8 active torsions:
REMARK  status: ('A' for Active; 'I' for Inactive)
REMARK    1  A    between atoms: C_10  and  C_3 
REMARK       I    between atoms: N_14  and  C_10 
REMARK    2  A    between atoms: C_12  and  C_13 
REMARK       I    between atoms: N_21  and  C_12 
REMARK    3  A    between atoms: C_29  and  N_14 
REMARK    4  A    between atoms: C_28  and  N_21 
REMARK    5  A    between atoms: O_30  and  C_22 
REMARK    6  A    between atoms: C_23  and  C_31 
REMARK    7  A    between atoms: C_31  and  C_28 
REMARK    8  A    between atoms: C_32  and  O_30 
ROOT
ATOM      1  N   UNL d   1      45.213 -17.687  39.910  0.00  0.00    -0.277 N 
ATOM      2  C   UNL d   1      44.562 -17.346  39.518  0.00  0.00     0.163 A 
ATOM      3  C   UNL d   1      44.836 -17.030  38.805  0.00  0.00     0.124 A 
ATOM      4  C   UNL d   1      45.881 -17.579  39.433  0.00  0.00     0.152 A 
ATOM      5  N   UNL d   1      43.814 -17.368  39.863  0.00  0.00    -0.190 NA
ATOM      6  S   UNL d   1      45.641 -17.171  38.751  0.00  0.00    -0.051 SA
ATOM      7  C   UNL d   1      45.111 -18.049  40.642  0.00  0.00     0.071 A 
ATOM      8  C   UNL d   1      44.363 -18.072  40.987  0.00  0.00     0.074 A 
ATOM      9  C   UNL d   1      43.712 -17.730  40.596  0.00  0.00     0.282 A 
ATOM     10  C   UNL d   1      45.759 -18.389  41.031  0.00  0.00     0.023 A 
ATOM     11  C   UNL d   1      45.656 -18.750  41.764  0.00  0.00     0.059 A 
ATOM     12  S   UNL d   1      46.646 -17.834  39.614  0.00  0.00    -0.052 SA
ATOM     13  C   UNL d   1      44.259 -18.435  41.723  0.00  0.00     0.006 A 
ATOM     14  O   UNL d   1      42.954 -17.755  40.948  0.00  0.00    -0.265 OA
ATOM     15  C   UNL d   1      44.907 -18.775  42.113  0.00  0.00     0.005 A 
ENDROOT
BRANCH  11  16
ATOM     16  C   UNL d   1      46.301 -19.089  42.151  0.00  0.00     0.279 C 
ATOM     17  O   UNL d   1      46.603 -19.812  41.897  0.00  0.00    -0.265 OA
ATOM     18  N   UNL d   1      46.646 -18.705  42.793  0.00  0.00    -0.206 NA
BRANCH  18  19
ATOM     19  C   UNL d   1      46.344 -17.981  43.047  0.00  0.00     0.102 C 
BRANCH  19  20
ATOM     20  C   UNL d   1      46.232 -17.842  43.848  0.00  0.00     0.021 C 
BRANCH  20  21
ATOM     21  C   UNL d   1      46.037 -17.079  44.107  0.00  0.00     0.002 A 
ATOM     22  C   UNL d   1      46.534 -16.451  43.921  0.00  0.00     0.002 A 
ATOM     23  C   UNL d   1      46.346 -15.690  44.174  0.00  0.00     0.025 A 
ATOM     24  C   UNL d   1      45.661 -15.559  44.614  0.00  0.00     0.100 A 
ATOM     25  C   UNL d   1      45.163 -16.188  44.801  0.00  0.00     0.025 A 
ATOM     26  C   UNL d   1      45.351 -16.948  44.547  0.00  0.00     0.002 A 
BRANCH  24  27
ATOM     27  O   UNL d   1      45.473 -14.794  44.868  0.00  0.00    -0.305 OA
BRANCH  27  28
ATOM     28  C   UNL d   1      45.497 -14.167  44.336  0.00  0.00     0.123 C 
ATOM     29  C   UNL d   1      45.535 -13.385  44.615  0.00  0.00     0.029 C 
ENDBRANCH  27  28
ENDBRANCH  24  27
ENDBRANCH  20  21
ENDBRANCH  19  20
ENDBRANCH  18  19
ENDBRANCH  11  16
BRANCH   3  30
ATOM     30  C   UNL d   1      44.369 -16.640  38.246  0.00  0.00     0.288 C 
ATOM     31  N   UNL d   1      44.728 -16.217  37.633  0.00  0.00    -0.207 NA
ATOM     32  O   UNL d   1      43.548 -16.668  38.295  0.00  0.00    -0.265 OA
BRANCH  31  33
ATOM     33  C   UNL d   1      44.265 -15.825  37.071  0.00  0.00     0.085 C 
ATOM     34  C   UNL d   1      43.915 -16.244  36.461  0.00  0.00     0.021 C 
ATOM     35  C   UNL d   1      44.153 -15.008  37.126  0.00  0.00     0.021 C 
ENDBRANCH  31  33
ENDBRANCH   3  30
TORSDOF 8
ENDMDL
