MODEL 1
REMARK VINA RESULT:      19.0      0.000      0.000
REMARK  5 active torsions:
REMARK  status: ('A' for Active; 'I' for Inactive)
REMARK    1  A    between atoms: C_4  and  S_1 
REMARK    2  A    between atoms: N_6  and  S_1 
REMARK    3  A    between atoms: C_2  and  C_14 
REMARK    4  A    between atoms: C_7  and  C_16 
REMARK       I    between atoms: N_11  and  C_7 
REMARK    5  A    between atoms: C_26  and  N_11 
ROOT
ATOM      1  C   UNL d   1     -41.711-122.110 -51.826  0.00  0.00     0.279 C 
ATOM      2  N   UNL d   1     -41.958-122.608 -52.430  0.00  0.00    -0.208 NA
ATOM      3  O   UNL d   1     -41.450-121.351 -51.997  0.00  0.00    -0.265 OA
ENDROOT
BRANCH   1   4
ATOM      4  C   UNL d   1     -41.726-122.374 -51.044  0.00  0.00     0.061 A 
ATOM      5  C   UNL d   1     -42.349-122.144 -50.537  0.00  0.00     0.025 A 
ATOM      6  C   UNL d   1     -42.365-122.408 -49.754  0.00  0.00     0.092 A 
ATOM      7  N   UNL d   1     -41.761-122.901 -49.471  0.00  0.00    -0.229 N 
ATOM      8  C   UNL d   1     -41.145-123.127 -49.975  0.00  0.00     0.092 A 
ATOM      9  C   UNL d   1     -41.123-122.868 -50.756  0.00  0.00     0.025 A 
BRANCH   7  10
ATOM     10  S   UNL d   1     -41.772-123.168 -48.688  0.00  0.00     0.277 S 
ATOM     11  O   UNL d   1     -42.404-122.664 -48.549  0.00  0.00    -0.199 OA
ATOM     12  O   UNL d   1     -41.135-123.676 -48.834  0.00  0.00    -0.199 OA
BRANCH  10  13
ATOM     13  C   UNL d   1     -41.815-123.407 -47.908  0.00  0.00     0.133 A 
ATOM     14  S   UNL d   1     -42.502-123.491 -47.451  0.00  0.00    -0.074 SA
ATOM     15  C   UNL d   1     -42.286-123.742 -46.702  0.00  0.00     0.036 A 
ATOM     16  C   UNL d   1     -41.464-123.818 -46.679  0.00  0.00     0.008 A 
ATOM     17  C   UNL d   1     -41.173-123.611 -47.423  0.00  0.00     0.020 A 
ENDBRANCH  10  13
ENDBRANCH   7  10
ENDBRANCH   1   4
BRANCH   2  18
ATOM     18  C   UNL d   1     -41.944-122.348 -53.213  0.00  0.00     0.085 A 
ATOM     19  C   UNL d   1     -42.547-121.847 -53.487  0.00  0.00     0.019 A 
ATOM     20  C   UNL d   1     -42.518-121.597 -54.269  0.00  0.00     0.004 A 
ATOM     21  C   UNL d   1     -41.912-121.840 -54.753  0.00  0.00     0.024 A 
ATOM     22  C   UNL d   1     -41.326-122.332 -54.470  0.00  0.00     0.004 A 
ATOM     23  C   UNL d   1     -41.340-122.585 -53.708  0.00  0.00     0.019 A 
BRANCH  21  24
ATOM     24  C   UNL d   1     -41.898-121.579 -55.535  0.00  0.00     0.111 A 
ATOM     25  N   UNL d   1     -41.313-121.098 -55.881  0.00  0.00    -0.239 NA
ATOM     26  C   UNL d   1     -41.517-120.971 -56.676  0.00  0.00     0.088 A 
ATOM     27  C   UNL d   1     -41.152-120.547 -57.278  0.00  0.00     0.020 A 
ATOM     28  C   UNL d   1     -42.222-121.372 -56.818  0.00  0.00     0.049 A 
ATOM     29  C   UNL d   1     -41.496-120.523 -58.029  0.00  0.00     0.002 A 
ATOM     30  C   UNL d   1     -42.202-120.923 -58.174  0.00  0.00     0.001 A 
ATOM     31  C   UNL d   1     -42.570-121.349 -57.572  0.00  0.00     0.008 A 
ATOM     32  S   UNL d   1     -42.472-121.754 -56.122  0.00  0.00    -0.066 SA
ENDBRANCH  21  24
ENDBRANCH   2  18
TORSDOF 5
ENDMDL
