MODEL 1
REMARK VINA RESULT:      -7.2      0.000      0.000
REMARK  4 active torsions:
REMARK  status: ('A' for Active; 'I' for Inactive)
REMARK    1  A    between atoms: S_4  and  C_1 
REMARK    2  A    between atoms: C_7  and  S_4 
REMARK       I    between atoms: C_5  and  N_6 
REMARK    3  A    between atoms: C_12  and  C_5 
REMARK    4  A    between atoms: N_6  and  C_7 
ROOT
ATOM      1  C   UNL d   1      51.324  34.293  53.015  0.00  0.00     0.141 C 
ENDROOT
BRANCH   1   2
ATOM      2  N   UNL d   1      51.947  33.913  53.429  0.00  0.00    -0.199 NA
ATOM      3  C   UNL d   1      52.700  34.250  53.448  0.00  0.00     0.280 C 
ATOM      4  O   UNL d   1      52.846  34.976  53.053  0.00  0.00    -0.265 OA
BRANCH   3   5
ATOM      5  C   UNL d   1      53.304  33.871  53.855  0.00  0.00     0.058 A 
ATOM      6  C   UNL d   1      53.714  33.239  53.504  0.00  0.00     0.005 A 
ATOM      7  C   UNL d   1      54.318  32.855  53.903  0.00  0.00     0.000 A 
ATOM      8  C   UNL d   1      54.530  33.096  54.672  0.00  0.00     0.000 A 
ATOM      9  C   UNL d   1      54.118  33.733  55.029  0.00  0.00     0.000 A 
ATOM     10  C   UNL d   1      53.500  34.119  54.609  0.00  0.00     0.005 A 
ENDBRANCH   3   5
ENDBRANCH   1   2
BRANCH   1  11
ATOM     11  S   UNL d   1      50.566  33.938  52.961  0.00  0.00    -0.027 SA
BRANCH  11  12
ATOM     12  C   UNL d   1      49.915  34.384  52.650  0.00  0.00     0.196 A 
ATOM     13  N   UNL d   1      49.699  34.273  51.862  0.00  0.00    -0.221 NA
ATOM     14  C   UNL d   1      49.065  34.706  51.553  0.00  0.00     0.085 A 
ATOM     15  C   UNL d   1      48.861  34.621  50.860  0.00  0.00     0.021 C 
ATOM     16  C   UNL d   1      48.646  35.252  52.039  0.00  0.00     0.038 A 
ATOM     17  C   UNL d   1      48.874  35.349  52.818  0.00  0.00     0.085 A 
ATOM     18  N   UNL d   1      49.496  34.931  53.135  0.00  0.00    -0.221 NA
ATOM     19  C   UNL d   1      48.473  35.868  53.272  0.00  0.00     0.021 C 
ENDBRANCH  11  12
ENDBRANCH   1  11
TORSDOF 4
ENDMDL
MODEL 2
REMARK VINA RESULT:      -6.9      1.177      4.988
REMARK  4 active torsions:
REMARK  status: ('A' for Active; 'I' for Inactive)
REMARK    1  A    between atoms: S_4  and  C_1 
REMARK    2  A    between atoms: C_7  and  S_4 
REMARK       I    between atoms: C_5  and  N_6 
REMARK    3  A    between atoms: C_12  and  C_5 
REMARK    4  A    between atoms: N_6  and  C_7 
ROOT
ATOM      1  C   UNL d   1      51.914  34.000  53.417  0.00  0.00     0.141 C 
ENDROOT
BRANCH   1   2
ATOM      2  N   UNL d   1      51.289  34.375  53.003  0.00  0.00    -0.199 NA
ATOM      3  C   UNL d   1      50.536  34.037  52.991  0.00  0.00     0.280 C 
ATOM      4  O   UNL d   1      50.392  33.316  53.394  0.00  0.00    -0.265 OA
BRANCH   3   5
ATOM      5  C   UNL d   1      49.930  34.412  52.582  0.00  0.00     0.058 A 
ATOM      6  C   UNL d   1      49.800  34.244  51.778  0.00  0.00     0.005 A 
ATOM      7  C   UNL d   1      49.198  34.614  51.363  0.00  0.00     0.000 A 
ATOM      8  C   UNL d   1      48.704  35.166  51.744  0.00  0.00     0.000 A 
ATOM      9  C   UNL d   1      48.833  35.336  52.556  0.00  0.00     0.000 A 
ATOM     10  C   UNL d   1      49.454  34.951  52.971  0.00  0.00     0.005 A 
ENDBRANCH   3   5
ENDBRANCH   1   2
BRANCH   1  11
ATOM     11  S   UNL d   1      52.690  34.318  53.405  0.00  0.00    -0.027 SA
BRANCH  11  12
ATOM     12  C   UNL d   1      53.332  33.872  53.731  0.00  0.00     0.196 A 
ATOM     13  N   UNL d   1      53.641  34.095  54.462  0.00  0.00    -0.221 NA
ATOM     14  C   UNL d   1      54.268  33.663  54.784  0.00  0.00     0.085 A 
ATOM     15  C   UNL d   1      54.553  33.846  55.429  0.00  0.00     0.021 C 
ATOM     16  C   UNL d   1      54.587  33.001  54.369  0.00  0.00     0.038 A 
ATOM     17  C   UNL d   1      54.268  32.794  53.646  0.00  0.00     0.085 A 
ATOM     18  N   UNL d   1      53.651  33.210  53.316  0.00  0.00    -0.221 NA
ATOM     19  C   UNL d   1      54.574  32.168  53.259  0.00  0.00     0.021 C 
ENDBRANCH  11  12
ENDBRANCH   1  11
TORSDOF 4
ENDMDL
MODEL 3
REMARK VINA RESULT:      -6.8      2.794      4.016
REMARK  4 active torsions:
REMARK  status: ('A' for Active; 'I' for Inactive)
REMARK    1  A    between atoms: S_4  and  C_1 
REMARK    2  A    between atoms: C_7  and  S_4 
REMARK       I    between atoms: C_5  and  N_6 
REMARK    3  A    between atoms: C_12  and  C_5 
REMARK    4  A    between atoms: N_6  and  C_7 
ROOT
ATOM      1  C   UNL d   1      53.039  31.917  53.262  0.00  0.00     0.141 C 
ENDROOT
BRANCH   1   2
ATOM      2  N   UNL d   1      53.260  31.244  53.710  0.00  0.00    -0.199 NA
ATOM      3  C   UNL d   1      52.923  30.508  53.549  0.00  0.00     0.280 C 
ATOM      4  O   UNL d   1      52.357  30.429  52.935  0.00  0.00    -0.265 OA
BRANCH   3   5
ATOM      5  C   UNL d   1      53.146  29.854  53.993  0.00  0.00     0.058 A 
ATOM      6  C   UNL d   1      52.902  29.782  54.785  0.00  0.00     0.005 A 
ATOM      7  C   UNL d   1      53.119  29.133  55.235  0.00  0.00     0.000 A 
ATOM      8  C   UNL d   1      53.591  28.532  54.903  0.00  0.00     0.000 A 
ATOM      9  C   UNL d   1      53.838  28.602  54.104  0.00  0.00     0.000 A 
ATOM     10  C   UNL d   1      53.608  29.273  53.652  0.00  0.00     0.005 A 
ENDBRANCH   3   5
ENDBRANCH   1   2
BRANCH   1  11
ATOM     11  S   UNL d   1      53.445  32.645  53.351  0.00  0.00    -0.027 SA
BRANCH  11  12
ATOM     12  C   UNL d   1      53.013  33.374  53.321  0.00  0.00     0.196 A 
ATOM     13  N   UNL d   1      53.242  33.992  53.815  0.00  0.00    -0.221 NA
ATOM     14  C   UNL d   1      52.824  34.705  53.789  0.00  0.00     0.085 A 
ATOM     15  C   UNL d   1      53.012  35.262  54.218  0.00  0.00     0.021 C 
ATOM     16  C   UNL d   1      52.171  34.797  53.263  0.00  0.00     0.038 A 
ATOM     17  C   UNL d   1      51.958  34.173  52.781  0.00  0.00     0.085 A 
ATOM     18  N   UNL d   1      52.361  33.465  52.795  0.00  0.00    -0.221 NA
ATOM     19  C   UNL d   1      51.340  34.266  52.286  0.00  0.00     0.021 C 
ENDBRANCH  11  12
ENDBRANCH   1  11
TORSDOF 4
ENDMDL
