MODEL 1
REMARK VINA RESULT:      59.6      0.000      0.000
REMARK  4 active torsions:
REMARK  status: ('A' for Active; 'I' for Inactive)
REMARK    1  A    between atoms: N_10  and  C_3 
REMARK    2  A    between atoms: C_12  and  C_5 
REMARK    3  A    between atoms: C_11  and  C_8 
REMARK    4  A    between atoms: C_13  and  N_10 
ROOT
ATOM      1  C   UNL d   1     -51.576  24.559  33.800  0.00  0.00     0.168 A 
ATOM      2  N   UNL d   1     -50.767  24.759  33.713  0.00  0.00    -0.184 N 
ATOM      3  C   UNL d   1     -50.569  25.537  33.638  0.00  0.00     0.217 A 
ATOM      4  N   UNL d   1     -52.141  25.149  33.809  0.00  0.00    -0.231 NA
ATOM      5  C   UNL d   1     -51.797  23.785  33.877  0.00  0.00     0.057 A 
ATOM      6  N   UNL d   1     -50.437  23.401  33.781  0.00  0.00    -0.160 NA
ATOM      7  C   UNL d   1     -51.128  26.137  33.646  0.00  0.00     0.067 A 
ATOM      8  C   UNL d   1     -51.924  25.940  33.732  0.00  0.00     0.064 A 
ATOM      9  C   UNL d   1     -51.234  23.204  33.868  0.00  0.00     0.124 A 
ENDROOT
BRANCH   5  10
ATOM     10  C   UNL d   1     -52.594  23.588  33.963  0.00  0.00     0.004 A 
ATOM     11  C   UNL d   1     -52.889  23.465  34.706  0.00  0.00     0.000 A 
ATOM     12  C   UNL d   1     -53.686  23.268  34.793  0.00  0.00     0.000 A 
ATOM     13  C   UNL d   1     -54.162  23.201  34.133  0.00  0.00     0.000 A 
ATOM     14  C   UNL d   1     -53.852  23.327  33.396  0.00  0.00     0.000 A 
ATOM     15  C   UNL d   1     -53.056  23.524  33.310  0.00  0.00     0.000 A 
ENDBRANCH   5  10
BRANCH   3  16
ATOM     16  N   UNL d   1     -49.747  25.740  33.549  0.00  0.00    -0.383 NA
BRANCH  16  17
ATOM     17  C   UNL d   1     -48.929  25.938  33.461  0.00  0.00     0.134 C 
ATOM     18  C   UNL d   1     -48.686  26.748  33.516  0.00  0.00     0.035 C 
ATOM     19  C   UNL d   1     -48.356  25.321  33.316  0.00  0.00     0.035 C 
ENDBRANCH  16  17
ENDBRANCH   3  16
BRANCH   8  20
ATOM     20  C   UNL d   1     -52.518  26.553  33.741  0.00  0.00     0.036 C 
ATOM     21  C   UNL d   1     -53.239  26.434  34.176  0.00  0.00     0.006 C 
ATOM     22  C   UNL d   1     -52.384  27.281  33.314  0.00  0.00     0.006 C 
ATOM     23  C   UNL d   1     -53.101  27.160  33.748  0.00  0.00     0.006 C 
ENDBRANCH   8  20
TORSDOF 4
ENDMDL
