MODEL 1
REMARK VINA RESULT:      -5.0      0.000      0.000
REMARK  3 active torsions:
REMARK  status: ('A' for Active; 'I' for Inactive)
REMARK    1  A    between atoms: C_2  and  N_1 
REMARK    2  A    between atoms: N_6  and  C_5 
REMARK    3  A    between atoms: C_12  and  N_6 
ROOT
ATOM      1  C   UNL d   1     -41.763-123.005 -50.734  0.00  0.00     0.128 A 
ATOM      2  C   UNL d   1     -41.589-122.200 -50.773  0.00  0.00     0.046 A 
ATOM      3  C   UNL d   1     -41.375-121.858 -51.494  0.00  0.00     0.122 A 
ATOM      4  C   UNL d   1     -41.336-122.322 -52.174  0.00  0.00     0.101 A 
ATOM      5  C   UNL d   1     -41.724-123.469 -51.414  0.00  0.00     0.025 A 
ATOM      6  C   UNL d   1     -41.510-123.125 -52.131  0.00  0.00     0.022 A 
ATOM      7  N   UNL d   1     -41.201-121.053 -51.532  0.00  0.00    -0.146 N 
ENDROOT
BRANCH   4   8
ATOM      8  N   UNL d   1     -41.123-121.979 -52.890  0.00  0.00    -0.244 NA
BRANCH   8   9
ATOM      9  C   UNL d   1     -41.463-122.249 -53.591  0.00  0.00     0.081 A 
ATOM     10  C   UNL d   1     -42.115-121.857 -53.912  0.00  0.00     0.019 A 
ATOM     11  C   UNL d   1     -42.455-122.127 -54.612  0.00  0.00     0.002 A 
ATOM     12  C   UNL d   1     -42.144-122.790 -54.993  0.00  0.00     0.000 A 
ATOM     13  C   UNL d   1     -41.493-123.182 -54.672  0.00  0.00     0.002 A 
ATOM     14  C   UNL d   1     -41.153-122.912 -53.972  0.00  0.00     0.019 A 
ENDBRANCH   8   9
ENDBRANCH   4   8
BRANCH   1  15
ATOM     15  N   UNL d   1     -41.977-123.346 -50.014  0.00  0.00    -0.114 N 
ATOM     16  O   UNL d   1     -41.398-123.507 -49.447  0.00  0.00    -0.532 OA
ATOM     17  O   UNL d   1     -42.767-123.525 -49.860  0.00  0.00    -0.532 OA
ENDBRANCH   1  15
TORSDOF 3
ENDMDL
MODEL 2
REMARK VINA RESULT:      -4.9      1.901      3.679
REMARK  3 active torsions:
REMARK  status: ('A' for Active; 'I' for Inactive)
REMARK    1  A    between atoms: C_2  and  N_1 
REMARK    2  A    between atoms: N_6  and  C_5 
REMARK    3  A    between atoms: C_12  and  N_6 
ROOT
ATOM      1  C   UNL d   1     -41.433-122.933 -52.825  0.00  0.00     0.128 A 
ATOM      2  C   UNL d   1     -41.355-122.154 -52.565  0.00  0.00     0.046 A 
ATOM      3  C   UNL d   1     -41.256-121.996 -51.761  0.00  0.00     0.122 A 
ATOM      4  C   UNL d   1     -41.235-122.615 -51.218  0.00  0.00     0.101 A 
ATOM      5  C   UNL d   1     -41.412-123.553 -52.282  0.00  0.00     0.025 A 
ATOM      6  C   UNL d   1     -41.313-123.391 -51.482  0.00  0.00     0.022 A 
ATOM      7  N   UNL d   1     -41.178-121.217 -51.501  0.00  0.00    -0.146 N 
ENDROOT
BRANCH   4   8
ATOM      8  N   UNL d   1     -41.135-122.454 -50.418  0.00  0.00    -0.244 NA
BRANCH   8   9
ATOM      9  C   UNL d   1     -41.603-122.843 -49.861  0.00  0.00     0.081 A 
ATOM     10  C   UNL d   1     -42.401-122.645 -49.782  0.00  0.00     0.019 A 
ATOM     11  C   UNL d   1     -42.869-123.034 -49.225  0.00  0.00     0.002 A 
ATOM     12  C   UNL d   1     -42.540-123.620 -48.747  0.00  0.00     0.000 A 
ATOM     13  C   UNL d   1     -41.743-123.817 -48.826  0.00  0.00     0.002 A 
ATOM     14  C   UNL d   1     -41.275-123.429 -49.382  0.00  0.00     0.019 A 
ENDBRANCH   8   9
ENDBRANCH   4   8
BRANCH   1  15
ATOM     15  N   UNL d   1     -41.533-123.090 -53.628  0.00  0.00    -0.114 N 
ATOM     16  O   UNL d   1     -42.039-123.696 -53.870  0.00  0.00    -0.532 OA
ATOM     17  O   UNL d   1     -41.127-122.643 -54.190  0.00  0.00    -0.532 OA
ENDBRANCH   1  15
TORSDOF 3
ENDMDL
MODEL 3
REMARK VINA RESULT:      -3.1      2.422      4.679
REMARK  3 active torsions:
REMARK  status: ('A' for Active; 'I' for Inactive)
REMARK    1  A    between atoms: C_2  and  N_1 
REMARK    2  A    between atoms: N_6  and  C_5 
REMARK    3  A    between atoms: C_12  and  N_6 
ROOT
ATOM      1  C   UNL d   1     -41.650-122.353 -50.974  0.00  0.00     0.128 A 
ATOM      2  C   UNL d   1     -42.423-122.216 -50.721  0.00  0.00     0.046 A 
ATOM      3  C   UNL d   1     -42.703-122.579 -50.035  0.00  0.00     0.122 A 
ATOM      4  C   UNL d   1     -42.211-123.080 -49.603  0.00  0.00     0.101 A 
ATOM      5  C   UNL d   1     -41.158-122.853 -50.542  0.00  0.00     0.025 A 
ATOM      6  C   UNL d   1     -41.440-123.214 -49.859  0.00  0.00     0.022 A 
ATOM      7  N   UNL d   1     -43.476-122.442 -49.783  0.00  0.00    -0.146 N 
ENDROOT
BRANCH   4   8
ATOM      8  N   UNL d   1     -42.494-123.440 -48.920  0.00  0.00    -0.244 NA
BRANCH   8   9
ATOM      9  C   UNL d   1     -42.118-123.301 -48.199  0.00  0.00     0.081 A 
ATOM     10  C   UNL d   1     -41.531-123.817 -47.933  0.00  0.00     0.019 A 
ATOM     11  C   UNL d   1     -41.156-123.678 -47.212  0.00  0.00     0.002 A 
ATOM     12  C   UNL d   1     -41.368-123.023 -46.756  0.00  0.00     0.000 A 
ATOM     13  C   UNL d   1     -41.955-122.508 -47.022  0.00  0.00     0.002 A 
ATOM     14  C   UNL d   1     -42.329-122.647 -47.743  0.00  0.00     0.019 A 
ENDBRANCH   8   9
ENDBRANCH   4   8
BRANCH   1  15
ATOM     15  N   UNL d   1     -41.371-121.990 -51.660  0.00  0.00    -0.114 N 
ATOM     16  O   UNL d   1     -41.123-121.202 -51.637  0.00  0.00    -0.532 OA
ATOM     17  O   UNL d   1     -41.338-122.412 -52.368  0.00  0.00    -0.532 OA
ENDBRANCH   1  15
TORSDOF 3
ENDMDL
MODEL 4
REMARK VINA RESULT:      -2.6      2.314      3.834
REMARK  3 active torsions:
REMARK  status: ('A' for Active; 'I' for Inactive)
REMARK    1  A    between atoms: C_2  and  N_1 
REMARK    2  A    between atoms: N_6  and  C_5 
REMARK    3  A    between atoms: C_12  and  N_6 
ROOT
ATOM      1  C   UNL d   1     -42.240-122.064 -54.618  0.00  0.00     0.128 A 
ATOM      2  C   UNL d   1     -41.884-122.809 -54.603  0.00  0.00     0.046 A 
ATOM      3  C   UNL d   1     -41.511-123.073 -53.915  0.00  0.00     0.122 A 
ATOM      4  C   UNL d   1     -41.495-122.594 -53.245  0.00  0.00     0.101 A 
ATOM      5  C   UNL d   1     -42.223-121.585 -53.948  0.00  0.00     0.025 A 
ATOM      6  C   UNL d   1     -41.851-121.852 -53.265  0.00  0.00     0.022 A 
ATOM      7  N   UNL d   1     -41.156-123.817 -53.900  0.00  0.00    -0.146 N 
ENDROOT
BRANCH   4   8
ATOM      8  N   UNL d   1     -41.122-122.861 -52.562  0.00  0.00    -0.244 NA
BRANCH   8   9
ATOM      9  C   UNL d   1     -41.405-122.626 -51.823  0.00  0.00     0.081 A 
ATOM     10  C   UNL d   1     -41.226-121.874 -51.533  0.00  0.00     0.019 A 
ATOM     11  C   UNL d   1     -41.508-121.639 -50.795  0.00  0.00     0.002 A 
ATOM     12  C   UNL d   1     -41.970-122.156 -50.346  0.00  0.00     0.000 A 
ATOM     13  C   UNL d   1     -42.149-122.906 -50.637  0.00  0.00     0.002 A 
ATOM     14  C   UNL d   1     -41.867-123.141 -51.374  0.00  0.00     0.019 A 
ENDBRANCH   8   9
ENDBRANCH   4   8
BRANCH   1  15
ATOM     15  N   UNL d   1     -42.612-121.800 -55.305  0.00  0.00    -0.114 N 
ATOM     16  O   UNL d   1     -42.181-121.383 -55.873  0.00  0.00    -0.532 OA
ATOM     17  O   UNL d   1     -43.414-121.953 -55.425  0.00  0.00    -0.532 OA
ENDBRANCH   1  15
TORSDOF 3
ENDMDL
