MODEL 1
REMARK VINA RESULT:      -3.4      0.000      0.000
REMARK  3 active torsions:
REMARK  status: ('A' for Active; 'I' for Inactive)
REMARK    1  A    between atoms: C_9  and  N_1 
REMARK    2  A    between atoms: C_8  and  C_3 
REMARK    3  A    between atoms: C_17  and  C_9 
ROOT
ATOM      1  N   UNL d   1      58.597  -0.234  30.027  0.00  0.00    -0.269 N 
ATOM      2  N   UNL d   1      59.130   0.654  30.874  0.00  0.00    -0.204 NA
ATOM      3  C   UNL d   1      59.227   0.291  30.140  0.00  0.00     0.174 A 
ATOM      4  C   UNL d   1      58.112  -0.193  30.693  0.00  0.00     0.185 A 
ATOM      5  C   UNL d   1      58.441   0.358  31.220  0.00  0.00     0.199 A 
ATOM      6  N   UNL d   1      57.413  -0.584  30.893  0.00  0.00    -0.224 NA
ATOM      7  N   UNL d   1      58.074   0.514  31.935  0.00  0.00    -0.223 NA
ATOM      8  C   UNL d   1      57.045  -0.422  31.619  0.00  0.00     0.101 A 
ATOM      9  C   UNL d   1      57.380   0.129  32.139  0.00  0.00     0.101 A 
ATOM     10  C   UNL d   1      56.342  -0.813  31.822  0.00  0.00     0.021 A 
ATOM     11  C   UNL d   1      57.013   0.285  32.853  0.00  0.00     0.021 A 
ATOM     12  C   UNL d   1      55.982  -0.650  32.540  0.00  0.00     0.002 A 
ATOM     13  C   UNL d   1      56.318  -0.100  33.057  0.00  0.00     0.002 A 
ENDROOT
BRANCH   1  14
ATOM     14  C   UNL d   1      58.472  -0.712  29.373  0.00  0.00     0.108 C 
BRANCH  14  15
ATOM     15  C   UNL d   1      58.668  -1.511  29.409  0.00  0.00     0.118 A 
ATOM     16  O   UNL d   1      59.173  -1.865  29.960  0.00  0.00    -0.304 OA
ATOM     17  C   UNL d   1      59.212  -2.669  29.793  0.00  0.00     0.123 A 
ATOM     18  C   UNL d   1      58.733  -2.817  29.140  0.00  0.00     0.029 A 
ATOM     19  C   UNL d   1      58.398  -2.103  28.903  0.00  0.00     0.028 A 
ENDBRANCH  14  15
ENDBRANCH   1  14
BRANCH   3  20
ATOM     20  C   UNL d   1      59.844   0.430  29.616  0.00  0.00     0.135 A 
ATOM     21  O   UNL d   1      59.747   0.555  28.798  0.00  0.00    -0.302 OA
ATOM     22  C   UNL d   1      60.565   0.682  28.455  0.00  0.00     0.123 A 
ATOM     23  C   UNL d   1      61.133   0.627  29.093  0.00  0.00     0.029 A 
ATOM     24  C   UNL d   1      60.678   0.467  29.828  0.00  0.00     0.030 A 
ENDBRANCH   3  20
TORSDOF 3
ENDMDL
MODEL 2
REMARK VINA RESULT:      -2.6      1.181      2.434
REMARK  3 active torsions:
REMARK  status: ('A' for Active; 'I' for Inactive)
REMARK    1  A    between atoms: C_9  and  N_1 
REMARK    2  A    between atoms: C_8  and  C_3 
REMARK    3  A    between atoms: C_17  and  C_9 
ROOT
ATOM      1  N   UNL d   1      57.985  -0.035  30.907  0.00  0.00    -0.269 N 
ATOM      2  N   UNL d   1      57.328  -1.183  30.706  0.00  0.00    -0.204 NA
ATOM      3  C   UNL d   1      57.926  -0.695  30.412  0.00  0.00     0.174 A 
ATOM      4  C   UNL d   1      57.424  -0.117  31.506  0.00  0.00     0.185 A 
ATOM      5  C   UNL d   1      57.014  -0.829  31.383  0.00  0.00     0.199 A 
ATOM      6  N   UNL d   1      57.228   0.362  32.150  0.00  0.00    -0.224 NA
ATOM      7  N   UNL d   1      56.420  -1.056  31.897  0.00  0.00    -0.223 NA
ATOM      8  C   UNL d   1      56.624   0.126  32.667  0.00  0.00     0.101 A 
ATOM      9  C   UNL d   1      56.221  -0.585  32.538  0.00  0.00     0.101 A 
ATOM     10  C   UNL d   1      56.425   0.605  33.315  0.00  0.00     0.021 A 
ATOM     11  C   UNL d   1      55.626  -0.812  33.051  0.00  0.00     0.021 A 
ATOM     12  C   UNL d   1      55.828   0.369  33.825  0.00  0.00     0.002 A 
ATOM     13  C   UNL d   1      55.427  -0.341  33.692  0.00  0.00     0.002 A 
ENDROOT
BRANCH   1  14
ATOM     14  C   UNL d   1      58.507   0.592  30.824  0.00  0.00     0.108 C 
BRANCH  14  15
ATOM     15  C   UNL d   1      59.180   0.627  31.297  0.00  0.00     0.118 A 
ATOM     16  O   UNL d   1      59.195   0.648  32.123  0.00  0.00    -0.304 OA
ATOM     17  C   UNL d   1      59.980   0.681  32.366  0.00  0.00     0.123 A 
ATOM     18  C   UNL d   1      60.454   0.681  31.692  0.00  0.00     0.029 A 
ATOM     19  C   UNL d   1      59.961   0.647  31.034  0.00  0.00     0.028 A 
ENDBRANCH  14  15
ENDBRANCH   1  14
BRANCH   3  20
ATOM     20  C   UNL d   1      58.379  -0.845  29.744  0.00  0.00     0.135 A 
ATOM     21  O   UNL d   1      58.479  -0.308  29.115  0.00  0.00    -0.302 OA
ATOM     22  C   UNL d   1      59.013  -0.707  28.516  0.00  0.00     0.123 A 
ATOM     23  C   UNL d   1      59.217  -1.484  28.814  0.00  0.00     0.029 A 
ATOM     24  C   UNL d   1      58.815  -1.571  29.591  0.00  0.00     0.030 A 
ENDBRANCH   3  20
TORSDOF 3
ENDMDL
MODEL 3
REMARK VINA RESULT:      -1.1      1.107      2.593
REMARK  3 active torsions:
REMARK  status: ('A' for Active; 'I' for Inactive)
REMARK    1  A    between atoms: C_9  and  N_1 
REMARK    2  A    between atoms: C_8  and  C_3 
REMARK    3  A    between atoms: C_17  and  C_9 
ROOT
ATOM      1  N   UNL d   1      58.785  -1.387  29.511  0.00  0.00    -0.269 N 
ATOM      2  N   UNL d   1      58.308  -2.420  30.213  0.00  0.00    -0.204 NA
ATOM      3  C   UNL d   1      58.820  -2.208  29.602  0.00  0.00     0.174 A 
ATOM      4  C   UNL d   1      58.250  -1.093  30.067  0.00  0.00     0.185 A 
ATOM      5  C   UNL d   1      57.952  -1.733  30.504  0.00  0.00     0.199 A 
ATOM      6  N   UNL d   1      57.992  -0.327  30.235  0.00  0.00    -0.224 NA
ATOM      7  N   UNL d   1      57.406  -1.607  31.099  0.00  0.00    -0.223 NA
ATOM      8  C   UNL d   1      57.438  -0.205  30.840  0.00  0.00     0.101 A 
ATOM      9  C   UNL d   1      57.146  -0.849  31.272  0.00  0.00     0.101 A 
ATOM     10  C   UNL d   1      57.177   0.564  31.012  0.00  0.00     0.021 A 
ATOM     11  C   UNL d   1      56.600  -0.722  31.867  0.00  0.00     0.021 A 
ATOM     12  C   UNL d   1      56.629   0.681  31.611  0.00  0.00     0.002 A 
ATOM     13  C   UNL d   1      56.340   0.037  32.039  0.00  0.00     0.002 A 
ENDROOT
BRANCH   1  14
ATOM     14  C   UNL d   1      59.204  -0.938  28.968  0.00  0.00     0.108 C 
BRANCH  14  15
ATOM     15  C   UNL d   1      59.823  -0.460  29.226  0.00  0.00     0.118 A 
ATOM     16  O   UNL d   1      60.355  -0.636  29.834  0.00  0.00    -0.304 OA
ATOM     17  C   UNL d   1      60.880  -0.007  29.907  0.00  0.00     0.123 A 
ATOM     18  C   UNL d   1      60.676   0.560  29.345  0.00  0.00     0.029 A 
ATOM     19  C   UNL d   1      60.025   0.281  28.926  0.00  0.00     0.028 A 
ENDBRANCH  14  15
ENDBRANCH   1  14
BRANCH   3  20
ATOM     20  C   UNL d   1      59.282  -2.727  29.164  0.00  0.00     0.135 A 
ATOM     21  O   UNL d   1      60.058  -2.564  28.909  0.00  0.00    -0.302 OA
ATOM     22  C   UNL d   1      60.339  -3.283  28.455  0.00  0.00     0.123 A 
ATOM     23  C   UNL d   1      59.708  -3.863  28.455  0.00  0.00     0.029 A 
ATOM     24  C   UNL d   1      59.039  -3.511  28.904  0.00  0.00     0.030 A 
ENDBRANCH   3  20
TORSDOF 3
ENDMDL
MODEL 4
REMARK VINA RESULT:      -0.7      1.753      3.741
REMARK  3 active torsions:
REMARK  status: ('A' for Active; 'I' for Inactive)
REMARK    1  A    between atoms: C_9  and  N_1 
REMARK    2  A    between atoms: C_8  and  C_3 
REMARK    3  A    between atoms: C_17  and  C_9 
ROOT
ATOM      1  N   UNL d   1      59.373  -1.452  28.973  0.00  0.00    -0.269 N 
ATOM      2  N   UNL d   1      60.577  -2.033  28.970  0.00  0.00    -0.204 NA
ATOM      3  C   UNL d   1      60.185  -1.311  29.040  0.00  0.00     0.174 A 
ATOM      4  C   UNL d   1      59.265  -2.262  28.861  0.00  0.00     0.185 A 
ATOM      5  C   UNL d   1      60.012  -2.625  28.859  0.00  0.00     0.199 A 
ATOM      6  N   UNL d   1      58.586  -2.721  28.760  0.00  0.00    -0.224 NA
ATOM      7  N   UNL d   1      60.076  -3.434  28.757  0.00  0.00    -0.223 NA
ATOM      8  C   UNL d   1      58.658  -3.541  28.658  0.00  0.00     0.101 A 
ATOM      9  C   UNL d   1      59.406  -3.896  28.657  0.00  0.00     0.101 A 
ATOM     10  C   UNL d   1      57.977  -4.005  28.557  0.00  0.00     0.021 A 
ATOM     11  C   UNL d   1      59.470  -4.705  28.555  0.00  0.00     0.021 A 
ATOM     12  C   UNL d   1      58.051  -4.816  28.456  0.00  0.00     0.002 A 
ATOM     13  C   UNL d   1      58.799  -5.166  28.455  0.00  0.00     0.002 A 
ENDROOT
BRANCH   1  14
ATOM     14  C   UNL d   1      58.775  -0.891  29.010  0.00  0.00     0.108 C 
BRANCH  14  15
ATOM     15  C   UNL d   1      58.323  -0.824  29.694  0.00  0.00     0.118 A 
ATOM     16  O   UNL d   1      58.285  -1.373  30.311  0.00  0.00    -0.304 OA
ATOM     17  C   UNL d   1      57.767  -1.085  30.881  0.00  0.00     0.123 A 
ATOM     18  C   UNL d   1      57.482  -0.357  30.621  0.00  0.00     0.029 A 
ATOM     19  C   UNL d   1      57.824  -0.196  29.890  0.00  0.00     0.028 A 
ENDBRANCH  14  15
ENDBRANCH   1  14
BRANCH   3  20
ATOM     20  C   UNL d   1      60.544  -0.582  29.157  0.00  0.00     0.135 A 
ATOM     21  O   UNL d   1      60.764  -0.280  29.901  0.00  0.00    -0.302 OA
ATOM     22  C   UNL d   1      61.132   0.524  29.758  0.00  0.00     0.123 A 
ATOM     23  C   UNL d   1      61.120   0.677  28.915  0.00  0.00     0.029 A 
ATOM     24  C   UNL d   1      60.747  -0.022  28.535  0.00  0.00     0.030 A 
ENDBRANCH   3  20
TORSDOF 3
ENDMDL
