MODEL 1
REMARK VINA RESULT:      -0.2      0.000      0.000
REMARK  7 active torsions:
REMARK  status: ('A' for Active; 'I' for Inactive)
REMARK    1  A    between atoms: N_4  and  C_1 
REMARK    2  A    between atoms: N_8  and  C_1 
REMARK    3  A    between atoms: C_2  and  C_3 
REMARK    4  A    between atoms: C_5  and  C_2 
REMARK    5  A    between atoms: N_6  and  C_2 
REMARK    6  A    between atoms: C_3  and  N_4 
REMARK    7  A    between atoms: C_14  and  N_8 
ROOT
ATOM      1  C   UNL d   1      32.358  21.573 -21.516  0.00  0.00     0.100 C 
ATOM      2  C   UNL d   1      31.668  21.186 -21.300  0.00  0.00     0.022 C 
ENDROOT
BRANCH   1   3
ATOM      3  C   UNL d   1      32.428  22.386 -21.393  0.00  0.00     0.088 C 
BRANCH   3   4
ATOM      4  C   UNL d   1      32.458  22.901 -22.038  0.00  0.00     0.047 A 
ATOM      5  S   UNL d   1      31.812  23.215 -22.451  0.00  0.00    -0.085 SA
ATOM      6  C   UNL d   1      32.100  23.701 -23.051  0.00  0.00     0.035 A 
ATOM      7  C   UNL d   1      32.927  23.697 -23.021  0.00  0.00     0.007 A 
ATOM      8  C   UNL d   1      33.155  23.199 -22.391  0.00  0.00     0.009 A 
ENDBRANCH   3   4
BRANCH   3   9
ATOM      9  N   UNL d   1      32.468  22.692 -20.622  0.00  0.00    -0.299 N 
ATOM     10  C   UNL d   1      31.783  22.909 -20.231  0.00  0.00     0.107 A 
ATOM     11  C   UNL d   1      31.813  23.214 -19.465  0.00  0.00     0.142 A 
ATOM     12  O   UNL d   1      32.545  23.304 -19.078  0.00  0.00    -0.300 OA
ATOM     13  C   UNL d   1      33.240  23.082 -19.478  0.00  0.00     0.142 A 
ATOM     14  C   UNL d   1      33.201  22.777 -20.246  0.00  0.00     0.107 A 
ENDBRANCH   3   9
ENDBRANCH   1   3
BRANCH   1  15
ATOM     15  N   UNL d   1      32.983  21.159 -21.854  0.00  0.00    -0.216 NA
BRANCH  15  16
ATOM     16  C   UNL d   1      32.933  20.335 -21.945  0.00  0.00     0.221 C 
ATOM     17  S   UNL d   1      32.574  19.883 -21.357  0.00  0.00    -0.037 SA
BRANCH  16  18
ATOM     18  N   UNL d   1      33.241  19.977 -22.620  0.00  0.00    -0.217 NA
BRANCH  18  19
ATOM     19  C   UNL d   1      33.000  19.217 -22.839  0.00  0.00     0.084 A 
ATOM     20  C   UNL d   1      33.114  18.581 -22.315  0.00  0.00     0.021 A 
ATOM     21  C   UNL d   1      32.876  17.838 -22.536  0.00  0.00     0.031 A 
ATOM     22  C   UNL d   1      32.523  17.706 -23.274  0.00  0.00     0.140 A 
ATOM     23  C   UNL d   1      32.411  18.338 -23.791  0.00  0.00     0.031 A 
ATOM     24  F   UNL d   1      32.282  16.940 -23.490  0.00  0.00    -0.204 F 
ATOM     25  C   UNL d   1      32.650  19.092 -23.572  0.00  0.00     0.021 A 
ENDBRANCH  18  19
ENDBRANCH  16  18
ENDBRANCH  15  16
ENDBRANCH   1  15
TORSDOF 7
ENDMDL
MODEL 2
REMARK VINA RESULT:       1.0      1.206      2.036
REMARK  7 active torsions:
REMARK  status: ('A' for Active; 'I' for Inactive)
REMARK    1  A    between atoms: N_4  and  C_1 
REMARK    2  A    between atoms: N_8  and  C_1 
REMARK    3  A    between atoms: C_2  and  C_3 
REMARK    4  A    between atoms: C_5  and  C_2 
REMARK    5  A    between atoms: N_6  and  C_2 
REMARK    6  A    between atoms: C_3  and  N_4 
REMARK    7  A    between atoms: C_14  and  N_8 
ROOT
ATOM      1  C   UNL d   1      32.803  21.445 -21.589  0.00  0.00     0.100 C 
ATOM      2  C   UNL d   1      32.410  20.978 -21.042  0.00  0.00     0.022 C 
ENDROOT
BRANCH   1   3
ATOM      3  C   UNL d   1      32.783  22.267 -21.518  0.00  0.00     0.088 C 
BRANCH   3   4
ATOM      4  C   UNL d   1      32.917  22.623 -20.786  0.00  0.00     0.047 A 
ATOM      5  S   UNL d   1      33.175  23.399 -20.653  0.00  0.00    -0.085 SA
ATOM      6  C   UNL d   1      33.234  23.517 -19.840  0.00  0.00     0.035 A 
ATOM      7  C   UNL d   1      33.013  22.818 -19.454  0.00  0.00     0.007 A 
ATOM      8  C   UNL d   1      32.815  22.258 -20.040  0.00  0.00     0.009 A 
ENDBRANCH   3   4
BRANCH   3   9
ATOM      9  N   UNL d   1      32.626  22.741 -22.182  0.00  0.00    -0.299 N 
ATOM     10  C   UNL d   1      31.865  23.000 -22.331  0.00  0.00     0.107 A 
ATOM     11  C   UNL d   1      31.699  23.470 -22.987  0.00  0.00     0.142 A 
ATOM     12  O   UNL d   1      32.310  23.690 -23.510  0.00  0.00    -0.300 OA
ATOM     13  C   UNL d   1      33.084  23.425 -23.356  0.00  0.00     0.142 A 
ATOM     14  C   UNL d   1      33.241  22.953 -22.695  0.00  0.00     0.107 A 
ENDBRANCH   3   9
ENDBRANCH   1   3
BRANCH   1  15
ATOM     15  N   UNL d   1      33.220  21.103 -22.211  0.00  0.00    -0.216 NA
BRANCH  15  16
ATOM     16  C   UNL d   1      33.223  20.277 -22.302  0.00  0.00     0.221 C 
ATOM     17  S   UNL d   1      33.207  19.794 -21.634  0.00  0.00    -0.037 SA
BRANCH  16  18
ATOM     18  N   UNL d   1      33.241  19.947 -23.057  0.00  0.00    -0.217 NA
BRANCH  18  19
ATOM     19  C   UNL d   1      32.840  19.241 -23.217  0.00  0.00     0.084 A 
ATOM     20  C   UNL d   1      33.149  18.521 -22.939  0.00  0.00     0.021 A 
ATOM     21  C   UNL d   1      32.751  17.832 -23.100  0.00  0.00     0.031 A 
ATOM     22  C   UNL d   1      32.046  17.839 -23.534  0.00  0.00     0.140 A 
ATOM     23  C   UNL d   1      31.743  18.555 -23.808  0.00  0.00     0.031 A 
ATOM     24  F   UNL d   1      31.647  17.127 -23.693  0.00  0.00    -0.204 F 
ATOM     25  C   UNL d   1      32.141  19.254 -23.648  0.00  0.00     0.021 A 
ENDBRANCH  18  19
ENDBRANCH  16  18
ENDBRANCH  15  16
ENDBRANCH   1  15
TORSDOF 7
ENDMDL
MODEL 3
REMARK VINA RESULT:       2.2      2.514      5.323
REMARK  7 active torsions:
REMARK  status: ('A' for Active; 'I' for Inactive)
REMARK    1  A    between atoms: N_4  and  C_1 
REMARK    2  A    between atoms: N_8  and  C_1 
REMARK    3  A    between atoms: C_2  and  C_3 
REMARK    4  A    between atoms: C_5  and  C_2 
REMARK    5  A    between atoms: N_6  and  C_2 
REMARK    6  A    between atoms: C_3  and  N_4 
REMARK    7  A    between atoms: C_14  and  N_8 
ROOT
ATOM      1  C   UNL d   1      32.793  18.230 -22.657  0.00  0.00     0.100 C 
ATOM      2  C   UNL d   1      32.903  17.939 -21.899  0.00  0.00     0.022 C 
ENDROOT
BRANCH   1   3
ATOM      3  C   UNL d   1      32.516  17.730 -23.253  0.00  0.00     0.088 C 
BRANCH   3   4
ATOM      4  C   UNL d   1      32.746  16.938 -23.268  0.00  0.00     0.047 A 
ATOM      5  S   UNL d   1      33.052  16.524 -23.918  0.00  0.00    -0.085 SA
ATOM      6  C   UNL d   1      33.205  15.749 -23.684  0.00  0.00     0.035 A 
ATOM      7  C   UNL d   1      32.997  15.668 -22.886  0.00  0.00     0.007 A 
ATOM      8  C   UNL d   1      32.711  16.407 -22.623  0.00  0.00     0.009 A 
ENDBRANCH   3   4
BRANCH   3   9
ATOM      9  N   UNL d   1      32.005  18.021 -23.840  0.00  0.00    -0.299 N 
ATOM     10  C   UNL d   1      31.197  17.923 -23.764  0.00  0.00     0.107 A 
ATOM     11  C   UNL d   1      30.681  18.208 -24.341  0.00  0.00     0.142 A 
ATOM     12  O   UNL d   1      30.980  18.601 -25.013  0.00  0.00    -0.300 OA
ATOM     13  C   UNL d   1      31.803  18.698 -25.087  0.00  0.00     0.142 A 
ATOM     14  C   UNL d   1      32.313  18.410 -24.503  0.00  0.00     0.107 A 
ENDBRANCH   3   9
ENDBRANCH   1   3
BRANCH   1  15
ATOM     15  N   UNL d   1      32.955  19.018 -22.832  0.00  0.00    -0.216 NA
BRANCH  15  16
ATOM     16  C   UNL d   1      33.143  19.547 -22.220  0.00  0.00     0.221 C 
ATOM     17  S   UNL d   1      33.232  19.264 -21.451  0.00  0.00    -0.037 SA
BRANCH  16  18
ATOM     18  N   UNL d   1      33.240  20.348 -22.386  0.00  0.00    -0.217 NA
BRANCH  18  19
ATOM     19  C   UNL d   1      32.846  20.921 -21.937  0.00  0.00     0.084 A 
ATOM     20  C   UNL d   1      32.494  20.707 -21.215  0.00  0.00     0.021 A 
ATOM     21  C   UNL d   1      32.109  21.274 -20.779  0.00  0.00     0.031 A 
ATOM     22  C   UNL d   1      32.063  22.056 -21.045  0.00  0.00     0.140 A 
ATOM     23  C   UNL d   1      32.413  22.264 -21.762  0.00  0.00     0.031 A 
ATOM     24  F   UNL d   1      31.666  22.628 -20.590  0.00  0.00    -0.204 F 
ATOM     25  C   UNL d   1      32.803  21.696 -22.206  0.00  0.00     0.021 A 
ENDBRANCH  18  19
ENDBRANCH  16  18
ENDBRANCH  15  16
ENDBRANCH   1  15
TORSDOF 7
ENDMDL
MODEL 4
REMARK VINA RESULT:       2.3      3.360      5.859
REMARK  7 active torsions:
REMARK  status: ('A' for Active; 'I' for Inactive)
REMARK    1  A    between atoms: N_4  and  C_1 
REMARK    2  A    between atoms: N_8  and  C_1 
REMARK    3  A    between atoms: C_2  and  C_3 
REMARK    4  A    between atoms: C_5  and  C_2 
REMARK    5  A    between atoms: N_6  and  C_2 
REMARK    6  A    between atoms: C_3  and  N_4 
REMARK    7  A    between atoms: C_14  and  N_8 
ROOT
ATOM      1  C   UNL d   1      31.224  17.847 -24.523  0.00  0.00     0.100 C 
ATOM      2  C   UNL d   1      30.714  18.449 -24.746  0.00  0.00     0.022 C 
ENDROOT
BRANCH   1   3
ATOM      3  C   UNL d   1      30.924  17.098 -24.349  0.00  0.00     0.088 C 
BRANCH   3   4
ATOM      4  C   UNL d   1      30.164  16.890 -24.594  0.00  0.00     0.047 A 
ATOM      5  S   UNL d   1      29.889  16.125 -24.760  0.00  0.00    -0.085 SA
ATOM      6  C   UNL d   1      29.098  16.177 -24.985  0.00  0.00     0.035 A 
ATOM      7  C   UNL d   1      28.868  16.972 -24.964  0.00  0.00     0.007 A 
ATOM      8  C   UNL d   1      29.529  17.420 -24.721  0.00  0.00     0.009 A 
ENDBRANCH   3   4
BRANCH   3   9
ATOM      9  N   UNL d   1      31.383  16.549 -23.927  0.00  0.00    -0.299 N 
ATOM     10  C   UNL d   1      31.271  16.455 -23.122  0.00  0.00     0.107 A 
ATOM     11  C   UNL d   1      31.722  15.913 -22.694  0.00  0.00     0.142 A 
ATOM     12  O   UNL d   1      32.301  15.453 -23.078  0.00  0.00    -0.300 OA
ATOM     13  C   UNL d   1      32.412  15.551 -23.898  0.00  0.00     0.142 A 
ATOM     14  C   UNL d   1      31.955  16.097 -24.319  0.00  0.00     0.107 A 
ENDBRANCH   3   9
ENDBRANCH   1   3
BRANCH   1  15
ATOM     15  N   UNL d   1      32.034  17.980 -24.469  0.00  0.00    -0.216 NA
BRANCH  15  16
ATOM     16  C   UNL d   1      32.339  18.739 -24.618  0.00  0.00     0.221 C 
ATOM     17  S   UNL d   1      31.909  19.265 -25.084  0.00  0.00    -0.037 SA
BRANCH  16  18
ATOM     18  N   UNL d   1      33.067  18.958 -24.300  0.00  0.00    -0.217 NA
BRANCH  18  19
ATOM     19  C   UNL d   1      33.108  19.516 -23.692  0.00  0.00     0.084 A 
ATOM     20  C   UNL d   1      33.109  20.327 -23.876  0.00  0.00     0.021 A 
ATOM     21  C   UNL d   1      33.150  20.870 -23.274  0.00  0.00     0.031 A 
ATOM     22  C   UNL d   1      33.190  20.627 -22.483  0.00  0.00     0.140 A 
ATOM     23  C   UNL d   1      33.190  19.821 -22.305  0.00  0.00     0.031 A 
ATOM     24  F   UNL d   1      33.232  21.191 -21.875  0.00  0.00    -0.204 F 
ATOM     25  C   UNL d   1      33.149  19.269 -22.909  0.00  0.00     0.021 A 
ENDBRANCH  18  19
ENDBRANCH  16  18
ENDBRANCH  15  16
ENDBRANCH   1  15
TORSDOF 7
ENDMDL
