MODEL 1
REMARK VINA RESULT:      56.5      0.000      0.000
REMARK  3 active torsions:
REMARK  status: ('A' for Active; 'I' for Inactive)
REMARK    1  A    between atoms: C_7  and  N_1 
REMARK    2  A    between atoms: C_2  and  C_5 
REMARK    3  A    between atoms: N_3  and  C_2 
REMARK       I    between atoms: C_6  and  N_4 
ROOT
ATOM      1  C   UNL d   1      60.878  49.074  50.886  0.00  0.00     0.120 C 
ATOM      2  S   UNL d   1      61.470  49.621  51.066  0.00  0.00    -0.059 SA
ENDROOT
BRANCH   1   3
ATOM      3  C   UNL d   1      60.079  49.281  50.988  0.00  0.00     0.028 A 
ATOM      4  C   UNL d   1      59.585  49.349  50.328  0.00  0.00     0.026 A 
ATOM      5  C   UNL d   1      58.792  49.554  50.425  0.00  0.00     0.127 A 
ATOM      6  C   UNL d   1      58.492  49.690  51.181  0.00  0.00     0.024 A 
ATOM      7  C   UNL d   1      58.986  49.622  51.841  0.00  0.00     0.002 A 
ATOM      8  C   UNL d   1      59.779  49.417  51.745  0.00  0.00     0.002 A 
BRANCH   5   9
ATOM      9  N   UNL d   1      58.294  49.624  49.768  0.00  0.00    -0.114 N 
ATOM     10  O   UNL d   1      57.472  49.618  49.855  0.00  0.00    -0.532 OA
ATOM     11  O   UNL d   1      58.633  49.699  49.020  0.00  0.00    -0.532 OA
ENDBRANCH   5   9
ENDBRANCH   1   3
BRANCH   1  12
ATOM     12  N   UNL d   1      61.079  48.324  50.607  0.00  0.00    -0.293 N 
ATOM     13  C   UNL d   1      60.817  47.649  51.010  0.00  0.00     0.100 A 
ATOM     14  C   UNL d   1      61.018  46.898  50.730  0.00  0.00     0.102 A 
ATOM     15  N   UNL d   1      61.480  46.819  50.050  0.00  0.00    -0.269 N 
ATOM     16  C   UNL d   1      61.742  47.495  49.648  0.00  0.00     0.102 A 
ATOM     17  C   UNL d   1      61.681  46.069  49.771  0.00  0.00     0.265 C 
ATOM     18  C   UNL d   1      61.542  48.245  49.926  0.00  0.00     0.100 A 
ATOM     19  O   UNL d   1      62.144  45.990  49.090  0.00  0.00    -0.267 OA
ATOM     20  C   UNL d   1      61.421  45.398  50.169  0.00  0.00     0.066 C 
ENDBRANCH   1  12
TORSDOF 3
ENDMDL
