MODEL 1
REMARK VINA RESULT:      34.1      0.000      0.000
REMARK  5 active torsions:
REMARK  status: ('A' for Active; 'I' for Inactive)
REMARK    1  A    between atoms: C_12  and  N_4 
REMARK    2  A    between atoms: C_10  and  N_6 
REMARK    3  A    between atoms: C_11  and  C_10 
REMARK       I    between atoms: N_14  and  C_11 
REMARK    4  A    between atoms: C_16  and  N_14 
REMARK    5  A    between atoms: C_17  and  C_16 
ROOT
ATOM      1  C   UNL d   1      13.916  12.608  -2.203  0.00  0.00     0.172 A 
ATOM      2  C   UNL d   1      13.687  12.290  -1.477  0.00  0.00     0.113 A 
ATOM      3  N   UNL d   1      14.541  13.139  -2.243  0.00  0.00    -0.206 NA
ATOM      4  N   UNL d   1      13.414  12.289  -2.782  0.00  0.00    -0.212 N 
ATOM      5  C   UNL d   1      14.083  12.502  -0.791  0.00  0.00     0.271 A 
ATOM      6  N   UNL d   1      14.714  13.037  -0.826  0.00  0.00    -0.251 N 
ATOM      7  N   UNL d   1      12.890  11.785  -2.408  0.00  0.00    -0.162 NA
ATOM      8  C   UNL d   1      14.943  13.355  -1.552  0.00  0.00     0.187 A 
ATOM      9  C   UNL d   1      13.049  11.780  -1.620  0.00  0.00     0.129 A 
ATOM     10  O   UNL d   1      13.855  12.184  -0.065  0.00  0.00    -0.266 OA
ENDROOT
BRANCH   6  11
ATOM     11  C   UNL d   1      15.123  13.258  -0.132  0.00  0.00     0.147 C 
BRANCH  11  12
ATOM     12  C   UNL d   1      15.569  13.959  -0.117  0.00  0.00     0.297 C 
ATOM     13  N   UNL d   1      15.176  14.682  -0.062  0.00  0.00    -0.205 NA
ATOM     14  O   UNL d   1      16.384  13.923  -0.157  0.00  0.00    -0.264 OA
BRANCH  13  15
ATOM     15  C   UNL d   1      15.622  15.383  -0.047  0.00  0.00     0.102 C 
BRANCH  15  16
ATOM     16  C   UNL d   1      15.439  15.977  -0.579  0.00  0.00     0.019 A 
ATOM     17  C   UNL d   1      14.920  15.843  -1.196  0.00  0.00     0.002 A 
ATOM     18  C   UNL d   1      14.738  16.451  -1.733  0.00  0.00     0.000 A 
ATOM     19  C   UNL d   1      15.091  17.191  -1.633  0.00  0.00     0.000 A 
ATOM     20  C   UNL d   1      15.611  17.332  -1.019  0.00  0.00     0.000 A 
ATOM     21  C   UNL d   1      15.792  16.723  -0.482  0.00  0.00     0.002 A 
ENDBRANCH  15  16
ENDBRANCH  13  15
ENDBRANCH  11  12
ENDBRANCH   6  11
BRANCH   4  22
ATOM     22  C   UNL d   1      13.411  12.426  -3.584  0.00  0.00     0.085 A 
ATOM     23  C   UNL d   1      13.459  11.788  -4.117  0.00  0.00     0.019 A 
ATOM     24  C   UNL d   1      13.455  11.932  -4.923  0.00  0.00     0.002 A 
ATOM     25  C   UNL d   1      13.402  12.721  -5.213  0.00  0.00     0.000 A 
ATOM     26  C   UNL d   1      13.355  13.334  -4.683  0.00  0.00     0.002 A 
ATOM     27  C   UNL d   1      13.358  13.199  -3.872  0.00  0.00     0.019 A 
ENDBRANCH   4  22
TORSDOF 5
ENDMDL
