MODEL 1
REMARK VINA RESULT:      -4.8      0.000      0.000
REMARK  3 active torsions:
REMARK  status: ('A' for Active; 'I' for Inactive)
REMARK    1  A    between atoms: C_8  and  C_6 
REMARK    2  A    between atoms: C_9  and  C_8 
REMARK       I    between atoms: N_10  and  C_9 
REMARK    3  A    between atoms: C_14  and  N_10 
ROOT
ATOM      1  C   UNL d   1      58.667  -0.671  29.123  0.00  0.00     0.085 A 
ATOM      2  C   UNL d   1      59.878  -1.772  28.955  0.00  0.00     0.094 A 
ATOM      3  C   UNL d   1      59.415  -0.425  28.884  0.00  0.00     0.021 A 
ATOM      4  C   UNL d   1      58.521  -1.464  29.278  0.00  0.00     0.021 A 
ATOM      5  C   UNL d   1      59.122  -2.018  29.196  0.00  0.00     0.026 A 
ATOM      6  C   UNL d   1      60.021  -0.976  28.800  0.00  0.00     0.026 A 
ATOM      7  O   UNL d   1      60.473  -2.314  28.873  0.00  0.00    -0.328 OA
ATOM      8  C   UNL d   1      61.075  -2.865  28.790  0.00  0.00     0.181 C 
ENDROOT
BRANCH   1   9
ATOM      9  N   UNL d   1      58.057  -0.120  29.207  0.00  0.00    -0.208 NA
ATOM     10  C   UNL d   1      57.825   0.130  29.961  0.00  0.00     0.281 C 
ATOM     11  O   UNL d   1      57.214   0.681  30.039  0.00  0.00    -0.265 OA
BRANCH  10  12
ATOM     12  C   UNL d   1      58.205  -0.175  30.635  0.00  0.00     0.086 C 
BRANCH  12  13
ATOM     13  C   UNL d   1      57.841  -0.106  31.370  0.00  0.00     0.144 A 
ATOM     14  N   UNL d   1      57.196  -0.607  31.462  0.00  0.00    -0.240 NA
ATOM     15  C   UNL d   1      56.707  -0.686  32.115  0.00  0.00     0.083 A 
ATOM     16  C   UNL d   1      56.735  -0.289  32.840  0.00  0.00     0.035 A 
ATOM     17  C   UNL d   1      56.123  -1.253  31.979  0.00  0.00     0.019 A 
ATOM     18  C   UNL d   1      57.325   0.284  32.977  0.00  0.00     0.086 A 
ATOM     19  C   UNL d   1      56.184  -0.451  33.434  0.00  0.00     0.003 A 
ATOM     20  N   UNL d   1      57.922   0.526  32.462  0.00  0.00    -0.207 NA
ATOM     21  C   UNL d   1      57.355   0.682  33.700  0.00  0.00     0.019 A 
ATOM     22  C   UNL d   1      58.088   0.278  31.707  0.00  0.00     0.297 A 
ATOM     23  O   UNL d   1      58.734   0.643  31.350  0.00  0.00    -0.264 OA
ATOM     24  C   UNL d   1      56.800   0.514  34.289  0.00  0.00     0.002 A 
ATOM     25  C   UNL d   1      56.216  -0.053  34.154  0.00  0.00     0.000 A 
ATOM     26  C   UNL d   1      55.593  -1.025  33.297  0.00  0.00     0.000 A 
ATOM     27  C   UNL d   1      55.560  -1.424  32.577  0.00  0.00     0.002 A 
ENDBRANCH  12  13
ENDBRANCH  10  12
ENDBRANCH   1   9
TORSDOF 3
ENDMDL
MODEL 2
REMARK VINA RESULT:      -2.9      1.242      4.901
REMARK  3 active torsions:
REMARK  status: ('A' for Active; 'I' for Inactive)
REMARK    1  A    between atoms: C_8  and  C_6 
REMARK    2  A    between atoms: C_9  and  C_8 
REMARK       I    between atoms: N_10  and  C_9 
REMARK    3  A    between atoms: C_14  and  N_10 
ROOT
ATOM      1  C   UNL d   1      56.946   0.509  31.544  0.00  0.00     0.085 A 
ATOM      2  C   UNL d   1      56.707   0.181  33.139  0.00  0.00     0.094 A 
ATOM      3  C   UNL d   1      57.540   0.671  32.090  0.00  0.00     0.021 A 
ATOM      4  C   UNL d   1      56.233   0.185  31.791  0.00  0.00     0.021 A 
ATOM      5  C   UNL d   1      56.108   0.019  32.587  0.00  0.00     0.026 A 
ATOM      6  C   UNL d   1      57.421   0.507  32.888  0.00  0.00     0.026 A 
ATOM      7  O   UNL d   1      56.588   0.020  33.923  0.00  0.00    -0.328 OA
ATOM      8  C   UNL d   1      56.467  -0.144  34.717  0.00  0.00     0.181 C 
ENDROOT
BRANCH   1   9
ATOM      9  N   UNL d   1      57.064   0.673  30.743  0.00  0.00    -0.208 NA
ATOM     10  C   UNL d   1      57.475   0.137  30.265  0.00  0.00     0.281 C 
ATOM     11  O   UNL d   1      57.589   0.306  29.465  0.00  0.00    -0.265 OA
BRANCH  10  12
ATOM     12  C   UNL d   1      57.770  -0.569  30.593  0.00  0.00     0.086 C 
BRANCH  12  13
ATOM     13  C   UNL d   1      58.310  -1.018  30.163  0.00  0.00     0.144 A 
ATOM     14  N   UNL d   1      59.003  -0.613  29.988  0.00  0.00    -0.240 NA
ATOM     15  C   UNL d   1      59.655  -0.884  29.573  0.00  0.00     0.083 A 
ATOM     16  C   UNL d   1      59.784  -1.625  29.227  0.00  0.00     0.035 A 
ATOM     17  C   UNL d   1      60.236  -0.301  29.521  0.00  0.00     0.019 A 
ATOM     18  C   UNL d   1      59.197  -2.215  29.280  0.00  0.00     0.086 A 
ATOM     19  C   UNL d   1      60.489  -1.790  28.828  0.00  0.00     0.003 A 
ATOM     20  N   UNL d   1      58.463  -2.163  29.650  0.00  0.00    -0.207 NA
ATOM     21  C   UNL d   1      59.323  -2.955  28.936  0.00  0.00     0.019 A 
ATOM     22  C   UNL d   1      58.124  -1.542  30.050  0.00  0.00     0.297 A 
ATOM     23  O   UNL d   1      57.373  -1.684  30.353  0.00  0.00    -0.264 OA
ATOM     24  C   UNL d   1      60.030  -3.113  28.538  0.00  0.00     0.002 A 
ATOM     25  C   UNL d   1      60.611  -2.530  28.486  0.00  0.00     0.000 A 
ATOM     26  C   UNL d   1      61.076  -1.199  28.775  0.00  0.00     0.000 A 
ATOM     27  C   UNL d   1      60.954  -0.460  29.117  0.00  0.00     0.002 A 
ENDBRANCH  12  13
ENDBRANCH  10  12
ENDBRANCH   1   9
TORSDOF 3
ENDMDL
