MODEL 1
REMARK VINA RESULT:     -10.3      0.000      0.000
REMARK  4 active torsions:
REMARK  status: ('A' for Active; 'I' for Inactive)
REMARK    1  A    between atoms: N_5  and  C_1 
REMARK    2  A    between atoms: C_8  and  C_2 
REMARK       I    between atoms: C_7  and  N_5 
REMARK    3  A    between atoms: C_10  and  C_7 
REMARK    4  A    between atoms: N_9  and  C_8 
ROOT
ATOM      1  C   UNL d   1      53.157  33.557  53.877  0.00  0.00     0.115 A 
ATOM      2  C   UNL d   1      53.748  33.011  53.706  0.00  0.00     0.042 A 
ATOM      3  S   UNL d   1      53.420  34.028  54.517  0.00  0.00    -0.068 SA
ATOM      4  C   UNL d   1      54.376  33.140  54.235  0.00  0.00     0.009 A 
ATOM      5  C   UNL d   1      54.158  33.770  54.728  0.00  0.00     0.031 A 
ATOM      6  C   UNL d   1      55.089  32.723  54.271  0.00  0.00     0.001 C 
ATOM      7  C   UNL d   1      54.615  34.090  55.341  0.00  0.00     0.007 C 
ENDROOT
BRANCH   1   8
ATOM      8  N   UNL d   1      52.459  33.562  53.437  0.00  0.00    -0.201 NA
ATOM      9  C   UNL d   1      52.056  34.268  53.308  0.00  0.00     0.280 C 
ATOM     10  O   UNL d   1      52.353  34.971  53.619  0.00  0.00    -0.265 OA
BRANCH   9  11
ATOM     11  C   UNL d   1      51.358  34.273  52.868  0.00  0.00     0.058 A 
ATOM     12  C   UNL d   1      50.631  34.230  53.249  0.00  0.00     0.007 A 
ATOM     13  C   UNL d   1      49.925  34.235  52.804  0.00  0.00     0.030 A 
ATOM     14  C   UNL d   1      49.956  34.282  51.984  0.00  0.00     0.140 A 
ATOM     15  C   UNL d   1      50.684  34.324  51.601  0.00  0.00     0.030 A 
ATOM     16  F   UNL d   1      49.258  34.286  51.544  0.00  0.00    -0.204 F 
ATOM     17  C   UNL d   1      51.390  34.319  52.046  0.00  0.00     0.007 A 
ENDBRANCH   9  11
ENDBRANCH   1   8
BRANCH   2  18
ATOM     18  C   UNL d   1      53.723  32.430  53.108  0.00  0.00     0.082 C 
BRANCH  18  19
ATOM     19  N   UNL d   1      53.477  31.662  53.287  0.00  0.00    -0.302 N 
ATOM     20  C   UNL d   1      52.981  31.355  52.703  0.00  0.00     0.080 A 
ATOM     21  C   UNL d   1      52.622  30.620  52.671  0.00  0.00     0.019 A 
ATOM     22  C   UNL d   1      52.666  30.000  53.214  0.00  0.00     0.002 A 
ATOM     23  C   UNL d   1      53.082  29.964  53.925  0.00  0.00     0.002 A 
ATOM     24  C   UNL d   1      53.559  30.547  54.268  0.00  0.00     0.019 A 
ATOM     25  C   UNL d   1      53.735  31.299  53.987  0.00  0.00     0.080 A 
ENDBRANCH  18  19
ENDBRANCH   2  18
TORSDOF 4
ENDMDL
MODEL 2
REMARK VINA RESULT:      -9.8      1.705      3.746
REMARK  4 active torsions:
REMARK  status: ('A' for Active; 'I' for Inactive)
REMARK    1  A    between atoms: N_5  and  C_1 
REMARK    2  A    between atoms: C_8  and  C_2 
REMARK       I    between atoms: C_7  and  N_5 
REMARK    3  A    between atoms: C_10  and  C_7 
REMARK    4  A    between atoms: N_9  and  C_8 
ROOT
ATOM      1  C   UNL d   1      53.698  32.881  54.352  0.00  0.00     0.115 A 
ATOM      2  C   UNL d   1      53.236  33.543  54.514  0.00  0.00     0.042 A 
ATOM      3  S   UNL d   1      54.497  33.085  54.497  0.00  0.00    -0.068 SA
ATOM      4  C   UNL d   1      53.743  34.155  54.758  0.00  0.00     0.009 A 
ATOM      5  C   UNL d   1      54.516  33.857  54.742  0.00  0.00     0.031 A 
ATOM      6  C   UNL d   1      53.525  34.922  54.978  0.00  0.00     0.001 C 
ATOM      7  C   UNL d   1      55.203  34.274  54.943  0.00  0.00     0.007 C 
ENDROOT
BRANCH   1   8
ATOM      8  N   UNL d   1      53.343  32.182  54.096  0.00  0.00    -0.201 NA
ATOM      9  C   UNL d   1      53.808  31.546  53.859  0.00  0.00     0.280 C 
ATOM     10  O   UNL d   1      54.629  31.609  53.879  0.00  0.00    -0.265 OA
BRANCH   9  11
ATOM     11  C   UNL d   1      53.453  30.846  53.603  0.00  0.00     0.058 A 
ATOM     12  C   UNL d   1      53.161  30.789  52.836  0.00  0.00     0.007 A 
ATOM     13  C   UNL d   1      52.802  30.082  52.577  0.00  0.00     0.030 A 
ATOM     14  C   UNL d   1      52.739  29.441  53.088  0.00  0.00     0.140 A 
ATOM     15  C   UNL d   1      53.032  29.497  53.856  0.00  0.00     0.030 A 
ATOM     16  F   UNL d   1      52.384  28.742  52.832  0.00  0.00    -0.204 F 
ATOM     17  C   UNL d   1      53.390  30.204  54.115  0.00  0.00     0.007 A 
ENDBRANCH   9  11
ENDBRANCH   1   8
BRANCH   2  18
ATOM     18  C   UNL d   1      52.406  33.591  54.445  0.00  0.00     0.082 C 
BRANCH  18  19
ATOM     19  N   UNL d   1      52.063  33.822  53.730  0.00  0.00    -0.302 N 
ATOM     20  C   UNL d   1      51.291  33.539  53.655  0.00  0.00     0.080 A 
ATOM     21  C   UNL d   1      50.766  33.644  53.036  0.00  0.00     0.019 A 
ATOM     22  C   UNL d   1      50.874  34.057  52.330  0.00  0.00     0.002 A 
ATOM     23  C   UNL d   1      51.539  34.470  52.070  0.00  0.00     0.002 A 
ATOM     24  C   UNL d   1      52.264  34.569  52.459  0.00  0.00     0.019 A 
ATOM     25  C   UNL d   1      52.497  34.283  53.193  0.00  0.00     0.080 A 
ENDBRANCH  18  19
ENDBRANCH   2  18
TORSDOF 4
ENDMDL
MODEL 3
REMARK VINA RESULT:      -9.3      1.995      4.091
REMARK  4 active torsions:
REMARK  status: ('A' for Active; 'I' for Inactive)
REMARK    1  A    between atoms: N_5  and  C_1 
REMARK    2  A    between atoms: C_8  and  C_2 
REMARK       I    between atoms: C_7  and  N_5 
REMARK    3  A    between atoms: C_10  and  C_7 
REMARK    4  A    between atoms: N_9  and  C_8 
ROOT
ATOM      1  C   UNL d   1      52.267  32.708  53.161  0.00  0.00     0.115 A 
ATOM      2  C   UNL d   1      52.695  33.400  53.040  0.00  0.00     0.042 A 
ATOM      3  S   UNL d   1      51.456  32.884  53.049  0.00  0.00    -0.068 SA
ATOM      4  C   UNL d   1      52.155  34.004  52.854  0.00  0.00     0.009 A 
ATOM      5  C   UNL d   1      51.397  33.670  52.864  0.00  0.00     0.031 A 
ATOM      6  C   UNL d   1      52.332  34.795  52.688  0.00  0.00     0.001 C 
ATOM      7  C   UNL d   1      50.686  34.069  52.710  0.00  0.00     0.007 C 
ENDROOT
BRANCH   1   8
ATOM      8  N   UNL d   1      52.660  32.008  53.355  0.00  0.00    -0.201 NA
ATOM      9  C   UNL d   1      52.253  31.293  53.355  0.00  0.00     0.280 C 
ATOM     10  O   UNL d   1      51.453  31.276  53.160  0.00  0.00    -0.265 OA
BRANCH   9  11
ATOM     11  C   UNL d   1      52.646  30.594  53.550  0.00  0.00     0.058 A 
ATOM     12  C   UNL d   1      52.714  30.365  54.337  0.00  0.00     0.007 A 
ATOM     13  C   UNL d   1      53.111  29.659  54.534  0.00  0.00     0.030 A 
ATOM     14  C   UNL d   1      53.434  29.189  53.941  0.00  0.00     0.140 A 
ATOM     15  C   UNL d   1      53.366  29.417  53.153  0.00  0.00     0.030 A 
ATOM     16  F   UNL d   1      53.827  28.490  54.136  0.00  0.00    -0.204 F 
ATOM     17  C   UNL d   1      52.969  30.124  52.956  0.00  0.00     0.007 A 
ENDBRANCH   9  11
ENDBRANCH   1   8
BRANCH   2  18
ATOM     18  C   UNL d   1      53.523  33.482  53.094  0.00  0.00     0.082 C 
BRANCH  18  19
ATOM     19  N   UNL d   1      53.877  33.632  53.825  0.00  0.00    -0.302 N 
ATOM     20  C   UNL d   1      54.622  33.282  53.881  0.00  0.00     0.080 A 
ATOM     21  C   UNL d   1      55.149  33.297  54.508  0.00  0.00     0.019 A 
ATOM     22  C   UNL d   1      55.068  33.667  55.242  0.00  0.00     0.002 A 
ATOM     23  C   UNL d   1      54.436  34.113  55.529  0.00  0.00     0.002 A 
ATOM     24  C   UNL d   1      53.726  34.299  55.146  0.00  0.00     0.019 A 
ATOM     25  C   UNL d   1      53.477  34.086  54.392  0.00  0.00     0.080 A 
ENDBRANCH  18  19
ENDBRANCH   2  18
TORSDOF 4
ENDMDL
MODEL 4
REMARK VINA RESULT:      -8.7      1.348      2.633
REMARK  4 active torsions:
REMARK  status: ('A' for Active; 'I' for Inactive)
REMARK    1  A    between atoms: N_5  and  C_1 
REMARK    2  A    between atoms: C_8  and  C_2 
REMARK       I    between atoms: C_7  and  N_5 
REMARK    3  A    between atoms: C_10  and  C_7 
REMARK    4  A    between atoms: N_9  and  C_8 
ROOT
ATOM      1  C   UNL d   1      52.599  31.762  53.169  0.00  0.00     0.115 A 
ATOM      2  C   UNL d   1      53.420  31.731  53.211  0.00  0.00     0.042 A 
ATOM      3  S   UNL d   1      52.310  30.978  53.226  0.00  0.00    -0.068 SA
ATOM      4  C   UNL d   1      53.642  30.933  53.293  0.00  0.00     0.009 A 
ATOM      5  C   UNL d   1      52.947  30.483  53.301  0.00  0.00     0.031 A 
ATOM      6  C   UNL d   1      54.411  30.636  53.357  0.00  0.00     0.001 C 
ATOM      7  C   UNL d   1      52.900  29.659  53.373  0.00  0.00     0.007 C 
ENDROOT
BRANCH   1   8
ATOM      8  N   UNL d   1      52.217  32.488  53.085  0.00  0.00    -0.201 NA
ATOM      9  C   UNL d   1      51.397  32.518  53.020  0.00  0.00     0.280 C 
ATOM     10  O   UNL d   1      50.959  31.821  53.038  0.00  0.00    -0.265 OA
BRANCH   9  11
ATOM     11  C   UNL d   1      51.015  33.245  52.936  0.00  0.00     0.058 A 
ATOM     12  C   UNL d   1      50.742  33.646  53.600  0.00  0.00     0.007 A 
ATOM     13  C   UNL d   1      50.356  34.380  53.515  0.00  0.00     0.030 A 
ATOM     14  C   UNL d   1      50.247  34.705  52.767  0.00  0.00     0.140 A 
ATOM     15  C   UNL d   1      50.520  34.303  52.102  0.00  0.00     0.030 A 
ATOM     16  F   UNL d   1      49.865  35.431  52.683  0.00  0.00    -0.204 F 
ATOM     17  C   UNL d   1      50.906  33.569  52.187  0.00  0.00     0.007 A 
ENDBRANCH   9  11
ENDBRANCH   1   8
BRANCH   2  18
ATOM     18  C   UNL d   1      53.939  32.383  53.177  0.00  0.00     0.082 C 
BRANCH  18  19
ATOM     19  N   UNL d   1      54.220  32.724  53.874  0.00  0.00    -0.302 N 
ATOM     20  C   UNL d   1      54.843  33.247  53.729  0.00  0.00     0.080 A 
ATOM     21  C   UNL d   1      55.271  33.694  54.266  0.00  0.00     0.019 A 
ATOM     22  C   UNL d   1      55.188  33.736  55.086  0.00  0.00     0.002 A 
ATOM     23  C   UNL d   1      54.654  33.338  55.572  0.00  0.00     0.002 A 
ATOM     24  C   UNL d   1      54.067  32.796  55.352  0.00  0.00     0.019 A 
ATOM     25  C   UNL d   1      53.875  32.524  54.601  0.00  0.00     0.080 A 
ENDBRANCH  18  19
ENDBRANCH   2  18
TORSDOF 4
ENDMDL
