MODEL 1
REMARK VINA RESULT:      -1.2      0.000      0.000
REMARK  3 active torsions:
REMARK  status: ('A' for Active; 'I' for Inactive)
REMARK    1  A    between atoms: S_6  and  C_2 
REMARK    2  A    between atoms: C_9  and  S_6 
REMARK    3  A    between atoms: C_7  and  C_9 
ROOT
ATOM      1  N   UNL d   1      46.124 -15.436  36.376  0.00  0.00    -0.196 NA
ATOM      2  C   UNL d   1      45.379 -15.264  36.707  0.00  0.00     0.213 A 
ATOM      3  N   UNL d   1      46.209 -14.248  36.996  0.00  0.00    -0.123 NA
ATOM      4  N   UNL d   1      45.434 -14.533  37.088  0.00  0.00    -0.120 NA
ATOM      5  C   UNL d   1      46.634 -14.801  36.559  0.00  0.00     0.224 A 
ENDROOT
BRANCH   2   6
ATOM      6  S   UNL d   1      44.710 -15.742  36.660  0.00  0.00    -0.062 SA
BRANCH   6   7
ATOM      7  C   UNL d   1      43.953 -15.406  36.699  0.00  0.00     0.162 C 
BRANCH   7   8
ATOM      8  C   UNL d   1      43.288 -15.841  36.476  0.00  0.00     0.197 C 
ATOM      9  O   UNL d   1      42.553 -15.458  36.396  0.00  0.00    -0.647 OA
ATOM     10  O   UNL d   1      43.352 -16.651  36.332  0.00  0.00    -0.647 OA
ENDBRANCH   7   8
ENDBRANCH   6   7
ENDBRANCH   2   6
TORSDOF 3
ENDMDL
MODEL 2
REMARK VINA RESULT:      -0.0      2.248      2.944
REMARK  3 active torsions:
REMARK  status: ('A' for Active; 'I' for Inactive)
REMARK    1  A    between atoms: S_6  and  C_2 
REMARK    2  A    between atoms: C_9  and  S_6 
REMARK    3  A    between atoms: C_7  and  C_9 
ROOT
ATOM      1  N   UNL d   1      43.673 -15.100  37.042  0.00  0.00    -0.196 NA
ATOM      2  C   UNL d   1      44.200 -15.597  36.629  0.00  0.00     0.213 A 
ATOM      3  N   UNL d   1      42.971 -16.135  36.555  0.00  0.00    -0.123 NA
ATOM      4  N   UNL d   1      43.765 -16.233  36.330  0.00  0.00    -0.120 NA
ATOM      5  C   UNL d   1      42.913 -15.440  36.992  0.00  0.00     0.224 A 
ENDROOT
BRANCH   2   6
ATOM      6  S   UNL d   1      45.009 -15.472  36.537  0.00  0.00    -0.062 SA
BRANCH   6   7
ATOM      7  C   UNL d   1      45.394 -14.888  36.983  0.00  0.00     0.162 C 
BRANCH   7   8
ATOM      8  C   UNL d   1      46.177 -14.683  36.819  0.00  0.00     0.197 C 
ATOM      9  O   UNL d   1      46.489 -13.974  37.124  0.00  0.00    -0.647 OA
ATOM     10  O   UNL d   1      46.646 -15.178  36.355  0.00  0.00    -0.647 OA
ENDBRANCH   7   8
ENDBRANCH   6   7
ENDBRANCH   2   6
TORSDOF 3
ENDMDL
MODEL 3
REMARK VINA RESULT:       0.2      7.746      7.962
REMARK  3 active torsions:
REMARK  status: ('A' for Active; 'I' for Inactive)
REMARK    1  A    between atoms: S_6  and  C_2 
REMARK    2  A    between atoms: C_9  and  S_6 
REMARK    3  A    between atoms: C_7  and  C_9 
ROOT
ATOM      1  N   UNL d   1      46.551 -18.640  42.273  0.00  0.00    -0.196 NA
ATOM      2  C   UNL d   1      46.605 -19.471  42.294  0.00  0.00     0.213 A 
ATOM      3  N   UNL d   1      46.619 -19.085  41.008  0.00  0.00    -0.123 NA
ATOM      4  N   UNL d   1      46.646 -19.742  41.515  0.00  0.00    -0.120 NA
ATOM      5  C   UNL d   1      46.561 -18.407  41.472  0.00  0.00     0.224 A 
ENDROOT
BRANCH   2   6
ATOM      6  S   UNL d   1      46.614 -19.936  42.975  0.00  0.00    -0.062 SA
BRANCH   6   7
ATOM      7  C   UNL d   1      46.533 -19.585  43.722  0.00  0.00     0.162 C 
BRANCH   7   8
ATOM      8  C   UNL d   1      46.180 -19.997  44.344  0.00  0.00     0.197 C 
ATOM      9  O   UNL d   1      45.354 -20.098  44.353  0.00  0.00    -0.647 OA
ATOM     10  O   UNL d   1      46.644 -20.305  44.952  0.00  0.00    -0.647 OA
ENDBRANCH   7   8
ENDBRANCH   6   7
ENDBRANCH   2   6
TORSDOF 3
ENDMDL
MODEL 4
REMARK VINA RESULT:       0.3      7.770      7.959
REMARK  3 active torsions:
REMARK  status: ('A' for Active; 'I' for Inactive)
REMARK    1  A    between atoms: S_6  and  C_2 
REMARK    2  A    between atoms: C_9  and  S_6 
REMARK    3  A    between atoms: C_7  and  C_9 
ROOT
ATOM      1  N   UNL d   1      44.837 -13.039  43.260  0.00  0.00    -0.196 NA
ATOM      2  C   UNL d   1      45.143 -13.194  44.019  0.00  0.00     0.213 A 
ATOM      3  N   UNL d   1      45.730 -12.080  43.551  0.00  0.00    -0.123 NA
ATOM      4  N   UNL d   1      45.692 -12.603  44.196  0.00  0.00    -0.120 NA
ATOM      5  C   UNL d   1      45.206 -12.347  42.976  0.00  0.00     0.224 A 
ENDROOT
BRANCH   2   6
ATOM      6  S   UNL d   1      44.932 -13.826  44.504  0.00  0.00    -0.062 SA
BRANCH   6   7
ATOM      7  C   UNL d   1      45.501 -14.382  44.737  0.00  0.00     0.162 C 
BRANCH   7   8
ATOM      8  C   UNL d   1      45.291 -15.169  44.871  0.00  0.00     0.197 C 
ATOM      9  O   UNL d   1      45.886 -15.745  44.955  0.00  0.00    -0.647 OA
ATOM     10  O   UNL d   1      44.496 -15.382  44.920  0.00  0.00    -0.647 OA
ENDBRANCH   7   8
ENDBRANCH   6   7
ENDBRANCH   2   6
TORSDOF 3
ENDMDL
