MODEL 1
REMARK VINA RESULT:      41.2      0.000      0.000
REMARK  6 active torsions:
REMARK  status: ('A' for Active; 'I' for Inactive)
REMARK    1  A    between atoms: C_6  and  C_2 
REMARK    2  A    between atoms: C_7  and  C_6 
REMARK    3  A    between atoms: C_8  and  C_15 
REMARK       I    between atoms: N_9  and  C_8 
REMARK    4  A    between atoms: C_16  and  N_9 
REMARK    5  A    between atoms: O_13  and  C_12 
REMARK    6  A    between atoms: C_15  and  O_13 
ROOT
ATOM      1  C   UNL d   1      15.197  14.407  -0.533  0.00  0.00     0.023 A 
ATOM      2  C   UNL d   1      15.018  13.620  -0.692  0.00  0.00     0.100 A 
ATOM      3  C   UNL d   1      15.917  14.607  -0.201  0.00  0.00     0.002 A 
ATOM      4  C   UNL d   1      15.562  13.030  -0.517  0.00  0.00     0.025 A 
ATOM      5  C   UNL d   1      16.469  14.022  -0.022  0.00  0.00     0.000 A 
ATOM      6  C   UNL d   1      16.286  13.230  -0.183  0.00  0.00     0.002 A 
ENDROOT
BRANCH   2   7
ATOM      7  O   UNL d   1      14.290  13.420  -1.027  0.00  0.00    -0.300 OA
BRANCH   7   8
ATOM      8  C   UNL d   1      14.257  12.810  -1.586  0.00  0.00     0.185 C 
BRANCH   8   9
ATOM      9  C   UNL d   1      13.796  12.138  -1.434  0.00  0.00     0.304 C 
ATOM     10  N   UNL d   1      13.382  11.781  -2.053  0.00  0.00    -0.206 NA
ATOM     11  O   UNL d   1      13.753  11.832  -0.673  0.00  0.00    -0.263 OA
BRANCH  10  12
ATOM     12  C   UNL d   1      13.425  12.087  -2.814  0.00  0.00     0.085 A 
ATOM     13  C   UNL d   1      14.005  11.828  -3.337  0.00  0.00     0.021 A 
ATOM     14  C   UNL d   1      14.048  12.136  -4.105  0.00  0.00     0.031 A 
ATOM     15  C   UNL d   1      13.503  12.711  -4.347  0.00  0.00     0.140 A 
ATOM     16  C   UNL d   1      12.919  12.971  -3.819  0.00  0.00     0.031 A 
ATOM     17  F   UNL d   1      13.539  13.023  -5.110  0.00  0.00    -0.204 F 
ATOM     18  C   UNL d   1      12.879  12.661  -3.056  0.00  0.00     0.021 A 
ENDBRANCH  10  12
ENDBRANCH   8   9
ENDBRANCH   7   8
ENDBRANCH   2   7
BRANCH   1  19
ATOM     19  C   UNL d   1      14.653  15.002  -0.707  0.00  0.00     0.013 C 
BRANCH  19  20
ATOM     20  C   UNL d   1      14.879  15.661  -1.142  0.00  0.00     0.092 A 
ATOM     21  C   UNL d   1      15.067  16.397  -0.842  0.00  0.00     0.288 A 
ATOM     22  N   UNL d   1      15.261  16.889  -1.469  0.00  0.00    -0.163 NA
ATOM     23  O   UNL d   1      15.062  16.611  -0.046  0.00  0.00    -0.265 OA
ATOM     24  C   UNL d   1      15.193  16.451  -2.165  0.00  0.00     0.313 A 
ATOM     25  S   UNL d   1      14.956  15.688  -1.962  0.00  0.00    -0.021 SA
ATOM     26  O   UNL d   1      15.336  16.727  -2.932  0.00  0.00    -0.258 OA
ENDBRANCH  19  20
ENDBRANCH   1  19
TORSDOF 6
ENDMDL
MODEL 2
REMARK VINA RESULT:      42.6      2.022      3.763
REMARK  6 active torsions:
REMARK  status: ('A' for Active; 'I' for Inactive)
REMARK    1  A    between atoms: C_6  and  C_2 
REMARK    2  A    between atoms: C_7  and  C_6 
REMARK    3  A    between atoms: C_8  and  C_15 
REMARK       I    between atoms: N_9  and  C_8 
REMARK    4  A    between atoms: C_16  and  N_9 
REMARK    5  A    between atoms: O_13  and  C_12 
REMARK    6  A    between atoms: C_15  and  O_13 
ROOT
ATOM      1  C   UNL d   1      13.237  13.380  -3.681  0.00  0.00     0.023 A 
ATOM      2  C   UNL d   1      13.327  12.859  -3.051  0.00  0.00     0.100 A 
ATOM      3  C   UNL d   1      13.263  13.105  -4.451  0.00  0.00     0.002 A 
ATOM      4  C   UNL d   1      13.443  12.059  -3.192  0.00  0.00     0.025 A 
ATOM      5  C   UNL d   1      13.380  12.303  -4.601  0.00  0.00     0.000 A 
ATOM      6  C   UNL d   1      13.470  11.781  -3.964  0.00  0.00     0.002 A 
ENDROOT
BRANCH   2   7
ATOM      7  O   UNL d   1      13.300  13.138  -2.274  0.00  0.00    -0.300 OA
BRANCH   7   8
ATOM      8  C   UNL d   1      13.882  12.898  -1.737  0.00  0.00     0.185 C 
BRANCH   8   9
ATOM      9  C   UNL d   1      13.671  12.435  -1.082  0.00  0.00     0.304 C 
ATOM     10  N   UNL d   1      14.022  12.583  -0.350  0.00  0.00    -0.206 NA
ATOM     11  O   UNL d   1      13.116  11.835  -1.164  0.00  0.00    -0.263 OA
BRANCH  10  12
ATOM     12  C   UNL d   1      14.577  13.183  -0.268  0.00  0.00     0.085 A 
ATOM     13  C   UNL d   1      14.338  13.961  -0.146  0.00  0.00     0.021 A 
ATOM     14  C   UNL d   1      14.897  14.567  -0.064  0.00  0.00     0.031 A 
ATOM     15  C   UNL d   1      15.705  14.386  -0.105  0.00  0.00     0.140 A 
ATOM     16  C   UNL d   1      15.945  13.603  -0.228  0.00  0.00     0.031 A 
ATOM     17  F   UNL d   1      16.269  14.983  -0.024  0.00  0.00    -0.204 F 
ATOM     18  C   UNL d   1      15.385  13.003  -0.309  0.00  0.00     0.021 A 
ENDBRANCH  10  12
ENDBRANCH   8   9
ENDBRANCH   7   8
ENDBRANCH   2   7
BRANCH   1  19
ATOM     19  C   UNL d   1      13.120  14.185  -3.543  0.00  0.00     0.013 C 
BRANCH  19  20
ATOM     20  C   UNL d   1      13.446  14.746  -4.045  0.00  0.00     0.092 A 
ATOM     21  C   UNL d   1      14.004  15.309  -3.845  0.00  0.00     0.288 A 
ATOM     22  N   UNL d   1      14.173  15.753  -4.512  0.00  0.00    -0.163 NA
ATOM     23  O   UNL d   1      14.340  15.413  -3.099  0.00  0.00    -0.265 OA
ATOM     24  C   UNL d   1      13.715  15.462  -5.134  0.00  0.00     0.313 A 
ATOM     25  S   UNL d   1      13.263  14.837  -4.844  0.00  0.00    -0.021 SA
ATOM     26  O   UNL d   1      13.708  15.746  -5.912  0.00  0.00    -0.258 OA
ENDBRANCH  19  20
ENDBRANCH   1  19
TORSDOF 6
ENDMDL
MODEL 3
REMARK VINA RESULT:      42.6      2.172      4.375
REMARK  6 active torsions:
REMARK  status: ('A' for Active; 'I' for Inactive)
REMARK    1  A    between atoms: C_6  and  C_2 
REMARK    2  A    between atoms: C_7  and  C_6 
REMARK    3  A    between atoms: C_8  and  C_15 
REMARK       I    between atoms: N_9  and  C_8 
REMARK    4  A    between atoms: C_16  and  N_9 
REMARK    5  A    between atoms: O_13  and  C_12 
REMARK    6  A    between atoms: C_15  and  O_13 
ROOT
ATOM      1  C   UNL d   1      13.765  14.445  -3.685  0.00  0.00     0.023 A 
ATOM      2  C   UNL d   1      14.124  14.978  -3.172  0.00  0.00     0.100 A 
ATOM      3  C   UNL d   1      13.852  14.528  -4.494  0.00  0.00     0.002 A 
ATOM      4  C   UNL d   1      14.572  15.599  -3.471  0.00  0.00     0.025 A 
ATOM      5  C   UNL d   1      14.300  15.147  -4.802  0.00  0.00     0.000 A 
ATOM      6  C   UNL d   1      14.660  15.683  -4.283  0.00  0.00     0.002 A 
ENDROOT
BRANCH   2   7
ATOM      7  O   UNL d   1      14.036  14.893  -2.356  0.00  0.00    -0.300 OA
BRANCH   7   8
ATOM      8  C   UNL d   1      14.708  14.910  -1.872  0.00  0.00     0.185 C 
BRANCH   8   9
ATOM      9  C   UNL d   1      14.717  15.392  -1.198  0.00  0.00     0.304 C 
ATOM     10  N   UNL d   1      14.814  15.049  -0.454  0.00  0.00    -0.206 NA
ATOM     11  O   UNL d   1      14.630  16.206  -1.273  0.00  0.00    -0.263 OA
BRANCH  10  12
ATOM     12  C   UNL d   1      14.901  14.236  -0.379  0.00  0.00     0.085 A 
ATOM     13  C   UNL d   1      14.284  13.773  -0.091  0.00  0.00     0.021 A 
ATOM     14  C   UNL d   1      14.372  12.953  -0.015  0.00  0.00     0.031 A 
ATOM     15  C   UNL d   1      15.088  12.596  -0.231  0.00  0.00     0.140 A 
ATOM     16  C   UNL d   1      15.708  13.062  -0.521  0.00  0.00     0.031 A 
ATOM     17  F   UNL d   1      15.184  11.779  -0.159  0.00  0.00    -0.204 F 
ATOM     18  C   UNL d   1      15.617  13.879  -0.595  0.00  0.00     0.021 A 
ENDBRANCH  10  12
ENDBRANCH   8   9
ENDBRANCH   7   8
ENDBRANCH   2   7
BRANCH   1  19
ATOM     19  C   UNL d   1      13.315  13.821  -3.388  0.00  0.00     0.013 C 
BRANCH  19  20
ATOM     20  C   UNL d   1      13.249  13.117  -3.806  0.00  0.00     0.092 A 
ATOM     21  C   UNL d   1      13.396  12.367  -3.518  0.00  0.00     0.288 A 
ATOM     22  N   UNL d   1      13.262  11.829  -4.121  0.00  0.00    -0.163 NA
ATOM     23  O   UNL d   1      13.638  12.182  -2.752  0.00  0.00    -0.265 OA
ATOM     24  C   UNL d   1      13.029  12.250  -4.792  0.00  0.00     0.313 A 
ATOM     25  S   UNL d   1      13.021  13.051  -4.596  0.00  0.00    -0.021 SA
ATOM     26  O   UNL d   1      12.837  11.929  -5.530  0.00  0.00    -0.258 OA
ENDBRANCH  19  20
ENDBRANCH   1  19
TORSDOF 6
ENDMDL
MODEL 4
REMARK VINA RESULT:      42.7      2.198      4.462
REMARK  6 active torsions:
REMARK  status: ('A' for Active; 'I' for Inactive)
REMARK    1  A    between atoms: C_6  and  C_2 
REMARK    2  A    between atoms: C_7  and  C_6 
REMARK    3  A    between atoms: C_8  and  C_15 
REMARK       I    between atoms: N_9  and  C_8 
REMARK    4  A    between atoms: C_16  and  N_9 
REMARK    5  A    between atoms: O_13  and  C_12 
REMARK    6  A    between atoms: C_15  and  O_13 
ROOT
ATOM      1  C   UNL d   1      13.918  12.527  -3.022  0.00  0.00     0.023 A 
ATOM      2  C   UNL d   1      13.765  13.179  -3.499  0.00  0.00     0.100 A 
ATOM      3  C   UNL d   1      13.500  11.831  -3.125  0.00  0.00     0.002 A 
ATOM      4  C   UNL d   1      13.190  13.135  -4.083  0.00  0.00     0.025 A 
ATOM      5  C   UNL d   1      12.922  11.779  -3.710  0.00  0.00     0.000 A 
ATOM      6  C   UNL d   1      12.769  12.437  -4.189  0.00  0.00     0.002 A 
ENDROOT
BRANCH   2   7
ATOM      7  O   UNL d   1      14.188  13.880  -3.393  0.00  0.00    -0.300 OA
BRANCH   7   8
ATOM      8  C   UNL d   1      13.797  14.605  -3.477  0.00  0.00     0.185 C 
BRANCH   8   9
ATOM      9  C   UNL d   1      14.022  15.125  -4.082  0.00  0.00     0.304 C 
ATOM     10  N   UNL d   1      14.434  15.815  -3.893  0.00  0.00    -0.206 NA
ATOM     11  O   UNL d   1      13.835  14.952  -4.863  0.00  0.00    -0.263 OA
BRANCH  10  12
ATOM     12  C   UNL d   1      14.620  15.987  -3.112  0.00  0.00     0.085 A 
ATOM     13  C   UNL d   1      15.110  16.623  -2.929  0.00  0.00     0.021 A 
ATOM     14  C   UNL d   1      15.299  16.797  -2.141  0.00  0.00     0.031 A 
ATOM     15  C   UNL d   1      14.990  16.327  -1.533  0.00  0.00     0.140 A 
ATOM     16  C   UNL d   1      14.498  15.688  -1.718  0.00  0.00     0.031 A 
ATOM     17  F   UNL d   1      15.173  16.493  -0.745  0.00  0.00    -0.204 F 
ATOM     18  C   UNL d   1      14.312  15.517  -2.504  0.00  0.00     0.021 A 
ENDBRANCH  10  12
ENDBRANCH   8   9
ENDBRANCH   7   8
ENDBRANCH   2   7
BRANCH   1  19
ATOM     19  C   UNL d   1      14.496  12.568  -2.433  0.00  0.00     0.013 C 
BRANCH  19  20
ATOM     20  C   UNL d   1      14.343  12.285  -1.678  0.00  0.00     0.092 A 
ATOM     21  C   UNL d   1      14.894  12.003  -1.145  0.00  0.00     0.288 A 
ATOM     22  N   UNL d   1      14.501  11.779  -0.462  0.00  0.00    -0.163 NA
ATOM     23  O   UNL d   1      15.707  11.953  -1.272  0.00  0.00    -0.265 OA
ATOM     24  C   UNL d   1      13.696  11.924  -0.572  0.00  0.00     0.313 A 
ATOM     25  S   UNL d   1      13.597  12.238  -1.328  0.00  0.00    -0.021 SA
ATOM     26  O   UNL d   1      13.093  11.780  -0.023  0.00  0.00    -0.258 OA
ENDBRANCH  19  20
ENDBRANCH   1  19
TORSDOF 6
ENDMDL
