MODEL 1
REMARK VINA RESULT:       9.1      0.000      0.000
REMARK  4 active torsions:
REMARK  status: ('A' for Active; 'I' for Inactive)
REMARK    1  A    between atoms: S_9  and  C_1 
REMARK    2  A    between atoms: N_3  and  C_7 
REMARK    3  A    between atoms: C_13  and  S_9 
REMARK    4  A    between atoms: C_14  and  C_13 
ROOT
ATOM      1  S   UNL d   1      45.956 -16.863  43.966  0.00  0.00    -0.042 SA
ENDROOT
BRANCH   1   2
ATOM      2  C   UNL d   1      46.107 -17.665  44.032  0.00  0.00     0.215 A 
ATOM      3  N   UNL d   1      46.261 -18.161  43.398  0.00  0.00    -0.214 NA
ATOM      4  C   UNL d   1      46.379 -18.901  43.699  0.00  0.00     0.107 A 
ATOM      5  C   UNL d   1      46.552 -19.621  43.336  0.00  0.00     0.021 A 
ATOM      6  C   UNL d   1      46.299 -18.870  44.513  0.00  0.00     0.120 A 
ATOM      7  C   UNL d   1      46.647 -20.311  43.779  0.00  0.00     0.002 A 
ATOM      8  C   UNL d   1      46.567 -20.280  44.593  0.00  0.00     0.002 A 
ATOM      9  C   UNL d   1      46.394 -19.560  44.955  0.00  0.00     0.026 A 
ATOM     10  O   UNL d   1      46.131 -18.111  44.728  0.00  0.00    -0.283 OA
ENDBRANCH   1   2
BRANCH   1  11
ATOM     11  C   UNL d   1      45.808 -16.440  44.659  0.00  0.00     0.039 C 
BRANCH  11  12
ATOM     12  C   UNL d   1      45.730 -15.631  44.623  0.00  0.00     0.007 A 
ATOM     13  C   UNL d   1      46.383 -15.161  44.602  0.00  0.00     0.002 A 
ATOM     14  C   UNL d   1      46.303 -14.328  44.565  0.00  0.00     0.024 A 
ATOM     15  C   UNL d   1      45.571 -13.982  44.549  0.00  0.00     0.127 A 
ATOM     16  C   UNL d   1      44.871 -14.466  44.570  0.00  0.00     0.024 A 
ATOM     17  C   UNL d   1      44.975 -15.297  44.607  0.00  0.00     0.002 A 
BRANCH  15  18
ATOM     18  N   UNL d   1      45.543 -13.168  44.513  0.00  0.00    -0.114 N 
ATOM     19  O   UNL d   1      46.092 -12.768  44.942  0.00  0.00    -0.532 OA
ATOM     20  O   UNL d   1      44.966 -12.774  44.048  0.00  0.00    -0.532 OA
ENDBRANCH  15  18
ENDBRANCH  11  12
ENDBRANCH   1  11
TORSDOF 4
ENDMDL
MODEL 2
REMARK VINA RESULT:      11.0      1.284      5.078
REMARK  4 active torsions:
REMARK  status: ('A' for Active; 'I' for Inactive)
REMARK    1  A    between atoms: S_9  and  C_1 
REMARK    2  A    between atoms: N_3  and  C_7 
REMARK    3  A    between atoms: C_13  and  S_9 
REMARK    4  A    between atoms: C_14  and  C_13 
ROOT
ATOM      1  S   UNL d   1      45.542 -16.277  44.553  0.00  0.00    -0.042 SA
ENDROOT
BRANCH   1   2
ATOM      2  C   UNL d   1      45.550 -15.458  44.553  0.00  0.00     0.215 A 
ATOM      3  N   UNL d   1      44.977 -14.989  44.200  0.00  0.00    -0.214 NA
ATOM      4  C   UNL d   1      45.190 -14.221  44.326  0.00  0.00     0.107 A 
ATOM      5  C   UNL d   1      44.836 -13.509  44.106  0.00  0.00     0.021 A 
ATOM      6  C   UNL d   1      45.889 -14.207  44.753  0.00  0.00     0.120 A 
ATOM      7  C   UNL d   1      45.173 -12.783  44.308  0.00  0.00     0.002 A 
ATOM      8  C   UNL d   1      45.872 -12.770  44.735  0.00  0.00     0.002 A 
ATOM      9  C   UNL d   1      46.225 -13.482  44.955  0.00  0.00     0.026 A 
ATOM     10  O   UNL d   1      46.119 -14.967  44.898  0.00  0.00    -0.283 OA
ENDBRANCH   1   2
BRANCH   1  11
ATOM     11  C   UNL d   1      46.263 -16.670  44.470  0.00  0.00     0.039 C 
BRANCH  11  12
ATOM     12  C   UNL d   1      46.267 -17.449  44.233  0.00  0.00     0.007 A 
ATOM     13  C   UNL d   1      46.274 -18.039  44.779  0.00  0.00     0.002 A 
ATOM     14  C   UNL d   1      46.279 -18.840  44.535  0.00  0.00     0.024 A 
ATOM     15  C   UNL d   1      46.277 -19.035  43.749  0.00  0.00     0.127 A 
ATOM     16  C   UNL d   1      46.270 -18.421  43.159  0.00  0.00     0.024 A 
ATOM     17  C   UNL d   1      46.265 -17.626  43.427  0.00  0.00     0.002 A 
BRANCH  15  18
ATOM     18  N   UNL d   1      46.282 -19.828  43.559  0.00  0.00    -0.114 N 
ATOM     19  O   UNL d   1      46.571 -20.330  44.115  0.00  0.00    -0.532 OA
ATOM     20  O   UNL d   1      45.997 -20.098  42.817  0.00  0.00    -0.532 OA
ENDBRANCH  15  18
ENDBRANCH  11  12
ENDBRANCH   1  11
TORSDOF 4
ENDMDL
