MODEL 1
REMARK VINA RESULT:      -8.8      0.000      0.000
REMARK  3 active torsions:
REMARK  status: ('A' for Active; 'I' for Inactive)
REMARK    1  A    between atoms: C_4  and  N_1 
REMARK    2  A    between atoms: C_2  and  O_5 
REMARK       I    between atoms: N_3  and  C_2 
REMARK    3  A    between atoms: O_5  and  C_10 
ROOT
ATOM      1  C   UNL d   1      53.196  29.624  53.997  0.00  0.00     0.129 A 
ATOM      2  C   UNL d   1      53.562  30.351  54.112  0.00  0.00     0.048 A 
ATOM      3  C   UNL d   1      53.504  30.930  53.533  0.00  0.00     0.106 A 
ATOM      4  C   UNL d   1      52.773  29.479  53.304  0.00  0.00     0.024 A 
ATOM      5  C   UNL d   1      52.721  30.064  52.733  0.00  0.00     0.004 A 
ATOM      6  C   UNL d   1      53.087  30.791  52.848  0.00  0.00     0.025 A 
ENDROOT
BRANCH   3   7
ATOM      7  O   UNL d   1      53.873  31.661  53.649  0.00  0.00    -0.259 OA
BRANCH   7   8
ATOM      8  C   UNL d   1      53.436  32.337  53.814  0.00  0.00     0.377 C 
ATOM      9  N   UNL d   1      53.763  32.967  54.254  0.00  0.00    -0.252 N 
ATOM     10  C   UNL d   1      53.303  33.649  54.413  0.00  0.00     0.085 A 
ATOM     11  C   UNL d   1      54.545  32.931  54.541  0.00  0.00     0.085 A 
ATOM     12  C   UNL d   1      53.632  34.282  54.855  0.00  0.00     0.019 A 
ATOM     13  C   UNL d   1      54.417  34.227  55.134  0.00  0.00     0.003 A 
ATOM     14  C   UNL d   1      54.869  33.555  54.976  0.00  0.00     0.019 A 
ATOM     15  O   UNL d   1      52.646  32.382  53.529  0.00  0.00    -0.237 OA
ENDBRANCH   7   8
ENDBRANCH   3   7
BRANCH   1  16
ATOM     16  N   UNL d   1      53.248  29.034  54.574  0.00  0.00    -0.114 N 
ATOM     17  O   UNL d   1      53.660  28.334  54.419  0.00  0.00    -0.532 OA
ATOM     18  O   UNL d   1      52.885  29.152  55.308  0.00  0.00    -0.532 OA
ENDBRANCH   1  16
TORSDOF 3
ENDMDL
MODEL 2
REMARK VINA RESULT:      -8.5      1.430      4.204
REMARK  3 active torsions:
REMARK  status: ('A' for Active; 'I' for Inactive)
REMARK    1  A    between atoms: C_4  and  N_1 
REMARK    2  A    between atoms: C_2  and  O_5 
REMARK       I    between atoms: N_3  and  C_2 
REMARK    3  A    between atoms: O_5  and  C_10 
ROOT
ATOM      1  C   UNL d   1      53.757  34.264  54.766  0.00  0.00     0.129 A 
ATOM      2  C   UNL d   1      53.452  33.508  54.660  0.00  0.00     0.048 A 
ATOM      3  C   UNL d   1      53.964  32.868  54.616  0.00  0.00     0.106 A 
ATOM      4  C   UNL d   1      54.572  34.377  54.828  0.00  0.00     0.024 A 
ATOM      5  C   UNL d   1      55.073  33.732  54.783  0.00  0.00     0.004 A 
ATOM      6  C   UNL d   1      54.769  32.976  54.676  0.00  0.00     0.025 A 
ENDROOT
BRANCH   3   7
ATOM      7  O   UNL d   1      53.658  32.107  54.509  0.00  0.00    -0.259 OA
BRANCH   7   8
ATOM      8  C   UNL d   1      53.492  31.816  53.759  0.00  0.00     0.377 C 
ATOM      9  N   UNL d   1      53.311  31.010  53.637  0.00  0.00    -0.252 N 
ATOM     10  C   UNL d   1      53.145  30.731  52.865  0.00  0.00     0.085 A 
ATOM     11  C   UNL d   1      53.294  30.473  54.274  0.00  0.00     0.085 A 
ATOM     12  C   UNL d   1      52.964  29.921  52.743  0.00  0.00     0.019 A 
ATOM     13  C   UNL d   1      52.951  29.398  53.394  0.00  0.00     0.003 A 
ATOM     14  C   UNL d   1      53.115  29.674  54.153  0.00  0.00     0.019 A 
ATOM     15  O   UNL d   1      53.507  32.352  53.110  0.00  0.00    -0.237 OA
ENDBRANCH   7   8
ENDBRANCH   3   7
BRANCH   1  16
ATOM     16  N   UNL d   1      53.250  34.916  54.812  0.00  0.00    -0.114 N 
ATOM     17  O   UNL d   1      52.952  35.263  54.123  0.00  0.00    -0.532 OA
ATOM     18  O   UNL d   1      53.044  35.218  55.555  0.00  0.00    -0.532 OA
ENDBRANCH   1  16
TORSDOF 3
ENDMDL
MODEL 3
REMARK VINA RESULT:      -8.2      1.822      4.246
REMARK  3 active torsions:
REMARK  status: ('A' for Active; 'I' for Inactive)
REMARK    1  A    between atoms: C_4  and  N_1 
REMARK    2  A    between atoms: C_2  and  O_5 
REMARK       I    between atoms: N_3  and  C_2 
REMARK    3  A    between atoms: O_5  and  C_10 
ROOT
ATOM      1  C   UNL d   1      51.609  34.120  52.875  0.00  0.00     0.129 A 
ATOM      2  C   UNL d   1      51.956  33.381  52.780  0.00  0.00     0.048 A 
ATOM      3  C   UNL d   1      52.735  33.267  53.012  0.00  0.00     0.106 A 
ATOM      4  C   UNL d   1      52.043  34.743  53.201  0.00  0.00     0.024 A 
ATOM      5  C   UNL d   1      52.819  34.617  53.428  0.00  0.00     0.004 A 
ATOM      6  C   UNL d   1      53.166  33.878  53.334  0.00  0.00     0.025 A 
ENDROOT
BRANCH   3   7
ATOM      7  O   UNL d   1      53.084  32.523  52.917  0.00  0.00    -0.259 OA
BRANCH   7   8
ATOM      8  C   UNL d   1      53.282  32.059  53.565  0.00  0.00     0.377 C 
ATOM      9  N   UNL d   1      53.226  31.226  53.534  0.00  0.00    -0.252 N 
ATOM     10  C   UNL d   1      53.432  30.769  54.205  0.00  0.00     0.085 A 
ATOM     11  C   UNL d   1      52.968  30.838  52.844  0.00  0.00     0.085 A 
ATOM     12  C   UNL d   1      53.376  29.932  54.175  0.00  0.00     0.019 A 
ATOM     13  C   UNL d   1      53.115  29.561  53.473  0.00  0.00     0.003 A 
ATOM     14  C   UNL d   1      52.913  30.013  52.814  0.00  0.00     0.019 A 
ATOM     15  O   UNL d   1      53.543  32.443  54.267  0.00  0.00    -0.237 OA
ENDBRANCH   7   8
ENDBRANCH   3   7
BRANCH   1  16
ATOM     16  N   UNL d   1      50.825  34.246  52.645  0.00  0.00    -0.114 N 
ATOM     17  O   UNL d   1      50.222  34.267  53.211  0.00  0.00    -0.532 OA
ATOM     18  O   UNL d   1      50.649  34.352  51.843  0.00  0.00    -0.532 OA
ENDBRANCH   1  16
TORSDOF 3
ENDMDL
MODEL 4
REMARK VINA RESULT:      -8.1      2.515      3.892
REMARK  3 active torsions:
REMARK  status: ('A' for Active; 'I' for Inactive)
REMARK    1  A    between atoms: C_4  and  N_1 
REMARK    2  A    between atoms: C_2  and  O_5 
REMARK       I    between atoms: N_3  and  C_2 
REMARK    3  A    between atoms: O_5  and  C_10 
ROOT
ATOM      1  C   UNL d   1      54.160  33.419  54.679  0.00  0.00     0.129 A 
ATOM      2  C   UNL d   1      53.404  33.592  54.408  0.00  0.00     0.048 A 
ATOM      3  C   UNL d   1      52.989  33.030  53.977  0.00  0.00     0.106 A 
ATOM      4  C   UNL d   1      54.499  32.684  54.519  0.00  0.00     0.024 A 
ATOM      5  C   UNL d   1      54.077  32.130  54.089  0.00  0.00     0.004 A 
ATOM      6  C   UNL d   1      53.320  32.303  53.818  0.00  0.00     0.025 A 
ENDROOT
BRANCH   3   7
ATOM      7  O   UNL d   1      52.229  33.204  53.704  0.00  0.00    -0.259 OA
BRANCH   7   8
ATOM      8  C   UNL d   1      52.095  33.414  52.922  0.00  0.00     0.377 C 
ATOM      9  N   UNL d   1      51.385  33.788  52.689  0.00  0.00    -0.252 N 
ATOM     10  C   UNL d   1      51.266  33.996  51.886  0.00  0.00     0.085 A 
ATOM     11  C   UNL d   1      50.788  33.961  53.244  0.00  0.00     0.085 A 
ATOM     12  C   UNL d   1      50.553  34.371  51.652  0.00  0.00     0.019 A 
ATOM     13  C   UNL d   1      49.967  34.536  52.223  0.00  0.00     0.003 A 
ATOM     14  C   UNL d   1      50.085  34.331  53.013  0.00  0.00     0.019 A 
ATOM     15  O   UNL d   1      52.693  33.244  52.354  0.00  0.00    -0.237 OA
ENDBRANCH   7   8
ENDBRANCH   3   7
BRANCH   1  16
ATOM     16  N   UNL d   1      54.587  33.979  55.114  0.00  0.00    -0.114 N 
ATOM     17  O   UNL d   1      55.412  33.936  55.155  0.00  0.00    -0.532 OA
ATOM     18  O   UNL d   1      54.180  34.583  55.507  0.00  0.00    -0.532 OA
ENDBRANCH   1  16
TORSDOF 3
ENDMDL
MODEL 5
REMARK VINA RESULT:      -8.0      2.308      3.033
REMARK  3 active torsions:
REMARK  status: ('A' for Active; 'I' for Inactive)
REMARK    1  A    between atoms: C_4  and  N_1 
REMARK    2  A    between atoms: C_2  and  O_5 
REMARK       I    between atoms: N_3  and  C_2 
REMARK    3  A    between atoms: O_5  and  C_10 
ROOT
ATOM      1  C   UNL d   1      53.352  31.237  53.396  0.00  0.00     0.129 A 
ATOM      2  C   UNL d   1      52.828  31.773  53.060  0.00  0.00     0.048 A 
ATOM      3  C   UNL d   1      52.998  32.575  53.083  0.00  0.00     0.106 A 
ATOM      4  C   UNL d   1      54.045  31.505  53.754  0.00  0.00     0.024 A 
ATOM      5  C   UNL d   1      54.206  32.307  53.771  0.00  0.00     0.004 A 
ATOM      6  C   UNL d   1      53.681  32.844  53.435  0.00  0.00     0.025 A 
ENDROOT
BRANCH   3   7
ATOM      7  O   UNL d   1      52.471  33.115  52.744  0.00  0.00    -0.259 OA
BRANCH   7   8
ATOM      8  C   UNL d   1      51.900  33.494  53.197  0.00  0.00     0.377 C 
ATOM      9  N   UNL d   1      51.241  33.863  52.843  0.00  0.00    -0.252 N 
ATOM     10  C   UNL d   1      50.669  34.246  53.321  0.00  0.00     0.085 A 
ATOM     11  C   UNL d   1      51.139  33.859  52.015  0.00  0.00     0.085 A 
ATOM     12  C   UNL d   1      50.006  34.617  52.964  0.00  0.00     0.019 A 
ATOM     13  C   UNL d   1      49.921  34.602  52.134  0.00  0.00     0.003 A 
ATOM     14  C   UNL d   1      50.485  34.225  51.664  0.00  0.00     0.019 A 
ATOM     15  O   UNL d   1      51.995  33.503  54.034  0.00  0.00    -0.237 OA
ENDBRANCH   7   8
ENDBRANCH   3   7
BRANCH   1  16
ATOM     16  N   UNL d   1      53.190  30.426  53.378  0.00  0.00    -0.114 N 
ATOM     17  O   UNL d   1      52.921  30.068  52.682  0.00  0.00    -0.532 OA
ATOM     18  O   UNL d   1      53.299  29.976  54.064  0.00  0.00    -0.532 OA
ENDBRANCH   1  16
TORSDOF 3
ENDMDL
