MODEL 1
REMARK VINA RESULT:      77.1      0.000      0.000
REMARK  10 active torsions:
REMARK  status: ('A' for Active; 'I' for Inactive)
REMARK    1  A    between atoms: N_9  and  C_1 
REMARK    2  A    between atoms: C_4  and  S_21 
REMARK    3  A    between atoms: C_23  and  C_8 
REMARK       I    between atoms: C_19  and  N_9 
REMARK    4  A    between atoms: O_26  and  C_10 
REMARK    5  A    between atoms: C_11  and  C_12 
REMARK       I    between atoms: C_12  and  N_20 
REMARK    6  A    between atoms: O_27  and  C_13 
REMARK    7  A    between atoms: O_28  and  C_14 
REMARK    8  A    between atoms: C_25  and  C_19 
REMARK    9  A    between atoms: N_20  and  C_23 
REMARK   10  A    between atoms: S_21  and  C_25 
ROOT
ATOM      1  O   UNL d   1     -49.172  27.725  34.475  0.00  0.00    -0.262 OA
ATOM      2  C   UNL d   1     -49.291  27.182  33.857  0.00  0.00     0.236 A 
ATOM      3  N   UNL d   1     -48.640  27.222  33.362  0.00  0.00    -0.114 NA
ATOM      4  N   UNL d   1     -48.121  27.784  33.668  0.00  0.00    -0.119 NA
ATOM      5  C   UNL d   1     -48.449  28.093  34.352  0.00  0.00     0.224 A 
ENDROOT
BRANCH   5   6
ATOM      6  C   UNL d   1     -48.110  28.672  34.832  0.00  0.00     0.149 C 
BRANCH   6   7
ATOM      7  N   UNL d   1     -48.002  29.437  34.551  0.00  0.00    -0.203 NA
ATOM      8  C   UNL d   1     -47.904  30.062  35.084  0.00  0.00     0.279 C 
ATOM      9  O   UNL d   1     -47.913  29.925  35.894  0.00  0.00    -0.265 OA
BRANCH   8  10
ATOM     10  C   UNL d   1     -47.796  30.830  34.795  0.00  0.00     0.062 A 
ATOM     11  C   UNL d   1     -47.050  31.061  34.512  0.00  0.00     0.031 A 
ATOM     12  C   UNL d   1     -46.955  31.821  34.230  0.00  0.00     0.118 A 
ATOM     13  C   UNL d   1     -47.569  32.351  34.220  0.00  0.00     0.138 A 
ATOM     14  C   UNL d   1     -48.316  32.108  34.508  0.00  0.00     0.118 A 
ATOM     15  C   UNL d   1     -48.412  31.344  34.792  0.00  0.00     0.031 A 
BRANCH  12  16
ATOM     16  O   UNL d   1     -46.213  32.065  33.944  0.00  0.00    -0.326 OA
ATOM     17  C   UNL d   1     -46.035  32.876  33.916  0.00  0.00     0.181 C 
ENDBRANCH  12  16
BRANCH  13  18
ATOM     18  O   UNL d   1     -47.476  33.113  33.938  0.00  0.00    -0.324 OA
ATOM     19  C   UNL d   1     -48.123  33.517  33.604  0.00  0.00     0.182 C 
ENDBRANCH  13  18
BRANCH  14  20
ATOM     20  O   UNL d   1     -48.951  32.644  34.501  0.00  0.00    -0.326 OA
ATOM     21  C   UNL d   1     -49.719  32.386  34.603  0.00  0.00     0.181 C 
ENDBRANCH  14  20
ENDBRANCH   8  10
ENDBRANCH   6   7
ENDBRANCH   5   6
BRANCH   2  22
ATOM     22  S   UNL d   1     -49.949  26.693  33.766  0.00  0.00    -0.036 SA
BRANCH  22  23
ATOM     23  C   UNL d   1     -49.858  25.925  33.505  0.00  0.00     0.101 C 
BRANCH  23  24
ATOM     24  C   UNL d   1     -50.495  25.382  33.561  0.00  0.00     0.288 C 
ATOM     25  N   UNL d   1     -51.267  25.664  33.645  0.00  0.00    -0.182 NA
ATOM     26  O   UNL d   1     -50.351  24.577  33.533  0.00  0.00    -0.265 OA
BRANCH  25  27
ATOM     27  C   UNL d   1     -51.903  25.134  33.701  0.00  0.00     0.197 A 
ATOM     28  N   UNL d   1     -52.631  25.215  33.307  0.00  0.00    -0.221 NA
ATOM     29  C   UNL d   1     -53.103  24.570  33.516  0.00  0.00     0.090 A 
ATOM     30  C   UNL d   1     -53.863  24.355  33.306  0.00  0.00     0.020 A 
ATOM     31  C   UNL d   1     -52.664  24.089  34.041  0.00  0.00     0.050 A 
ATOM     32  C   UNL d   1     -54.207  23.663  33.605  0.00  0.00     0.002 A 
ATOM     33  C   UNL d   1     -53.767  23.188  34.127  0.00  0.00     0.001 A 
ATOM     34  C   UNL d   1     -53.006  23.404  34.337  0.00  0.00     0.008 A 
ATOM     35  S   UNL d   1     -51.922  24.439  34.154  0.00  0.00    -0.047 SA
ENDBRANCH  25  27
ENDBRANCH  23  24
ENDBRANCH  22  23
ENDBRANCH   2  22
TORSDOF 10
ENDMDL
