MODEL 1
REMARK VINA RESULT:      79.9      0.000      0.000
REMARK  9 active torsions:
REMARK  status: ('A' for Active; 'I' for Inactive)
REMARK    1  A    between atoms: C_21  and  N_1 
REMARK    2  A    between atoms: S_17  and  C_3 
REMARK    3  A    between atoms: C_16  and  C_32 
REMARK       I    between atoms: N_19  and  C_16 
REMARK    4  A    between atoms: C_29  and  S_17 
REMARK    5  A    between atoms: C_22  and  N_19 
REMARK    6  A    between atoms: C_31  and  C_21 
REMARK    7  A    between atoms: C_23  and  C_22 
REMARK    8  A    between atoms: O_30  and  C_24 
REMARK    9  A    between atoms: C_32  and  C_31 
ROOT
ATOM      1  N   UNL d   1     -49.798  27.561  38.118  0.00  0.00    -0.195 NA
ATOM      2  C   UNL d   1     -49.310  28.048  37.671  0.00  0.00     0.086 C 
ATOM      3  C   UNL d   1     -48.817  28.548  37.234  0.00  0.00     0.170 C 
ENDROOT
BRANCH   3   4
ATOM      4  S   UNL d   1     -48.630  28.359  36.454  0.00  0.00    -0.060 SA
BRANCH   4   5
ATOM      5  C   UNL d   1     -48.494  28.977  35.890  0.00  0.00     0.178 A 
ATOM      6  N   UNL d   1     -48.750  28.877  35.127  0.00  0.00    -0.253 N 
ATOM      7  C   UNL d   1     -48.623  29.475  34.567  0.00  0.00     0.268 A 
ATOM      8  C   UNL d   1     -48.233  30.180  34.782  0.00  0.00     0.076 A 
ATOM      9  O   UNL d   1     -48.883  29.374  33.793  0.00  0.00    -0.267 OA
ATOM     10  C   UNL d   1     -48.107  30.775  34.224  0.00  0.00     0.033 A 
ATOM     11  C   UNL d   1     -47.977  30.280  35.546  0.00  0.00     0.090 A 
ATOM     12  C   UNL d   1     -47.713  31.490  34.436  0.00  0.00     0.119 A 
ATOM     13  O   UNL d   1     -47.502  32.189  34.009  0.00  0.00    -0.300 OA
ATOM     14  C   UNL d   1     -47.458  31.587  35.201  0.00  0.00     0.121 A 
ATOM     15  C   UNL d   1     -47.115  32.721  34.512  0.00  0.00     0.304 A 
ATOM     16  O   UNL d   1     -47.092  32.342  35.244  0.00  0.00    -0.299 OA
ATOM     17  C   UNL d   1     -47.588  30.984  35.760  0.00  0.00     0.046 A 
ATOM     18  N   UNL d   1     -48.106  29.677  36.106  0.00  0.00    -0.222 NA
BRANCH   6  19
ATOM     19  C   UNL d   1     -49.146  28.157  34.916  0.00  0.00     0.085 C 
BRANCH  19  20
ATOM     20  C   UNL d   1     -49.075  27.873  34.147  0.00  0.00     0.024 C 
BRANCH  20  21
ATOM     21  C   UNL d   1     -49.648  27.349  33.860  0.00  0.00     0.064 C 
BRANCH  21  22
ATOM     22  C   UNL d   1     -49.415  26.634  33.523  0.00  0.00     0.279 C 
ATOM     23  N   UNL d   1     -49.971  26.039  33.399  0.00  0.00    -0.206 NA
ATOM     24  O   UNL d   1     -48.624  26.516  33.309  0.00  0.00    -0.265 OA
BRANCH  23  25
ATOM     25  C   UNL d   1     -50.754  26.160  33.613  0.00  0.00     0.102 C 
BRANCH  25  26
ATOM     26  C   UNL d   1     -51.298  25.535  33.536  0.00  0.00     0.019 A 
ATOM     27  C   UNL d   1     -51.037  24.783  33.380  0.00  0.00     0.004 A 
ATOM     28  C   UNL d   1     -51.578  24.172  33.306  0.00  0.00     0.024 A 
ATOM     29  C   UNL d   1     -52.385  24.311  33.387  0.00  0.00     0.094 A 
ATOM     30  C   UNL d   1     -52.646  25.076  33.545  0.00  0.00     0.024 A 
ATOM     31  C   UNL d   1     -52.101  25.701  33.621  0.00  0.00     0.004 A 
BRANCH  29  32
ATOM     32  O   UNL d   1     -52.928  23.698  33.312  0.00  0.00    -0.328 OA
ATOM     33  C   UNL d   1     -53.679  23.796  33.636  0.00  0.00     0.181 C 
ENDBRANCH  29  32
ENDBRANCH  25  26
ENDBRANCH  23  25
ENDBRANCH  21  22
ENDBRANCH  20  21
ENDBRANCH  19  20
ENDBRANCH   6  19
ENDBRANCH   4   5
ENDBRANCH   3   4
TORSDOF 9
ENDMDL
MODEL 2
REMARK VINA RESULT:      81.0      1.054      1.346
REMARK  9 active torsions:
REMARK  status: ('A' for Active; 'I' for Inactive)
REMARK    1  A    between atoms: C_21  and  N_1 
REMARK    2  A    between atoms: S_17  and  C_3 
REMARK    3  A    between atoms: C_16  and  C_32 
REMARK       I    between atoms: N_19  and  C_16 
REMARK    4  A    between atoms: C_29  and  S_17 
REMARK    5  A    between atoms: C_22  and  N_19 
REMARK    6  A    between atoms: C_31  and  C_21 
REMARK    7  A    between atoms: C_23  and  C_22 
REMARK    8  A    between atoms: O_30  and  C_24 
REMARK    9  A    between atoms: C_32  and  C_31 
ROOT
ATOM      1  N   UNL d   1     -47.273  29.219  38.696  0.00  0.00    -0.195 NA
ATOM      2  C   UNL d   1     -47.166  29.350  37.891  0.00  0.00     0.086 C 
ATOM      3  C   UNL d   1     -47.044  29.487  37.085  0.00  0.00     0.170 C 
ENDROOT
BRANCH   3   4
ATOM      4  S   UNL d   1     -47.640  29.311  36.545  0.00  0.00    -0.060 SA
BRANCH   4   5
ATOM      5  C   UNL d   1     -47.802  29.845  35.906  0.00  0.00     0.178 A 
ATOM      6  N   UNL d   1     -48.305  29.609  35.314  0.00  0.00    -0.253 N 
ATOM      7  C   UNL d   1     -48.471  30.123  34.685  0.00  0.00     0.268 A 
ATOM      8  C   UNL d   1     -48.125  30.880  34.655  0.00  0.00     0.076 A 
ATOM      9  O   UNL d   1     -48.980  29.884  34.085  0.00  0.00    -0.267 OA
ATOM     10  C   UNL d   1     -48.290  31.391  34.028  0.00  0.00     0.033 A 
ATOM     11  C   UNL d   1     -47.622  31.116  35.248  0.00  0.00     0.090 A 
ATOM     12  C   UNL d   1     -47.943  32.159  33.992  0.00  0.00     0.119 A 
ATOM     13  O   UNL d   1     -47.996  32.798  33.442  0.00  0.00    -0.300 OA
ATOM     14  C   UNL d   1     -47.440  32.391  34.586  0.00  0.00     0.121 A 
ATOM     15  C   UNL d   1     -47.524  33.430  33.696  0.00  0.00     0.304 A 
ATOM     16  O   UNL d   1     -47.186  33.171  34.401  0.00  0.00    -0.299 OA
ATOM     17  C   UNL d   1     -47.276  31.873  35.217  0.00  0.00     0.046 A 
ATOM     18  N   UNL d   1     -47.458  30.597  35.878  0.00  0.00    -0.222 NA
BRANCH   6  19
ATOM     19  C   UNL d   1     -48.653  28.837  35.352  0.00  0.00     0.085 C 
BRANCH  19  20
ATOM     20  C   UNL d   1     -48.516  28.306  34.738  0.00  0.00     0.024 C 
BRANCH  20  21
ATOM     21  C   UNL d   1     -49.163  27.940  34.374  0.00  0.00     0.064 C 
BRANCH  21  22
ATOM     22  C   UNL d   1     -49.036  27.335  33.830  0.00  0.00     0.279 C 
ATOM     23  N   UNL d   1     -49.679  26.966  33.471  0.00  0.00    -0.206 NA
ATOM     24  O   UNL d   1     -48.265  27.098  33.645  0.00  0.00    -0.265 OA
BRANCH  23  25
ATOM     25  C   UNL d   1     -50.443  27.203  33.656  0.00  0.00     0.102 C 
BRANCH  25  26
ATOM     26  C   UNL d   1     -51.070  26.661  33.571  0.00  0.00     0.019 A 
ATOM     27  C   UNL d   1     -51.826  26.928  33.448  0.00  0.00     0.004 A 
ATOM     28  C   UNL d   1     -52.438  26.389  33.365  0.00  0.00     0.024 A 
ATOM     29  C   UNL d   1     -52.295  25.580  33.405  0.00  0.00     0.094 A 
ATOM     30  C   UNL d   1     -51.526  25.314  33.530  0.00  0.00     0.024 A 
ATOM     31  C   UNL d   1     -50.899  25.856  33.615  0.00  0.00     0.004 A 
BRANCH  29  32
ATOM     32  O   UNL d   1     -52.909  25.038  33.322  0.00  0.00    -0.328 OA
ATOM     33  C   UNL d   1     -52.814  24.284  33.640  0.00  0.00     0.181 C 
ENDBRANCH  29  32
ENDBRANCH  25  26
ENDBRANCH  23  25
ENDBRANCH  21  22
ENDBRANCH  20  21
ENDBRANCH  19  20
ENDBRANCH   6  19
ENDBRANCH   4   5
ENDBRANCH   3   4
TORSDOF 9
ENDMDL
