MODEL 1
REMARK VINA RESULT:      74.5      0.000      0.000
REMARK  5 active torsions:
REMARK  status: ('A' for Active; 'I' for Inactive)
REMARK    1  A    between atoms: C_5  and  C_18 
REMARK       I    between atoms: N_9  and  C_5 
REMARK    2  A    between atoms: S_12  and  C_6 
REMARK    3  A    between atoms: C_15  and  C_7 
REMARK    4  A    between atoms: C_10  and  N_9 
REMARK    5  A    between atoms: C_18  and  S_12 
ROOT
ATOM      1  C   UNL d   1      41.698 -16.288  36.716  0.00  0.00     0.099 C 
ENDROOT
BRANCH   1   2
ATOM      2  C   UNL d   1      40.980 -16.711  36.757  0.00  0.00     0.286 C 
ATOM      3  N   UNL d   1      40.367 -16.430  37.216  0.00  0.00    -0.207 NA
ATOM      4  O   UNL d   1      40.896 -17.405  36.336  0.00  0.00    -0.265 OA
BRANCH   3   5
ATOM      5  C   UNL d   1      39.670 -16.843  37.254  0.00  0.00     0.087 A 
ATOM      6  C   UNL d   1      39.408 -17.142  37.977  0.00  0.00     0.046 A 
ATOM      7  C   UNL d   1      38.702 -17.562  38.020  0.00  0.00     0.124 A 
ATOM      8  O   UNL d   1      38.432 -17.864  38.733  0.00  0.00    -0.301 OA
ATOM      9  C   UNL d   1      38.253 -17.682  37.323  0.00  0.00     0.123 A 
ATOM     10  C   UNL d   1      37.717 -18.286  38.761  0.00  0.00     0.149 A 
ATOM     11  C   UNL d   1      37.276 -18.402  38.069  0.00  0.00     0.149 A 
ATOM     12  O   UNL d   1      37.548 -18.098  37.352  0.00  0.00    -0.301 OA
ATOM     13  C   UNL d   1      38.531 -17.375  36.610  0.00  0.00     0.028 A 
ATOM     14  C   UNL d   1      39.226 -16.964  36.579  0.00  0.00     0.021 A 
ENDBRANCH   3   5
ENDBRANCH   1   2
BRANCH   1  15
ATOM     15  S   UNL d   1      42.412 -16.666  36.876  0.00  0.00    -0.061 SA
BRANCH  15  16
ATOM     16  C   UNL d   1      43.106 -16.237  36.899  0.00  0.00     0.133 A 
ATOM     17  N   UNL d   1      43.253 -15.660  36.331  0.00  0.00    -0.141 NA
ATOM     18  N   UNL d   1      43.953 -15.225  36.351  0.00  0.00    -0.148 NA
ATOM     19  C   UNL d   1      44.509 -15.371  36.945  0.00  0.00     0.103 A 
ATOM     20  C   UNL d   1      44.369 -15.944  37.513  0.00  0.00     0.023 A 
ATOM     21  C   UNL d   1      43.673 -16.379  37.497  0.00  0.00     0.029 A 
BRANCH  19  22
ATOM     22  C   UNL d   1      45.210 -14.936  36.965  0.00  0.00     0.019 A 
ATOM     23  C   UNL d   1      45.190 -14.122  37.134  0.00  0.00     0.002 A 
ATOM     24  C   UNL d   1      45.895 -13.686  37.154  0.00  0.00     0.000 A 
ATOM     25  C   UNL d   1      46.621 -14.059  37.005  0.00  0.00     0.000 A 
ATOM     26  C   UNL d   1      46.640 -14.858  36.838  0.00  0.00     0.000 A 
ATOM     27  C   UNL d   1      45.942 -15.305  36.816  0.00  0.00     0.002 A 
ENDBRANCH  19  22
ENDBRANCH  15  16
ENDBRANCH   1  15
TORSDOF 5
ENDMDL
