MODEL 1
REMARK VINA RESULT:      55.1      0.000      0.000
REMARK  5 active torsions:
REMARK  status: ('A' for Active; 'I' for Inactive)
REMARK    1  A    between atoms: C_14  and  N_3 
REMARK    2  A    between atoms: C_13  and  N_7 
REMARK    3  A    between atoms: C_10  and  C_13 
REMARK       I    between atoms: N_11  and  C_10 
REMARK    4  A    between atoms: C_21  and  N_12 
REMARK    5  A    between atoms: C_22  and  C_14 
ROOT
ATOM      1  C   UNL d   1      44.813 -16.515  37.803  0.00  0.00     0.191 A 
ATOM      2  C   UNL d   1      45.517 -16.150  38.058  0.00  0.00     0.196 A 
ATOM      3  N   UNL d   1      44.561 -16.113  37.122  0.00  0.00    -0.191 N 
ATOM      4  N   UNL d   1      44.511 -17.147  38.220  0.00  0.00    -0.204 NA
ATOM      5  N   UNL d   1      45.682 -15.533  37.529  0.00  0.00    -0.122 NA
ATOM      6  N   UNL d   1      45.099 -15.519  36.968  0.00  0.00    -0.058 NA
ATOM      7  N   UNL d   1      45.596 -17.068  39.148  0.00  0.00    -0.249 N 
ATOM      8  C   UNL d   1      45.898 -16.430  38.724  0.00  0.00     0.289 A 
ATOM      9  C   UNL d   1      44.892 -17.432  38.893  0.00  0.00     0.187 A 
ATOM     10  O   UNL d   1      46.602 -16.066  38.979  0.00  0.00    -0.265 OA
ENDROOT
BRANCH   7  11
ATOM     11  C   UNL d   1      45.978 -17.358  39.826  0.00  0.00     0.146 C 
BRANCH  11  12
ATOM     12  C   UNL d   1      45.996 -18.174  39.985  0.00  0.00     0.283 C 
ATOM     13  N   UNL d   1      46.104 -18.433  40.755  0.00  0.00    -0.268 N 
ATOM     14  C   UNL d   1      46.194 -17.876  41.357  0.00  0.00     0.102 A 
ATOM     15  C   UNL d   1      46.121 -19.232  40.909  0.00  0.00     0.102 A 
ATOM     16  C   UNL d   1      46.303 -18.141  42.132  0.00  0.00     0.100 A 
ATOM     17  N   UNL d   1      46.321 -18.952  42.297  0.00  0.00    -0.301 N 
ATOM     18  C   UNL d   1      46.231 -19.498  41.685  0.00  0.00     0.100 A 
ATOM     19  O   UNL d   1      45.904 -18.714  39.368  0.00  0.00    -0.265 OA
BRANCH  17  20
ATOM     20  C   UNL d   1      46.430 -19.212  43.068  0.00  0.00     0.064 A 
ATOM     21  C   UNL d   1      46.455 -18.668  43.672  0.00  0.00     0.018 A 
ATOM     22  C   UNL d   1      46.564 -18.926  44.451  0.00  0.00     0.002 A 
ATOM     23  C   UNL d   1      46.647 -19.731  44.609  0.00  0.00     0.000 A 
ATOM     24  C   UNL d   1      46.620 -20.278  43.989  0.00  0.00     0.002 A 
ATOM     25  C   UNL d   1      46.511 -20.020  43.210  0.00  0.00     0.018 A 
ENDBRANCH  17  20
ENDBRANCH  11  12
ENDBRANCH   7  11
BRANCH   3  26
ATOM     26  C   UNL d   1      43.876 -16.284  36.671  0.00  0.00     0.104 C 
BRANCH  26  27
ATOM     27  C   UNL d   1      43.188 -15.828  36.774  0.00  0.00     0.019 A 
ATOM     28  C   UNL d   1      42.509 -15.991  36.336  0.00  0.00     0.002 A 
ATOM     29  C   UNL d   1      41.849 -15.535  36.451  0.00  0.00     0.000 A 
ATOM     30  C   UNL d   1      41.837 -14.923  36.987  0.00  0.00     0.000 A 
ATOM     31  C   UNL d   1      42.536 -14.757  37.437  0.00  0.00     0.000 A 
ATOM     32  C   UNL d   1      43.203 -15.216  37.321  0.00  0.00     0.002 A 
ENDBRANCH  26  27
ENDBRANCH   3  26
TORSDOF 5
ENDMDL
MODEL 2
REMARK VINA RESULT:      55.3      1.352      1.971
REMARK  5 active torsions:
REMARK  status: ('A' for Active; 'I' for Inactive)
REMARK    1  A    between atoms: C_14  and  N_3 
REMARK    2  A    between atoms: C_13  and  N_7 
REMARK    3  A    between atoms: C_10  and  C_13 
REMARK       I    between atoms: N_11  and  C_10 
REMARK    4  A    between atoms: C_21  and  N_12 
REMARK    5  A    between atoms: C_22  and  C_14 
ROOT
ATOM      1  C   UNL d   1      44.887 -16.620  38.059  0.00  0.00     0.191 A 
ATOM      2  C   UNL d   1      44.386 -16.695  38.720  0.00  0.00     0.196 A 
ATOM      3  N   UNL d   1      44.546 -16.057  37.553  0.00  0.00    -0.191 N 
ATOM      4  N   UNL d   1      45.568 -17.067  38.015  0.00  0.00    -0.204 NA
ATOM      5  N   UNL d   1      43.748 -16.176  38.607  0.00  0.00    -0.122 NA
ATOM      6  N   UNL d   1      43.854 -15.796  37.900  0.00  0.00    -0.058 NA
ATOM      7  N   UNL d   1      45.268 -17.669  39.278  0.00  0.00    -0.249 N 
ATOM      8  C   UNL d   1      44.581 -17.215  39.318  0.00  0.00     0.289 A 
ATOM      9  C   UNL d   1      45.768 -17.594  38.616  0.00  0.00     0.187 A 
ATOM     10  O   UNL d   1      44.081 -17.290  39.979  0.00  0.00    -0.265 OA
ENDROOT
BRANCH   7  11
ATOM     11  C   UNL d   1      45.473 -18.200  39.881  0.00  0.00     0.146 C 
BRANCH  11  12
ATOM     12  C   UNL d   1      46.059 -18.002  40.437  0.00  0.00     0.283 C 
ATOM     13  N   UNL d   1      46.055 -18.362  41.174  0.00  0.00    -0.268 N 
ATOM     14  C   UNL d   1      45.466 -18.913  41.347  0.00  0.00     0.102 A 
ATOM     15  C   UNL d   1      46.629 -18.167  41.716  0.00  0.00     0.102 A 
ATOM     16  C   UNL d   1      45.465 -19.274  42.092  0.00  0.00     0.100 A 
ATOM     17  N   UNL d   1      46.046 -19.081  42.649  0.00  0.00    -0.301 N 
ATOM     18  C   UNL d   1      46.628 -18.528  42.462  0.00  0.00     0.100 A 
ATOM     19  O   UNL d   1      46.638 -17.448  40.242  0.00  0.00    -0.265 OA
BRANCH  17  20
ATOM     20  C   UNL d   1      46.041 -19.441  43.386  0.00  0.00     0.064 A 
ATOM     21  C   UNL d   1      46.646 -19.288  43.908  0.00  0.00     0.018 A 
ATOM     22  C   UNL d   1      46.645 -19.649  44.653  0.00  0.00     0.002 A 
ATOM     23  C   UNL d   1      46.032 -20.161  44.861  0.00  0.00     0.000 A 
ATOM     24  C   UNL d   1      45.421 -20.311  44.324  0.00  0.00     0.002 A 
ATOM     25  C   UNL d   1      45.422 -19.950  43.580  0.00  0.00     0.018 A 
ENDBRANCH  17  20
ENDBRANCH  11  12
ENDBRANCH   7  11
BRANCH   3  26
ATOM     26  C   UNL d   1      44.854 -15.800  36.818  0.00  0.00     0.104 C 
BRANCH  26  27
ATOM     27  C   UNL d   1      45.374 -15.151  36.791  0.00  0.00     0.019 A 
ATOM     28  C   UNL d   1      45.139 -14.416  37.082  0.00  0.00     0.002 A 
ATOM     29  C   UNL d   1      45.660 -13.796  37.047  0.00  0.00     0.000 A 
ATOM     30  C   UNL d   1      46.406 -13.878  36.733  0.00  0.00     0.000 A 
ATOM     31  C   UNL d   1      46.645 -14.634  36.434  0.00  0.00     0.000 A 
ATOM     32  C   UNL d   1      46.121 -15.262  36.469  0.00  0.00     0.002 A 
ENDBRANCH  26  27
ENDBRANCH   3  26
TORSDOF 5
ENDMDL
