MODEL 1
REMARK VINA RESULT:      -6.1      0.000      0.000
REMARK  3 active torsions:
REMARK  status: ('A' for Active; 'I' for Inactive)
REMARK    1  A    between atoms: N_3  and  S_1 
REMARK    2  A    between atoms: C_7  and  S_1 
REMARK    3  A    between atoms: C_10  and  N_3 
ROOT
ATOM      1  S   UNL d   1      57.400  -0.085  31.085  0.00  0.00     0.327 S 
ATOM      2  O   UNL d   1      57.633  -0.684  30.573  0.00  0.00    -0.186 OA
ATOM      3  O   UNL d   1      57.685   0.679  30.981  0.00  0.00    -0.186 OA
ENDROOT
BRANCH   1   4
ATOM      4  N   UNL d   1      57.917   0.072  30.467  0.00  0.00    -0.314 NA
BRANCH   4   5
ATOM      5  C   UNL d   1      58.445   0.233  29.835  0.00  0.00     0.184 A 
ATOM      6  C   UNL d   1      58.144   0.524  29.117  0.00  0.00     0.226 A 
ATOM      7  O   UNL d   1      57.341   0.653  29.026  0.00  0.00    -0.284 OA
ATOM      8  C   UNL d   1      58.667   0.682  28.496  0.00  0.00     0.045 A 
ATOM      9  C   UNL d   1      59.478   0.550  28.594  0.00  0.00     0.004 A 
ATOM     10  C   UNL d   1      59.764   0.262  29.308  0.00  0.00     0.003 A 
ATOM     11  C   UNL d   1      59.245   0.104  29.928  0.00  0.00     0.036 A 
ENDBRANCH   4   5
ENDBRANCH   1   4
BRANCH   1  12
ATOM     12  C   UNL d   1      56.883  -0.251  31.699  0.00  0.00     0.118 A 
ATOM     13  C   UNL d   1      56.479   0.359  32.070  0.00  0.00     0.035 A 
ATOM     14  C   UNL d   1      55.956   0.196  32.691  0.00  0.00     0.105 A 
ATOM     15  N   UNL d   1      55.481   0.681  33.160  0.00  0.00    -0.189 NA
ATOM     16  C   UNL d   1      55.841  -0.589  32.938  0.00  0.00     0.104 A 
ATOM     17  C   UNL d   1      55.071   0.198  33.700  0.00  0.00     0.369 A 
ATOM     18  O   UNL d   1      54.537   0.456  34.271  0.00  0.00    -0.242 OA
ATOM     19  N   UNL d   1      55.297  -0.584  33.558  0.00  0.00    -0.189 NA
ATOM     20  C   UNL d   1      56.251  -1.203  32.561  0.00  0.00     0.022 A 
ATOM     21  C   UNL d   1      56.770  -1.029  31.944  0.00  0.00     0.016 A 
ENDBRANCH   1  12
TORSDOF 3
ENDMDL
MODEL 2
REMARK VINA RESULT:      -5.5      1.364      4.697
REMARK  3 active torsions:
REMARK  status: ('A' for Active; 'I' for Inactive)
REMARK    1  A    between atoms: N_3  and  S_1 
REMARK    2  A    between atoms: C_7  and  S_1 
REMARK    3  A    between atoms: C_10  and  N_3 
ROOT
ATOM      1  S   UNL d   1      57.567   0.106  30.975  0.00  0.00     0.327 S 
ATOM      2  O   UNL d   1      56.936  -0.416  30.908  0.00  0.00    -0.186 OA
ATOM      3  O   UNL d   1      57.693   0.511  31.679  0.00  0.00    -0.186 OA
ENDROOT
BRANCH   1   4
ATOM      4  N   UNL d   1      57.058  -0.017  31.607  0.00  0.00    -0.314 NA
BRANCH   4   5
ATOM      5  C   UNL d   1      56.537  -0.142  32.252  0.00  0.00     0.184 A 
ATOM      6  C   UNL d   1      56.331  -0.919  32.464  0.00  0.00     0.226 A 
ATOM      7  O   UNL d   1      56.632  -1.556  32.048  0.00  0.00    -0.284 OA
ATOM      8  C   UNL d   1      55.817  -1.039  33.101  0.00  0.00     0.045 A 
ATOM      9  C   UNL d   1      55.515  -0.392  33.518  0.00  0.00     0.004 A 
ATOM     10  C   UNL d   1      55.726   0.372  33.299  0.00  0.00     0.003 A 
ATOM     11  C   UNL d   1      56.238   0.494  32.665  0.00  0.00     0.036 A 
ENDBRANCH   4   5
ENDBRANCH   1   4
BRANCH   1  12
ATOM     12  C   UNL d   1      58.071   0.223  30.338  0.00  0.00     0.118 A 
ATOM     13  C   UNL d   1      58.859  -0.000  30.394  0.00  0.00     0.035 A 
ATOM     14  C   UNL d   1      59.370   0.116  29.753  0.00  0.00     0.105 A 
ATOM     15  N   UNL d   1      60.172  -0.047  29.645  0.00  0.00    -0.189 NA
ATOM     16  C   UNL d   1      59.084   0.459  29.053  0.00  0.00     0.104 A 
ATOM     17  C   UNL d   1      60.385   0.194  28.877  0.00  0.00     0.369 A 
ATOM     18  O   UNL d   1      61.133   0.132  28.541  0.00  0.00    -0.242 OA
ATOM     19  N   UNL d   1      59.710   0.505  28.517  0.00  0.00    -0.189 NA
ATOM     20  C   UNL d   1      58.288   0.682  29.000  0.00  0.00     0.022 A 
ATOM     21  C   UNL d   1      57.787   0.562  29.644  0.00  0.00     0.016 A 
ENDBRANCH   1  12
TORSDOF 3
ENDMDL
MODEL 3
REMARK VINA RESULT:      -4.8      1.500      4.617
REMARK  3 active torsions:
REMARK  status: ('A' for Active; 'I' for Inactive)
REMARK    1  A    between atoms: N_3  and  S_1 
REMARK    2  A    between atoms: C_7  and  S_1 
REMARK    3  A    between atoms: C_10  and  N_3 
ROOT
ATOM      1  S   UNL d   1      57.116  -0.078  31.598  0.00  0.00     0.327 S 
ATOM      2  O   UNL d   1      56.926  -0.705  32.093  0.00  0.00    -0.186 OA
ATOM      3  O   UNL d   1      56.860   0.682  31.779  0.00  0.00    -0.186 OA
ENDROOT
BRANCH   1   4
ATOM      4  N   UNL d   1      56.670   0.046  32.276  0.00  0.00    -0.314 NA
BRANCH   4   5
ATOM      5  C   UNL d   1      56.213   0.173  32.968  0.00  0.00     0.184 A 
ATOM      6  C   UNL d   1      56.578   0.492  33.643  0.00  0.00     0.226 A 
ATOM      7  O   UNL d   1      57.374   0.681  33.635  0.00  0.00    -0.284 OA
ATOM      8  C   UNL d   1      56.125   0.616  34.325  0.00  0.00     0.045 A 
ATOM      9  C   UNL d   1      55.320   0.423  34.328  0.00  0.00     0.004 A 
ATOM     10  C   UNL d   1      54.971   0.108  33.654  0.00  0.00     0.003 A 
ATOM     11  C   UNL d   1      55.420  -0.016  32.974  0.00  0.00     0.036 A 
ENDBRANCH   4   5
ENDBRANCH   1   4
BRANCH   1  12
ATOM     12  C   UNL d   1      57.563  -0.210  30.923  0.00  0.00     0.118 A 
ATOM     13  C   UNL d   1      57.781  -0.975  30.721  0.00  0.00     0.035 A 
ATOM     14  C   UNL d   1      58.232  -1.113  30.040  0.00  0.00     0.105 A 
ATOM     15  N   UNL d   1      58.529  -1.804  29.701  0.00  0.00    -0.189 NA
ATOM     16  C   UNL d   1      58.463  -0.475  29.562  0.00  0.00     0.104 A 
ATOM     17  C   UNL d   1      58.945  -1.596  29.011  0.00  0.00     0.369 A 
ATOM     18  O   UNL d   1      59.330  -2.116  28.502  0.00  0.00    -0.242 OA
ATOM     19  N   UNL d   1      58.901  -0.775  28.931  0.00  0.00    -0.189 NA
ATOM     20  C   UNL d   1      58.240   0.296  29.769  0.00  0.00     0.022 A 
ATOM     21  C   UNL d   1      57.792   0.422  30.449  0.00  0.00     0.016 A 
ENDBRANCH   1  12
TORSDOF 3
ENDMDL
