MODEL 1
REMARK VINA RESULT:      -1.3      0.000      0.000
REMARK  6 active torsions:
REMARK  status: ('A' for Active; 'I' for Inactive)
REMARK    1  A    between atoms: C_6  and  N_1 
REMARK    2  A    between atoms: C_13  and  C_6 
REMARK    3  A    between atoms: N_12  and  C_22 
REMARK    4  A    between atoms: C_23  and  N_12 
REMARK    5  A    between atoms: C_22  and  C_13 
REMARK    6  A    between atoms: C_20  and  C_23 
ROOT
ATOM      1  N   UNL d   1     -41.270-122.993 -52.054  0.00  0.00    -0.303 N 
ATOM      2  C   UNL d   1     -41.366-121.751 -52.527  0.00  0.00     0.018 A 
ATOM      3  C   UNL d   1     -41.469-122.273 -53.163  0.00  0.00     0.018 A 
ATOM      4  C   UNL d   1     -41.243-122.195 -51.843  0.00  0.00     0.064 A 
ATOM      5  C   UNL d   1     -41.408-123.043 -52.860  0.00  0.00     0.064 A 
ATOM      6  C   UNL d   1     -41.486-123.688 -53.361  0.00  0.00     0.018 A 
ATOM      7  C   UNL d   1     -41.124-121.814 -51.125  0.00  0.00     0.018 A 
ATOM      8  C   UNL d   1     -41.609-122.153 -53.964  0.00  0.00     0.008 A 
ATOM      9  C   UNL d   1     -41.370-120.926 -52.492  0.00  0.00     0.008 A 
ATOM     10  C   UNL d   1     -41.250-120.550 -51.768  0.00  0.00     0.035 A 
ATOM     11  C   UNL d   1     -41.689-122.801 -54.476  0.00  0.00     0.035 A 
ATOM     12  C   UNL d   1     -41.628-123.574 -54.176  0.00  0.00     0.008 A 
ATOM     13  C   UNL d   1     -41.127-120.995 -51.084  0.00  0.00     0.008 A 
ATOM     14 BR   UNL d   1     -41.254-119.729 -51.730  0.00  0.00    -0.049 Br
ATOM     15 BR   UNL d   1     -41.828-122.681 -55.277  0.00  0.00    -0.049 Br
ENDROOT
BRANCH   1  16
ATOM     16  C   UNL d   1     -41.172-123.626 -51.534  0.00  0.00     0.124 C 
BRANCH  16  17
ATOM     17  C   UNL d   1     -41.701-123.744 -50.916  0.00  0.00     0.232 C 
ATOM     18  O   UNL d   1     -42.515-123.790 -51.073  0.00  0.00    -0.283 OA
BRANCH  17  19
ATOM     19  C   UNL d   1     -41.428-123.817 -50.140  0.00  0.00     0.142 C 
BRANCH  19  20
ATOM     20  N   UNL d   1     -41.940-123.659 -49.511  0.00  0.00    -0.237 NA
BRANCH  20  21
ATOM     21  C   UNL d   1     -41.639-123.405 -48.785  0.00  0.00     0.124 C 
BRANCH  21  22
ATOM     22  C   UNL d   1     -42.103-123.433 -48.114  0.00  0.00     0.119 A 
ATOM     23  O   UNL d   1     -42.846-123.798 -48.053  0.00  0.00    -0.304 OA
ATOM     24  C   UNL d   1     -43.117-123.692 -47.275  0.00  0.00     0.123 A 
ATOM     25  C   UNL d   1     -42.541-123.266 -46.864  0.00  0.00     0.029 A 
ATOM     26  C   UNL d   1     -41.921-123.107 -47.377  0.00  0.00     0.028 A 
ENDBRANCH  21  22
ENDBRANCH  20  21
ENDBRANCH  19  20
ENDBRANCH  17  19
ENDBRANCH  16  17
ENDBRANCH   1  16
TORSDOF 6
ENDMDL
MODEL 2
REMARK VINA RESULT:      -0.8      0.464      2.313
REMARK  6 active torsions:
REMARK  status: ('A' for Active; 'I' for Inactive)
REMARK    1  A    between atoms: C_6  and  N_1 
REMARK    2  A    between atoms: C_13  and  C_6 
REMARK    3  A    between atoms: N_12  and  C_22 
REMARK    4  A    between atoms: C_23  and  N_12 
REMARK    5  A    between atoms: C_22  and  C_13 
REMARK    6  A    between atoms: C_20  and  C_23 
ROOT
ATOM      1  N   UNL d   1     -41.461-122.802 -52.080  0.00  0.00    -0.303 N 
ATOM      2  C   UNL d   1     -41.610-122.095 -53.199  0.00  0.00     0.018 A 
ATOM      3  C   UNL d   1     -41.452-121.563 -52.583  0.00  0.00     0.018 A 
ATOM      4  C   UNL d   1     -41.616-122.859 -52.889  0.00  0.00     0.064 A 
ATOM      5  C   UNL d   1     -41.360-122.011 -51.890  0.00  0.00     0.064 A 
ATOM      6  C   UNL d   1     -41.198-121.637 -51.179  0.00  0.00     0.018 A 
ATOM      7  C   UNL d   1     -41.760-123.500 -53.383  0.00  0.00     0.018 A 
ATOM      8  C   UNL d   1     -41.381-120.744 -52.559  0.00  0.00     0.008 A 
ATOM      9  C   UNL d   1     -41.750-121.972 -54.004  0.00  0.00     0.008 A 
ATOM     10  C   UNL d   1     -41.894-122.619 -54.494  0.00  0.00     0.035 A 
ATOM     11  C   UNL d   1     -41.216-120.360 -51.842  0.00  0.00     0.035 A 
ATOM     12  C   UNL d   1     -41.123-120.806 -51.146  0.00  0.00     0.008 A 
ATOM     13  C   UNL d   1     -41.899-123.383 -54.183  0.00  0.00     0.008 A 
ATOM     14 BR   UNL d   1     -42.033-122.499 -55.296  0.00  0.00    -0.049 Br
ATOM     15 BR   UNL d   1     -41.144-119.542 -51.818  0.00  0.00    -0.049 Br
ENDROOT
BRANCH   1  16
ATOM     16  C   UNL d   1     -41.416-123.439 -51.558  0.00  0.00     0.124 C 
BRANCH  16  17
ATOM     17  C   UNL d   1     -41.934-123.496 -50.921  0.00  0.00     0.232 C 
ATOM     18  O   UNL d   1     -42.723-123.252 -51.010  0.00  0.00    -0.283 OA
BRANCH  17  19
ATOM     19  C   UNL d   1     -41.675-123.792 -50.195  0.00  0.00     0.142 C 
BRANCH  19  20
ATOM     20  N   UNL d   1     -42.044-123.545 -49.499  0.00  0.00    -0.237 NA
BRANCH  20  21
ATOM     21  C   UNL d   1     -41.776-123.817 -48.768  0.00  0.00     0.124 C 
BRANCH  21  22
ATOM     22  C   UNL d   1     -41.970-123.419 -48.082  0.00  0.00     0.119 A 
ATOM     23  O   UNL d   1     -41.445-122.978 -47.612  0.00  0.00    -0.304 OA
ATOM     24  C   UNL d   1     -41.876-122.671 -46.973  0.00  0.00     0.123 A 
ATOM     25  C   UNL d   1     -42.659-122.922 -47.052  0.00  0.00     0.029 A 
ATOM     26  C   UNL d   1     -42.716-123.380 -47.731  0.00  0.00     0.028 A 
ENDBRANCH  21  22
ENDBRANCH  20  21
ENDBRANCH  19  20
ENDBRANCH  17  19
ENDBRANCH  16  17
ENDBRANCH   1  16
TORSDOF 6
ENDMDL
MODEL 3
REMARK VINA RESULT:      -0.4      1.607      4.627
REMARK  6 active torsions:
REMARK  status: ('A' for Active; 'I' for Inactive)
REMARK    1  A    between atoms: C_6  and  N_1 
REMARK    2  A    between atoms: C_13  and  C_6 
REMARK    3  A    between atoms: N_12  and  C_22 
REMARK    4  A    between atoms: C_23  and  N_12 
REMARK    5  A    between atoms: C_22  and  C_13 
REMARK    6  A    between atoms: C_20  and  C_23 
ROOT
ATOM      1  N   UNL d   1     -41.348-122.993 -51.270  0.00  0.00    -0.303 N 
ATOM      2  C   UNL d   1     -41.475-121.805 -50.679  0.00  0.00     0.018 A 
ATOM      3  C   UNL d   1     -41.625-122.389 -50.109  0.00  0.00     0.018 A 
ATOM      4  C   UNL d   1     -41.305-122.178 -51.395  0.00  0.00     0.064 A 
ATOM      5  C   UNL d   1     -41.544-123.125 -50.485  0.00  0.00     0.064 A 
ATOM      6  C   UNL d   1     -41.659-123.817 -50.060  0.00  0.00     0.018 A 
ATOM      7  C   UNL d   1     -41.134-121.726 -52.060  0.00  0.00     0.018 A 
ATOM      8  C   UNL d   1     -41.820-122.351 -49.312  0.00  0.00     0.008 A 
ATOM      9  C   UNL d   1     -41.475-120.981 -50.628  0.00  0.00     0.008 A 
ATOM     10  C   UNL d   1     -41.303-120.534 -51.299  0.00  0.00     0.035 A 
ATOM     11  C   UNL d   1     -41.938-123.048 -48.877  0.00  0.00     0.035 A 
ATOM     12  C   UNL d   1     -41.858-123.787 -49.250  0.00  0.00     0.008 A 
ATOM     13  C   UNL d   1     -41.133-120.906 -52.015  0.00  0.00     0.008 A 
ATOM     14 BR   UNL d   1     -41.302-119.713 -51.252  0.00  0.00    -0.049 Br
ATOM     15 BR   UNL d   1     -42.134-123.010 -48.079  0.00  0.00    -0.049 Br
ENDROOT
BRANCH   1  16
ATOM     16  C   UNL d   1     -41.216-123.570 -51.845  0.00  0.00     0.124 C 
BRANCH  16  17
ATOM     17  C   UNL d   1     -41.788-123.733 -52.413  0.00  0.00     0.232 C 
ATOM     18  O   UNL d   1     -42.582-123.814 -52.185  0.00  0.00    -0.283 OA
BRANCH  17  19
ATOM     19  C   UNL d   1     -41.577-123.817 -53.207  0.00  0.00     0.142 C 
BRANCH  19  20
ATOM     20  N   UNL d   1     -42.038-123.458 -53.790  0.00  0.00    -0.237 NA
BRANCH  20  21
ATOM     21  C   UNL d   1     -41.767-123.422 -54.569  0.00  0.00     0.124 C 
BRANCH  21  22
ATOM     22  C   UNL d   1     -41.859-122.740 -55.008  0.00  0.00     0.119 A 
ATOM     23  O   UNL d   1     -41.251-122.216 -55.222  0.00  0.00    -0.304 OA
ATOM     24  C   UNL d   1     -41.592-121.601 -55.663  0.00  0.00     0.123 A 
ATOM     25  C   UNL d   1     -42.403-121.748 -55.718  0.00  0.00     0.029 A 
ATOM     26  C   UNL d   1     -42.566-122.446 -55.316  0.00  0.00     0.028 A 
ENDBRANCH  21  22
ENDBRANCH  20  21
ENDBRANCH  19  20
ENDBRANCH  17  19
ENDBRANCH  16  17
ENDBRANCH   1  16
TORSDOF 6
ENDMDL
MODEL 4
REMARK VINA RESULT:       1.0      2.218      4.839
REMARK  6 active torsions:
REMARK  status: ('A' for Active; 'I' for Inactive)
REMARK    1  A    between atoms: C_6  and  N_1 
REMARK    2  A    between atoms: C_13  and  C_6 
REMARK    3  A    between atoms: N_12  and  C_22 
REMARK    4  A    between atoms: C_23  and  N_12 
REMARK    5  A    between atoms: C_22  and  C_13 
REMARK    6  A    between atoms: C_20  and  C_23 
ROOT
ATOM      1  N   UNL d   1     -41.915-122.653 -50.667  0.00  0.00    -0.303 N 
ATOM      2  C   UNL d   1     -42.459-122.859 -49.469  0.00  0.00     0.018 A 
ATOM      3  C   UNL d   1     -43.024-122.476 -49.941  0.00  0.00     0.018 A 
ATOM      4  C   UNL d   1     -41.775-122.968 -49.917  0.00  0.00     0.064 A 
ATOM      5  C   UNL d   1     -42.677-122.351 -50.685  0.00  0.00     0.064 A 
ATOM      6  C   UNL d   1     -43.103-121.979 -51.278  0.00  0.00     0.018 A 
ATOM      7  C   UNL d   1     -41.123-123.338 -49.582  0.00  0.00     0.018 A 
ATOM      8  C   UNL d   1     -43.794-122.227 -49.797  0.00  0.00     0.008 A 
ATOM      9  C   UNL d   1     -42.490-123.120 -48.686  0.00  0.00     0.008 A 
ATOM     10  C   UNL d   1     -41.831-123.491 -48.357  0.00  0.00     0.035 A 
ATOM     11  C   UNL d   1     -44.230-121.850 -50.394  0.00  0.00     0.035 A 
ATOM     12  C   UNL d   1     -43.886-121.724 -51.140  0.00  0.00     0.008 A 
ATOM     13  C   UNL d   1     -41.147-123.600 -48.805  0.00  0.00     0.008 A 
ATOM     14 BR   UNL d   1     -41.859-123.752 -47.577  0.00  0.00    -0.049 Br
ATOM     15 BR   UNL d   1     -45.000-121.602 -50.249  0.00  0.00    -0.049 Br
ENDROOT
BRANCH   1  16
ATOM     16  C   UNL d   1     -41.372-122.646 -51.289  0.00  0.00     0.124 C 
BRANCH  16  17
ATOM     17  C   UNL d   1     -41.488-123.122 -51.950  0.00  0.00     0.232 C 
ATOM     18  O   UNL d   1     -41.975-123.792 -51.894  0.00  0.00    -0.283 OA
BRANCH  17  19
ATOM     19  C   UNL d   1     -41.124-122.938 -52.668  0.00  0.00     0.142 C 
BRANCH  19  20
ATOM     20  N   UNL d   1     -41.588-122.799 -53.336  0.00  0.00    -0.237 NA
BRANCH  20  21
ATOM     21  C   UNL d   1     -41.234-122.588 -54.052  0.00  0.00     0.124 C 
BRANCH  21  22
ATOM     22  C   UNL d   1     -41.691-122.362 -54.688  0.00  0.00     0.119 A 
ATOM     23  O   UNL d   1     -41.624-121.645 -55.104  0.00  0.00    -0.304 OA
ATOM     24  C   UNL d   1     -42.196-121.648 -55.706  0.00  0.00     0.123 A 
ATOM     25  C   UNL d   1     -42.609-122.361 -55.659  0.00  0.00     0.029 A 
ATOM     26  C   UNL d   1     -42.300-122.798 -55.036  0.00  0.00     0.028 A 
ENDBRANCH  21  22
ENDBRANCH  20  21
ENDBRANCH  19  20
ENDBRANCH  17  19
ENDBRANCH  16  17
ENDBRANCH   1  16
TORSDOF 6
ENDMDL
