MODEL 1
REMARK VINA RESULT:      -9.2      0.000      0.000
REMARK  4 active torsions:
REMARK  status: ('A' for Active; 'I' for Inactive)
REMARK    1  A    between atoms: C_5  and  C_1 
REMARK    2  A    between atoms: O_8  and  C_5 
REMARK    3  A    between atoms: C_11  and  O_8 
REMARK    4  A    between atoms: C_12  and  C_11 
ROOT
ATOM      1  C   UNL d   1      54.023  33.230  54.113  0.00  0.00     0.127 A 
ATOM      2  C   UNL d   1      54.298  33.516  54.805  0.00  0.00     0.305 A 
ATOM      3  C   UNL d   1      53.444  33.628  53.680  0.00  0.00     0.013 A 
ATOM      4  O   UNL d   1      54.017  34.224  55.122  0.00  0.00    -0.273 OA
ATOM      5  C   UNL d   1      53.163  34.336  53.997  0.00  0.00     0.023 A 
ATOM      6  C   UNL d   1      53.438  34.622  54.690  0.00  0.00     0.103 A 
ATOM      7  O   UNL d   1      54.877  33.118  55.237  0.00  0.00    -0.259 OA
ATOM      8  C   UNL d   1      52.584  34.734  53.565  0.00  0.00     0.002 A 
ATOM      9  C   UNL d   1      53.157  35.330  55.007  0.00  0.00     0.025 A 
ATOM     10  C   UNL d   1      52.578  35.728  54.575  0.00  0.00     0.002 A 
ATOM     11  C   UNL d   1      52.303  35.442  53.882  0.00  0.00     0.000 A 
ENDROOT
BRANCH   1  12
ATOM     12  C   UNL d   1      54.305  32.522  53.795  0.00  0.00     0.305 C 
ATOM     13  O   UNL d   1      55.026  32.487  53.377  0.00  0.00    -0.259 OA
BRANCH  12  14
ATOM     14  O   UNL d   1      53.870  31.850  53.893  0.00  0.00    -0.271 OA
BRANCH  14  15
ATOM     15  C   UNL d   1      53.987  31.205  53.423  0.00  0.00     0.126 C 
BRANCH  15  16
ATOM     16  C   UNL d   1      53.537  30.541  53.505  0.00  0.00     0.025 A 
ATOM     17  C   UNL d   1      52.888  30.420  52.995  0.00  0.00     0.002 A 
ATOM     18  C   UNL d   1      52.430  29.723  53.094  0.00  0.00     0.000 A 
ATOM     19  C   UNL d   1      52.596  29.174  53.661  0.00  0.00     0.000 A 
ATOM     20  C   UNL d   1      53.244  29.294  54.171  0.00  0.00     0.000 A 
ATOM     21  C   UNL d   1      53.695  29.959  54.089  0.00  0.00     0.002 A 
ENDBRANCH  15  16
ENDBRANCH  14  15
ENDBRANCH  12  14
ENDBRANCH   1  12
TORSDOF 4
ENDMDL
MODEL 2
REMARK VINA RESULT:      -8.9      1.628      4.198
REMARK  4 active torsions:
REMARK  status: ('A' for Active; 'I' for Inactive)
REMARK    1  A    between atoms: C_5  and  C_1 
REMARK    2  A    between atoms: O_8  and  C_5 
REMARK    3  A    between atoms: C_11  and  O_8 
REMARK    4  A    between atoms: C_12  and  C_11 
ROOT
ATOM      1  C   UNL d   1      53.184  32.332  53.500  0.00  0.00     0.127 A 
ATOM      2  C   UNL d   1      53.605  32.192  54.163  0.00  0.00     0.305 A 
ATOM      3  C   UNL d   1      52.888  31.717  53.038  0.00  0.00     0.013 A 
ATOM      4  O   UNL d   1      53.765  31.423  54.419  0.00  0.00    -0.273 OA
ATOM      5  C   UNL d   1      53.048  30.949  53.293  0.00  0.00     0.023 A 
ATOM      6  C   UNL d   1      53.469  30.808  53.956  0.00  0.00     0.103 A 
ATOM      7  O   UNL d   1      53.901  32.807  54.626  0.00  0.00    -0.259 OA
ATOM      8  C   UNL d   1      52.752  30.333  52.830  0.00  0.00     0.002 A 
ATOM      9  C   UNL d   1      53.629  30.040  54.211  0.00  0.00     0.025 A 
ATOM     10  C   UNL d   1      53.333  29.424  53.749  0.00  0.00     0.002 A 
ATOM     11  C   UNL d   1      52.912  29.565  53.086  0.00  0.00     0.000 A 
ENDROOT
BRANCH   1  12
ATOM     12  C   UNL d   1      53.024  33.101  53.245  0.00  0.00     0.305 C 
ATOM     13  O   UNL d   1      53.638  33.641  53.073  0.00  0.00    -0.259 OA
BRANCH  12  14
ATOM     14  O   UNL d   1      52.257  33.333  53.161  0.00  0.00    -0.271 OA
BRANCH  14  15
ATOM     15  C   UNL d   1      52.069  34.028  52.797  0.00  0.00     0.126 C 
BRANCH  15  16
ATOM     16  C   UNL d   1      51.304  34.211  52.615  0.00  0.00     0.025 A 
ATOM     17  C   UNL d   1      51.048  34.156  51.824  0.00  0.00     0.002 A 
ATOM     18  C   UNL d   1      50.249  34.350  51.652  0.00  0.00     0.000 A 
ATOM     19  C   UNL d   1      49.729  34.585  52.221  0.00  0.00     0.000 A 
ATOM     20  C   UNL d   1      49.985  34.640  53.013  0.00  0.00     0.000 A 
ATOM     21  C   UNL d   1      50.750  34.457  53.195  0.00  0.00     0.002 A 
ENDBRANCH  15  16
ENDBRANCH  14  15
ENDBRANCH  12  14
ENDBRANCH   1  12
TORSDOF 4
ENDMDL
MODEL 3
REMARK VINA RESULT:      -7.9      0.828      4.535
REMARK  4 active torsions:
REMARK  status: ('A' for Active; 'I' for Inactive)
REMARK    1  A    between atoms: C_5  and  C_1 
REMARK    2  A    between atoms: O_8  and  C_5 
REMARK    3  A    between atoms: C_11  and  O_8 
REMARK    4  A    between atoms: C_12  and  C_11 
ROOT
ATOM      1  C   UNL d   1      53.531  31.593  53.349  0.00  0.00     0.127 A 
ATOM      2  C   UNL d   1      52.962  31.418  52.817  0.00  0.00     0.305 A 
ATOM      3  C   UNL d   1      53.779  31.044  53.912  0.00  0.00     0.013 A 
ATOM      4  O   UNL d   1      52.596  30.679  52.804  0.00  0.00    -0.273 OA
ATOM      5  C   UNL d   1      53.412  30.305  53.900  0.00  0.00     0.023 A 
ATOM      6  C   UNL d   1      52.844  30.130  53.368  0.00  0.00     0.103 A 
ATOM      7  O   UNL d   1      52.714  31.967  52.253  0.00  0.00    -0.259 OA
ATOM      8  C   UNL d   1      53.660  29.756  54.463  0.00  0.00     0.002 A 
ATOM      9  C   UNL d   1      52.477  29.391  53.355  0.00  0.00     0.025 A 
ATOM     10  C   UNL d   1      52.725  28.842  53.919  0.00  0.00     0.002 A 
ATOM     11  C   UNL d   1      53.294  29.017  54.451  0.00  0.00     0.000 A 
ENDROOT
BRANCH   1  12
ATOM     12  C   UNL d   1      53.897  32.332  53.361  0.00  0.00     0.305 C 
ATOM     13  O   UNL d   1      54.642  32.457  53.004  0.00  0.00    -0.259 OA
BRANCH  12  14
ATOM     14  O   UNL d   1      53.526  32.947  53.728  0.00  0.00    -0.271 OA
BRANCH  14  15
ATOM     15  C   UNL d   1      53.923  33.624  53.913  0.00  0.00     0.126 C 
BRANCH  15  16
ATOM     16  C   UNL d   1      53.536  34.271  54.199  0.00  0.00     0.025 A 
ATOM     17  C   UNL d   1      53.533  34.417  55.021  0.00  0.00     0.002 A 
ATOM     18  C   UNL d   1      53.124  35.094  55.301  0.00  0.00     0.000 A 
ATOM     19  C   UNL d   1      52.740  35.603  54.808  0.00  0.00     0.000 A 
ATOM     20  C   UNL d   1      52.743  35.458  53.986  0.00  0.00     0.000 A 
ATOM     21  C   UNL d   1      53.130  34.811  53.700  0.00  0.00     0.002 A 
ENDBRANCH  15  16
ENDBRANCH  14  15
ENDBRANCH  12  14
ENDBRANCH   1  12
TORSDOF 4
ENDMDL
MODEL 4
REMARK VINA RESULT:      -7.6      1.974      3.776
REMARK  4 active torsions:
REMARK  status: ('A' for Active; 'I' for Inactive)
REMARK    1  A    between atoms: C_5  and  C_1 
REMARK    2  A    between atoms: O_8  and  C_5 
REMARK    3  A    between atoms: C_11  and  O_8 
REMARK    4  A    between atoms: C_12  and  C_11 
ROOT
ATOM      1  C   UNL d   1      52.908  32.912  53.452  0.00  0.00     0.127 A 
ATOM      2  C   UNL d   1      53.058  32.206  53.793  0.00  0.00     0.305 A 
ATOM      3  C   UNL d   1      53.275  33.604  53.713  0.00  0.00     0.013 A 
ATOM      4  O   UNL d   1      53.588  32.133  54.421  0.00  0.00    -0.273 OA
ATOM      5  C   UNL d   1      53.804  33.531  54.341  0.00  0.00     0.023 A 
ATOM      6  C   UNL d   1      53.954  32.825  54.682  0.00  0.00     0.103 A 
ATOM      7  O   UNL d   1      52.691  31.514  53.532  0.00  0.00    -0.259 OA
ATOM      8  C   UNL d   1      54.171  34.223  54.602  0.00  0.00     0.002 A 
ATOM      9  C   UNL d   1      54.484  32.753  55.310  0.00  0.00     0.025 A 
ATOM     10  C   UNL d   1      54.851  33.444  55.571  0.00  0.00     0.002 A 
ATOM     11  C   UNL d   1      54.700  34.150  55.230  0.00  0.00     0.000 A 
ENDROOT
BRANCH   1  12
ATOM     12  C   UNL d   1      52.378  32.985  52.824  0.00  0.00     0.305 C 
ATOM     13  O   UNL d   1      52.505  32.592  52.098  0.00  0.00    -0.259 OA
BRANCH  12  14
ATOM     14  O   UNL d   1      51.724  33.446  52.915  0.00  0.00    -0.271 OA
BRANCH  14  15
ATOM     15  C   UNL d   1      51.368  33.796  52.281  0.00  0.00     0.126 C 
BRANCH  15  16
ATOM     16  C   UNL d   1      50.653  34.163  52.354  0.00  0.00     0.025 A 
ATOM     17  C   UNL d   1      50.133  34.178  51.702  0.00  0.00     0.002 A 
ATOM     18  C   UNL d   1      49.393  34.564  51.794  0.00  0.00     0.000 A 
ATOM     19  C   UNL d   1      49.172  34.917  52.485  0.00  0.00     0.000 A 
ATOM     20  C   UNL d   1      49.692  34.901  53.137  0.00  0.00     0.000 A 
ATOM     21  C   UNL d   1      50.407  34.534  53.065  0.00  0.00     0.002 A 
ENDBRANCH  15  16
ENDBRANCH  14  15
ENDBRANCH  12  14
ENDBRANCH   1  12
TORSDOF 4
ENDMDL
MODEL 5
REMARK VINA RESULT:      -7.6      2.045      2.536
REMARK  4 active torsions:
REMARK  status: ('A' for Active; 'I' for Inactive)
REMARK    1  A    between atoms: C_5  and  C_1 
REMARK    2  A    between atoms: O_8  and  C_5 
REMARK    3  A    between atoms: C_11  and  O_8 
REMARK    4  A    between atoms: C_12  and  C_11 
ROOT
ATOM      1  C   UNL d   1      51.836  33.704  53.010  0.00  0.00     0.127 A 
ATOM      2  C   UNL d   1      51.635  34.118  53.661  0.00  0.00     0.305 A 
ATOM      3  C   UNL d   1      51.352  33.685  52.342  0.00  0.00     0.013 A 
ATOM      4  O   UNL d   1      50.932  34.549  53.698  0.00  0.00    -0.273 OA
ATOM      5  C   UNL d   1      50.649  34.116  52.380  0.00  0.00     0.023 A 
ATOM      6  C   UNL d   1      50.447  34.531  53.031  0.00  0.00     0.103 A 
ATOM      7  O   UNL d   1      52.119  34.137  54.329  0.00  0.00    -0.259 OA
ATOM      8  C   UNL d   1      50.164  34.097  51.712  0.00  0.00     0.002 A 
ATOM      9  C   UNL d   1      49.744  34.961  53.068  0.00  0.00     0.025 A 
ATOM     10  C   UNL d   1      49.260  34.943  52.401  0.00  0.00     0.002 A 
ATOM     11  C   UNL d   1      49.461  34.528  51.749  0.00  0.00     0.000 A 
ENDROOT
BRANCH   1  12
ATOM     12  C   UNL d   1      52.539  33.273  52.972  0.00  0.00     0.305 C 
ATOM     13  O   UNL d   1      53.267  33.639  52.788  0.00  0.00    -0.259 OA
BRANCH  12  14
ATOM     14  O   UNL d   1      52.520  32.480  53.117  0.00  0.00    -0.271 OA
BRANCH  14  15
ATOM     15  C   UNL d   1      53.169  32.017  52.995  0.00  0.00     0.126 C 
BRANCH  15  16
ATOM     16  C   UNL d   1      53.174  31.239  53.208  0.00  0.00     0.025 A 
ATOM     17  C   UNL d   1      52.653  30.708  52.832  0.00  0.00     0.002 A 
ATOM     18  C   UNL d   1      52.672  29.902  53.066  0.00  0.00     0.000 A 
ATOM     19  C   UNL d   1      53.172  29.629  53.637  0.00  0.00     0.000 A 
ATOM     20  C   UNL d   1      53.693  30.160  54.014  0.00  0.00     0.000 A 
ATOM     21  C   UNL d   1      53.688  30.938  53.800  0.00  0.00     0.002 A 
ENDBRANCH  15  16
ENDBRANCH  14  15
ENDBRANCH  12  14
ENDBRANCH   1  12
TORSDOF 4
ENDMDL
MODEL 6
REMARK VINA RESULT:      -7.6      1.099      1.591
REMARK  4 active torsions:
REMARK  status: ('A' for Active; 'I' for Inactive)
REMARK    1  A    between atoms: C_5  and  C_1 
REMARK    2  A    between atoms: O_8  and  C_5 
REMARK    3  A    between atoms: C_11  and  O_8 
REMARK    4  A    between atoms: C_12  and  C_11 
ROOT
ATOM      1  C   UNL d   1      53.135  32.344  53.171  0.00  0.00     0.127 A 
ATOM      2  C   UNL d   1      53.726  32.782  53.480  0.00  0.00     0.305 A 
ATOM      3  C   UNL d   1      52.388  32.664  53.029  0.00  0.00     0.013 A 
ATOM      4  O   UNL d   1      53.619  33.577  53.672  0.00  0.00    -0.273 OA
ATOM      5  C   UNL d   1      52.281  33.459  53.221  0.00  0.00     0.023 A 
ATOM      6  C   UNL d   1      52.872  33.898  53.530  0.00  0.00     0.103 A 
ATOM      7  O   UNL d   1      54.473  32.462  53.621  0.00  0.00    -0.259 OA
ATOM      8  C   UNL d   1      51.534  33.779  53.080  0.00  0.00     0.002 A 
ATOM      9  C   UNL d   1      52.764  34.693  53.722  0.00  0.00     0.025 A 
ATOM     10  C   UNL d   1      52.017  35.013  53.580  0.00  0.00     0.002 A 
ATOM     11  C   UNL d   1      51.426  34.574  53.272  0.00  0.00     0.000 A 
ENDROOT
BRANCH   1  12
ATOM     12  C   UNL d   1      53.242  31.548  52.979  0.00  0.00     0.305 C 
ATOM     13  O   UNL d   1      53.304  31.295  52.186  0.00  0.00    -0.259 OA
BRANCH  12  14
ATOM     14  O   UNL d   1      53.289  31.006  53.573  0.00  0.00    -0.271 OA
BRANCH  14  15
ATOM     15  C   UNL d   1      53.115  30.228  53.443  0.00  0.00     0.126 C 
BRANCH  15  16
ATOM     16  C   UNL d   1      53.232  29.672  54.016  0.00  0.00     0.025 A 
ATOM     17  C   UNL d   1      52.816  29.733  54.736  0.00  0.00     0.002 A 
ATOM     18  C   UNL d   1      52.950  29.146  55.321  0.00  0.00     0.000 A 
ATOM     19  C   UNL d   1      53.463  28.532  55.210  0.00  0.00     0.000 A 
ATOM     20  C   UNL d   1      53.879  28.472  54.489  0.00  0.00     0.000 A 
ATOM     21  C   UNL d   1      53.761  29.028  53.917  0.00  0.00     0.002 A 
ENDBRANCH  15  16
ENDBRANCH  14  15
ENDBRANCH  12  14
ENDBRANCH   1  12
TORSDOF 4
ENDMDL
MODEL 7
REMARK VINA RESULT:      -7.0      2.668      4.642
REMARK  4 active torsions:
REMARK  status: ('A' for Active; 'I' for Inactive)
REMARK    1  A    between atoms: C_5  and  C_1 
REMARK    2  A    between atoms: O_8  and  C_5 
REMARK    3  A    between atoms: C_11  and  O_8 
REMARK    4  A    between atoms: C_12  and  C_11 
ROOT
ATOM      1  C   UNL d   1      52.122  33.797  52.795  0.00  0.00     0.127 A 
ATOM      2  C   UNL d   1      52.607  34.201  53.283  0.00  0.00     0.305 A 
ATOM      3  C   UNL d   1      52.163  32.976  52.728  0.00  0.00     0.013 A 
ATOM      4  O   UNL d   1      53.174  33.817  53.744  0.00  0.00    -0.273 OA
ATOM      5  C   UNL d   1      52.730  32.592  53.189  0.00  0.00     0.023 A 
ATOM      6  C   UNL d   1      53.215  32.996  53.677  0.00  0.00     0.103 A 
ATOM      7  O   UNL d   1      52.566  35.022  53.350  0.00  0.00    -0.259 OA
ATOM      8  C   UNL d   1      52.772  31.771  53.122  0.00  0.00     0.002 A 
ATOM      9  C   UNL d   1      53.782  32.612  54.137  0.00  0.00     0.025 A 
ATOM     10  C   UNL d   1      53.824  31.791  54.070  0.00  0.00     0.002 A 
ATOM     11  C   UNL d   1      53.338  31.387  53.582  0.00  0.00     0.000 A 
ENDROOT
BRANCH   1  12
ATOM     12  C   UNL d   1      51.555  34.181  52.334  0.00  0.00     0.305 C 
ATOM     13  O   UNL d   1      51.716  34.414  51.549  0.00  0.00    -0.259 OA
BRANCH  12  14
ATOM     14  O   UNL d   1      50.830  34.332  52.653  0.00  0.00    -0.271 OA
BRANCH  14  15
ATOM     15  C   UNL d   1      50.165  34.329  52.196  0.00  0.00     0.126 C 
BRANCH  15  16
ATOM     16  C   UNL d   1      49.515  34.760  52.402  0.00  0.00     0.025 A 
ATOM     17  C   UNL d   1      48.906  34.875  51.843  0.00  0.00     0.002 A 
ATOM     18  C   UNL d   1      48.237  35.326  52.074  0.00  0.00     0.000 A 
ATOM     19  C   UNL d   1      48.165  35.648  52.810  0.00  0.00     0.000 A 
ATOM     20  C   UNL d   1      48.773  35.533  53.369  0.00  0.00     0.000 A 
ATOM     21  C   UNL d   1      49.424  35.102  53.163  0.00  0.00     0.002 A 
ENDBRANCH  15  16
ENDBRANCH  14  15
ENDBRANCH  12  14
ENDBRANCH   1  12
TORSDOF 4
ENDMDL
MODEL 8
REMARK VINA RESULT:      -6.7      2.201      3.577
REMARK  4 active torsions:
REMARK  status: ('A' for Active; 'I' for Inactive)
REMARK    1  A    between atoms: C_5  and  C_1 
REMARK    2  A    between atoms: O_8  and  C_5 
REMARK    3  A    between atoms: C_11  and  O_8 
REMARK    4  A    between atoms: C_12  and  C_11 
ROOT
ATOM      1  C   UNL d   1      51.835  33.150  53.120  0.00  0.00     0.127 A 
ATOM      2  C   UNL d   1      51.885  33.161  52.323  0.00  0.00     0.305 A 
ATOM      3  C   UNL d   1      51.246  33.567  53.521  0.00  0.00     0.013 A 
ATOM      4  O   UNL d   1      51.351  33.588  51.862  0.00  0.00    -0.273 OA
ATOM      5  C   UNL d   1      50.712  33.994  53.060  0.00  0.00     0.023 A 
ATOM      6  C   UNL d   1      50.762  34.005  52.263  0.00  0.00     0.103 A 
ATOM      7  O   UNL d   1      52.474  32.745  51.922  0.00  0.00    -0.259 OA
ATOM      8  C   UNL d   1      50.123  34.410  53.461  0.00  0.00     0.002 A 
ATOM      9  C   UNL d   1      50.228  34.432  51.802  0.00  0.00     0.025 A 
ATOM     10  C   UNL d   1      49.639  34.848  52.203  0.00  0.00     0.002 A 
ATOM     11  C   UNL d   1      49.589  34.838  53.000  0.00  0.00     0.000 A 
ENDROOT
BRANCH   1  12
ATOM     12  C   UNL d   1      52.369  32.723  53.581  0.00  0.00     0.305 C 
ATOM     13  O   UNL d   1      52.291  31.898  53.688  0.00  0.00    -0.259 OA
BRANCH  12  14
ATOM     14  O   UNL d   1      52.979  33.113  53.935  0.00  0.00    -0.271 OA
BRANCH  14  15
ATOM     15  C   UNL d   1      53.552  32.713  54.338  0.00  0.00     0.126 C 
BRANCH  15  16
ATOM     16  C   UNL d   1      54.191  33.097  54.648  0.00  0.00     0.025 A 
ATOM     17  C   UNL d   1      54.198  33.292  55.459  0.00  0.00     0.002 A 
ATOM     18  C   UNL d   1      54.870  33.691  55.764  0.00  0.00     0.000 A 
ATOM     19  C   UNL d   1      55.502  33.890  55.303  0.00  0.00     0.000 A 
ATOM     20  C   UNL d   1      55.495  33.695  54.492  0.00  0.00     0.000 A 
ATOM     21  C   UNL d   1      54.856  33.311  54.183  0.00  0.00     0.002 A 
ENDBRANCH  15  16
ENDBRANCH  14  15
ENDBRANCH  12  14
ENDBRANCH   1  12
TORSDOF 4
ENDMDL
