MODEL 1
REMARK VINA RESULT:      -8.0      0.000      0.000
REMARK  2 active torsions:
REMARK  status: ('A' for Active; 'I' for Inactive)
REMARK    1  A    between atoms: C_7  and  C_1 
REMARK    2  A    between atoms: C_11  and  C_7 
ROOT
ATOM      1  C   UNL d   1     -47.289  12.353  23.513  0.00  0.00     0.116 A 
ATOM      2  N   UNL d   1     -45.887  12.536  23.342  0.00  0.00    -0.152 NA
ATOM      3  N   UNL d   1     -46.415  11.226  23.526  0.00  0.00    -0.152 NA
ATOM      4  C   UNL d   1     -47.178  11.537  23.579  0.00  0.00     0.288 A 
ATOM      5  C   UNL d   1     -46.648  12.850  23.395  0.00  0.00     0.288 A 
ATOM      6  C   UNL d   1     -45.773  11.723  23.408  0.00  0.00     0.374 A 
ATOM      7  O   UNL d   1     -46.754  13.686  23.326  0.00  0.00    -0.265 OA
ATOM      8  O   UNL d   1     -47.822  11.038  23.698  0.00  0.00    -0.265 OA
ATOM      9  O   UNL d   1     -44.999  11.424  23.352  0.00  0.00    -0.242 OA
ENDROOT
BRANCH   1  10
ATOM     10  C   UNL d   1     -48.061  12.674  23.566  0.00  0.00     0.010 C 
BRANCH  10  11
ATOM     11  C   UNL d   1     -48.545  12.695  22.896  0.00  0.00     0.001 A 
ATOM     12  C   UNL d   1     -48.395  13.230  22.294  0.00  0.00     0.003 A 
ATOM     13  C   UNL d   1     -48.880  13.248  21.627  0.00  0.00     0.042 A 
ATOM     14  C   UNL d   1     -49.510  12.729  21.571  0.00  0.00     0.196 A 
ATOM     15  C   UNL d   1     -49.660  12.194  22.174  0.00  0.00     0.042 A 
ATOM     16  O   UNL d   1     -50.010  12.740  20.895  0.00  0.00    -0.287 OA
ATOM     17  C   UNL d   1     -49.182  12.171  22.840  0.00  0.00     0.003 A 
ENDBRANCH  10  11
ENDBRANCH   1  10
TORSDOF 2
ENDMDL
MODEL 2
REMARK VINA RESULT:      -7.8      2.267      3.722
REMARK  2 active torsions:
REMARK  status: ('A' for Active; 'I' for Inactive)
REMARK    1  A    between atoms: C_7  and  C_1 
REMARK    2  A    between atoms: C_11  and  C_7 
ROOT
ATOM      1  C   UNL d   1     -48.886  14.273  22.472  0.00  0.00     0.116 A 
ATOM      2  N   UNL d   1     -49.199  15.553  23.013  0.00  0.00    -0.152 NA
ATOM      3  N   UNL d   1     -50.126  14.480  23.147  0.00  0.00    -0.152 NA
ATOM      4  C   UNL d   1     -49.611  13.979  22.741  0.00  0.00     0.288 A 
ATOM      5  C   UNL d   1     -48.682  15.056  22.607  0.00  0.00     0.288 A 
ATOM      6  C   UNL d   1     -49.922  15.263  23.282  0.00  0.00     0.374 A 
ATOM      7  O   UNL d   1     -47.943  15.363  22.335  0.00  0.00    -0.265 OA
ATOM      8  O   UNL d   1     -49.816  13.193  22.605  0.00  0.00    -0.265 OA
ATOM      9  O   UNL d   1     -50.431  15.779  23.690  0.00  0.00    -0.242 OA
ENDROOT
BRANCH   1  10
ATOM     10  C   UNL d   1     -48.360  13.770  22.059  0.00  0.00     0.010 C 
BRANCH  10  11
ATOM     11  C   UNL d   1     -47.757  13.380  22.470  0.00  0.00     0.001 A 
ATOM     12  C   UNL d   1     -47.922  12.705  22.905  0.00  0.00     0.003 A 
ATOM     13  C   UNL d   1     -47.318  12.319  23.314  0.00  0.00     0.042 A 
ATOM     14  C   UNL d   1     -46.556  12.613  23.281  0.00  0.00     0.196 A 
ATOM     15  C   UNL d   1     -46.390  13.288  22.845  0.00  0.00     0.042 A 
ATOM     16  O   UNL d   1     -45.934  12.226  23.694  0.00  0.00    -0.287 OA
ATOM     17  C   UNL d   1     -46.986  13.677  22.437  0.00  0.00     0.003 A 
ENDBRANCH  10  11
ENDBRANCH   1  10
TORSDOF 2
ENDMDL
MODEL 3
REMARK VINA RESULT:      -7.8      1.716      3.449
REMARK  2 active torsions:
REMARK  status: ('A' for Active; 'I' for Inactive)
REMARK    1  A    between atoms: C_7  and  C_1 
REMARK    2  A    between atoms: C_11  and  C_7 
ROOT
ATOM      1  C   UNL d   1     -48.957  12.223  22.477  0.00  0.00     0.116 A 
ATOM      2  N   UNL d   1     -49.719  11.414  23.370  0.00  0.00    -0.152 NA
ATOM      3  N   UNL d   1     -50.305  12.575  22.788  0.00  0.00    -0.152 NA
ATOM      4  C   UNL d   1     -49.602  12.732  22.384  0.00  0.00     0.288 A 
ATOM      5  C   UNL d   1     -49.015  11.568  22.967  0.00  0.00     0.288 A 
ATOM      6  C   UNL d   1     -50.363  11.920  23.278  0.00  0.00     0.374 A 
ATOM      7  O   UNL d   1     -48.360  11.044  23.068  0.00  0.00    -0.265 OA
ATOM      8  O   UNL d   1     -49.544  13.390  21.892  0.00  0.00    -0.265 OA
ATOM      9  O   UNL d   1     -51.064  11.749  23.692  0.00  0.00    -0.242 OA
ENDROOT
BRANCH   1  10
ATOM     10  C   UNL d   1     -48.242  12.378  22.070  0.00  0.00     0.010 C 
BRANCH  10  11
ATOM     11  C   UNL d   1     -47.647  12.820  22.436  0.00  0.00     0.001 A 
ATOM     12  C   UNL d   1     -47.125  12.460  22.956  0.00  0.00     0.003 A 
ATOM     13  C   UNL d   1     -46.533  12.904  23.320  0.00  0.00     0.042 A 
ATOM     14  C   UNL d   1     -46.470  13.704  23.159  0.00  0.00     0.196 A 
ATOM     15  C   UNL d   1     -46.992  14.063  22.639  0.00  0.00     0.042 A 
ATOM     16  O   UNL d   1     -45.869  14.164  23.525  0.00  0.00    -0.287 OA
ATOM     17  C   UNL d   1     -47.584  13.628  22.274  0.00  0.00     0.003 A 
ENDBRANCH  10  11
ENDBRANCH   1  10
TORSDOF 2
ENDMDL
MODEL 4
REMARK VINA RESULT:      -7.6      1.603      2.286
REMARK  2 active torsions:
REMARK  status: ('A' for Active; 'I' for Inactive)
REMARK    1  A    between atoms: C_7  and  C_1 
REMARK    2  A    between atoms: C_11  and  C_7 
ROOT
ATOM      1  C   UNL d   1     -47.597  13.028  22.495  0.00  0.00     0.116 A 
ATOM      2  N   UNL d   1     -47.158  11.892  23.234  0.00  0.00    -0.152 NA
ATOM      3  N   UNL d   1     -46.246  12.949  22.949  0.00  0.00    -0.152 NA
ATOM      4  C   UNL d   1     -46.841  13.359  22.549  0.00  0.00     0.288 A 
ATOM      5  C   UNL d   1     -47.754  12.299  22.835  0.00  0.00     0.288 A 
ATOM      6  C   UNL d   1     -46.404  12.220  23.290  0.00  0.00     0.374 A 
ATOM      7  O   UNL d   1     -48.524  11.955  22.784  0.00  0.00    -0.265 OA
ATOM      8  O   UNL d   1     -46.683  14.091  22.207  0.00  0.00    -0.265 OA
ATOM      9  O   UNL d   1     -45.815  11.795  23.695  0.00  0.00    -0.242 OA
ENDROOT
BRANCH   1  10
ATOM     10  C   UNL d   1     -48.204  13.439  22.091  0.00  0.00     0.010 C 
BRANCH  10  11
ATOM     11  C   UNL d   1     -48.662  13.997  22.494  0.00  0.00     0.001 A 
ATOM     12  C   UNL d   1     -49.306  13.756  22.942  0.00  0.00     0.003 A 
ATOM     13  C   UNL d   1     -49.761  14.314  23.344  0.00  0.00     0.042 A 
ATOM     14  C   UNL d   1     -49.567  15.107  23.292  0.00  0.00     0.196 A 
ATOM     15  C   UNL d   1     -48.924  15.348  22.843  0.00  0.00     0.042 A 
ATOM     16  O   UNL d   1     -50.027  15.684  23.698  0.00  0.00    -0.287 OA
ATOM     17  C   UNL d   1     -48.467  14.798  22.442  0.00  0.00     0.003 A 
ENDBRANCH  10  11
ENDBRANCH   1  10
TORSDOF 2
ENDMDL
MODEL 5
REMARK VINA RESULT:      -6.1      8.396      9.638
REMARK  2 active torsions:
REMARK  status: ('A' for Active; 'I' for Inactive)
REMARK    1  A    between atoms: C_7  and  C_1 
REMARK    2  A    between atoms: C_11  and  C_7 
ROOT
ATOM      1  C   UNL d   1     -40.013  14.842  18.093  0.00  0.00     0.116 A 
ATOM      2  N   UNL d   1     -41.175  14.841  17.269  0.00  0.00    -0.152 NA
ATOM      3  N   UNL d   1     -40.245  15.917  17.184  0.00  0.00    -0.152 NA
ATOM      4  C   UNL d   1     -39.775  15.562  17.763  0.00  0.00     0.288 A 
ATOM      5  C   UNL d   1     -40.708  14.484  17.848  0.00  0.00     0.288 A 
ATOM      6  C   UNL d   1     -40.941  15.558  16.939  0.00  0.00     0.374 A 
ATOM      7  O   UNL d   1     -40.957  13.748  18.181  0.00  0.00    -0.265 OA
ATOM      8  O   UNL d   1     -39.077  15.921  18.010  0.00  0.00    -0.265 OA
ATOM      9  O   UNL d   1     -41.424  15.904  16.357  0.00  0.00    -0.242 OA
ENDROOT
BRANCH   1  10
ATOM     10  C   UNL d   1     -39.540  14.477  18.681  0.00  0.00     0.010 C 
BRANCH  10  11
ATOM     11  C   UNL d   1     -39.629  14.695  19.474  0.00  0.00     0.001 A 
ATOM     12  C   UNL d   1     -40.300  14.476  19.890  0.00  0.00     0.003 A 
ATOM     13  C   UNL d   1     -40.385  14.696  20.681  0.00  0.00     0.042 A 
ATOM     14  C   UNL d   1     -39.797  15.131  21.045  0.00  0.00     0.196 A 
ATOM     15  C   UNL d   1     -39.125  15.350  20.629  0.00  0.00     0.042 A 
ATOM     16  O   UNL d   1     -39.875  15.359  21.851  0.00  0.00    -0.287 OA
ATOM     17  C   UNL d   1     -39.034  15.136  19.842  0.00  0.00     0.003 A 
ENDBRANCH  10  11
ENDBRANCH   1  10
TORSDOF 2
ENDMDL
MODEL 6
REMARK VINA RESULT:      -5.9      9.103     10.508
REMARK  2 active torsions:
REMARK  status: ('A' for Active; 'I' for Inactive)
REMARK    1  A    between atoms: C_7  and  C_1 
REMARK    2  A    between atoms: C_11  and  C_7 
ROOT
ATOM      1  C   UNL d   1     -39.851  14.941  17.555  0.00  0.00     0.116 A 
ATOM      2  N   UNL d   1     -41.263  14.951  17.366  0.00  0.00    -0.152 NA
ATOM      3  N   UNL d   1     -40.422  15.670  16.470  0.00  0.00    -0.152 NA
ATOM      4  C   UNL d   1     -39.756  15.426  16.892  0.00  0.00     0.288 A 
ATOM      5  C   UNL d   1     -40.600  14.705  17.791  0.00  0.00     0.288 A 
ATOM      6  C   UNL d   1     -41.171  15.434  16.706  0.00  0.00     0.374 A 
ATOM      7  O   UNL d   1     -40.705  14.209  18.467  0.00  0.00    -0.265 OA
ATOM      8  O   UNL d   1     -39.004  15.663  16.655  0.00  0.00    -0.265 OA
ATOM      9  O   UNL d   1     -41.851  15.673  16.290  0.00  0.00    -0.242 OA
ENDROOT
BRANCH   1  10
ATOM     10  C   UNL d   1     -39.179  14.690  17.987  0.00  0.00     0.010 C 
BRANCH  10  11
ATOM     11  C   UNL d   1     -38.869  13.933  17.862  0.00  0.00     0.001 A 
ATOM     12  C   UNL d   1     -38.551  13.732  17.133  0.00  0.00     0.003 A 
ATOM     13  C   UNL d   1     -38.242  12.977  17.012  0.00  0.00     0.042 A 
ATOM     14  C   UNL d   1     -38.255  12.432  17.622  0.00  0.00     0.196 A 
ATOM     15  C   UNL d   1     -38.573  12.633  18.350  0.00  0.00     0.042 A 
ATOM     16  O   UNL d   1     -37.942  11.659  17.507  0.00  0.00    -0.287 OA
ATOM     17  C   UNL d   1     -38.882  13.382  18.478  0.00  0.00     0.003 A 
ENDBRANCH  10  11
ENDBRANCH   1  10
TORSDOF 2
ENDMDL
MODEL 7
REMARK VINA RESULT:      -5.8      8.334      9.507
REMARK  2 active torsions:
REMARK  status: ('A' for Active; 'I' for Inactive)
REMARK    1  A    between atoms: C_7  and  C_1 
REMARK    2  A    between atoms: C_11  and  C_7 
ROOT
ATOM      1  C   UNL d   1     -39.920  14.846  18.167  0.00  0.00     0.116 A 
ATOM      2  N   UNL d   1     -38.779  14.347  17.475  0.00  0.00    -0.152 NA
ATOM      3  N   UNL d   1     -39.867  13.476  17.770  0.00  0.00    -0.152 NA
ATOM      4  C   UNL d   1     -40.271  14.098  18.135  0.00  0.00     0.288 A 
ATOM      5  C   UNL d   1     -39.179  14.970  17.839  0.00  0.00     0.288 A 
ATOM      6  C   UNL d   1     -39.126  13.600  17.442  0.00  0.00     0.374 A 
ATOM      7  O   UNL d   1     -38.814  15.732  17.867  0.00  0.00    -0.265 OA
ATOM      8  O   UNL d   1     -41.015  13.974  18.464  0.00  0.00    -0.265 OA
ATOM      9  O   UNL d   1     -38.708  12.984  17.072  0.00  0.00    -0.242 OA
ENDROOT
BRANCH   1  10
ATOM     10  C   UNL d   1     -40.324  15.480  18.535  0.00  0.00     0.010 C 
BRANCH  10  11
ATOM     11  C   UNL d   1     -40.257  15.591  19.352  0.00  0.00     0.001 A 
ATOM     12  C   UNL d   1     -39.527  15.753  19.689  0.00  0.00     0.003 A 
ATOM     13  C   UNL d   1     -39.464  15.864  20.504  0.00  0.00     0.042 A 
ATOM     14  C   UNL d   1     -40.133  15.811  20.972  0.00  0.00     0.196 A 
ATOM     15  C   UNL d   1     -40.862  15.649  20.635  0.00  0.00     0.042 A 
ATOM     16  O   UNL d   1     -40.078  15.922  21.804  0.00  0.00    -0.287 OA
ATOM     17  C   UNL d   1     -40.933  15.538  19.826  0.00  0.00     0.003 A 
ENDBRANCH  10  11
ENDBRANCH   1  10
TORSDOF 2
ENDMDL
MODEL 8
REMARK VINA RESULT:      -5.4      8.107      9.459
REMARK  2 active torsions:
REMARK  status: ('A' for Active; 'I' for Inactive)
REMARK    1  A    between atoms: C_7  and  C_1 
REMARK    2  A    between atoms: C_11  and  C_7 
ROOT
ATOM      1  C   UNL d   1     -39.769  14.652  19.853  0.00  0.00     0.116 A 
ATOM      2  N   UNL d   1     -40.891  14.144  19.137  0.00  0.00    -0.152 NA
ATOM      3  N   UNL d   1     -39.696  14.480  18.438  0.00  0.00    -0.152 NA
ATOM      4  C   UNL d   1     -39.341  14.709  19.148  0.00  0.00     0.288 A 
ATOM      5  C   UNL d   1     -40.539  14.371  19.847  0.00  0.00     0.288 A 
ATOM      6  C   UNL d   1     -40.467  14.200  18.433  0.00  0.00     0.374 A 
ATOM      7  O   UNL d   1     -40.983  14.310  20.564  0.00  0.00    -0.265 OA
ATOM      8  O   UNL d   1     -38.567  14.990  19.153  0.00  0.00    -0.265 OA
ATOM      9  O   UNL d   1     -40.838  13.967  17.726  0.00  0.00    -0.242 OA
ENDROOT
BRANCH   1  10
ATOM     10  C   UNL d   1     -39.414  14.882  20.575  0.00  0.00     0.010 C 
BRANCH  10  11
ATOM     11  C   UNL d   1     -39.042  14.316  21.050  0.00  0.00     0.001 A 
ATOM     12  C   UNL d   1     -38.334  13.978  20.812  0.00  0.00     0.003 A 
ATOM     13  C   UNL d   1     -37.965  13.413  21.288  0.00  0.00     0.042 A 
ATOM     14  C   UNL d   1     -38.311  13.193  21.996  0.00  0.00     0.196 A 
ATOM     15  C   UNL d   1     -39.020  13.531  22.233  0.00  0.00     0.042 A 
ATOM     16  O   UNL d   1     -37.943  12.618  22.487  0.00  0.00    -0.287 OA
ATOM     17  C   UNL d   1     -39.391  14.093  21.765  0.00  0.00     0.003 A 
ENDBRANCH  10  11
ENDBRANCH   1  10
TORSDOF 2
ENDMDL
MODEL 9
REMARK VINA RESULT:      -5.3      8.179      8.928
REMARK  2 active torsions:
REMARK  status: ('A' for Active; 'I' for Inactive)
REMARK    1  A    between atoms: C_7  and  C_1 
REMARK    2  A    between atoms: C_11  and  C_7 
ROOT
ATOM      1  C   UNL d   1     -40.205  14.882  20.308  0.00  0.00     0.116 A 
ATOM      2  N   UNL d   1     -38.996  14.984  21.054  0.00  0.00    -0.152 NA
ATOM      3  N   UNL d   1     -40.099  15.827  21.371  0.00  0.00    -0.152 NA
ATOM      4  C   UNL d   1     -40.543  15.480  20.768  0.00  0.00     0.288 A 
ATOM      5  C   UNL d   1     -39.436  14.635  20.450  0.00  0.00     0.288 A 
ATOM      6  C   UNL d   1     -39.330  15.581  21.514  0.00  0.00     0.374 A 
ATOM      7  O   UNL d   1     -39.084  14.024  19.984  0.00  0.00    -0.265 OA
ATOM      8  O   UNL d   1     -41.315  15.728  20.625  0.00  0.00    -0.265 OA
ATOM      9  O   UNL d   1     -38.871  15.921  22.118  0.00  0.00    -0.242 OA
ENDROOT
BRANCH   1  10
ATOM     10  C   UNL d   1     -40.650  14.526  19.694  0.00  0.00     0.010 C 
BRANCH  10  11
ATOM     11  C   UNL d   1     -40.568  14.796  18.917  0.00  0.00     0.001 A 
ATOM     12  C   UNL d   1     -40.778  15.565  18.722  0.00  0.00     0.003 A 
ATOM     13  C   UNL d   1     -40.696  15.831  17.945  0.00  0.00     0.042 A 
ATOM     14  C   UNL d   1     -40.403  15.325  17.373  0.00  0.00     0.196 A 
ATOM     15  C   UNL d   1     -40.193  14.556  17.569  0.00  0.00     0.042 A 
ATOM     16  O   UNL d   1     -40.315  15.588  16.579  0.00  0.00    -0.287 OA
ATOM     17  C   UNL d   1     -40.273  14.285  18.338  0.00  0.00     0.003 A 
ENDBRANCH  10  11
ENDBRANCH   1  10
TORSDOF 2
ENDMDL
