MODEL 1
REMARK VINA RESULT:      -7.0      0.000      0.000
REMARK  5 active torsions:
REMARK  status: ('A' for Active; 'I' for Inactive)
REMARK    1  A    between atoms: N_8  and  C_2 
REMARK    2  A    between atoms: S_5  and  C_13 
REMARK    3  A    between atoms: C_17  and  S_5 
REMARK       I    between atoms: C_9  and  N_8 
REMARK    4  A    between atoms: C_12  and  C_9 
REMARK    5  A    between atoms: C_13  and  C_12 
ROOT
ATOM      1  N   UNL d   1     -47.582  13.226  22.248  0.00  0.00    -0.183 NA
ATOM      2  C   UNL d   1     -47.339  12.662  22.804  0.00  0.00     0.282 C 
ATOM      3  O   UNL d   1     -47.794  12.548  23.496  0.00  0.00    -0.265 OA
ENDROOT
BRANCH   1   4
ATOM      4  C   UNL d   1     -48.254  13.667  22.367  0.00  0.00     0.197 A 
ATOM      5  S   UNL d   1     -48.990  13.510  22.050  0.00  0.00    -0.044 SA
ATOM      6  C   UNL d   1     -49.505  14.104  22.320  0.00  0.00     0.088 A 
ATOM      7  C   UNL d   1     -49.089  14.621  22.800  0.00  0.00     0.089 A 
ATOM      8  C   UNL d   1     -50.322  14.231  22.178  0.00  0.00     0.199 A 
ATOM      9  N   UNL d   1     -48.319  14.345  22.824  0.00  0.00    -0.221 NA
ATOM     10  C   UNL d   1     -49.462  15.267  23.147  0.00  0.00    -0.003 A 
ATOM     11  C   UNL d   1     -50.260  15.397  23.013  0.00  0.00     0.042 A 
ATOM     12  C   UNL d   1     -50.687  14.882  22.531  0.00  0.00     0.020 A 
ATOM     13  C   UNL d   1     -49.844  15.918  23.495  0.00  0.00     0.009 C 
ATOM     14  C   UNL d   1     -51.064  15.532  22.880  0.00  0.00     0.009 C 
ATOM     15  O   UNL d   1     -50.745  13.715  21.697  0.00  0.00    -0.286 OA
ENDBRANCH   1   4
BRANCH   2  16
ATOM     16  C   UNL d   1     -46.667  12.220  22.685  0.00  0.00     0.075 C 
BRANCH  16  17
ATOM     17  C   UNL d   1     -46.313  11.920  23.265  0.00  0.00     0.104 C 
BRANCH  17  18
ATOM     18  S   UNL d   1     -45.593  11.493  23.279  0.00  0.00     0.211 S 
ATOM     19  O   UNL d   1     -45.992  10.814  23.548  0.00  0.00    -0.217 OA
ATOM     20  O   UNL d   1     -45.191  12.184  23.007  0.00  0.00    -0.217 OA
BRANCH  18  21
ATOM     21  C   UNL d   1     -44.878  11.078  23.291  0.00  0.00     0.088 A 
ATOM     22  C   UNL d   1     -44.214  11.385  22.911  0.00  0.00     0.011 A 
ATOM     23  C   UNL d   1     -43.496  10.970  22.921  0.00  0.00     0.001 A 
ATOM     24  C   UNL d   1     -43.450  10.247  23.314  0.00  0.00     0.000 A 
ATOM     25  C   UNL d   1     -44.109   9.930  23.698  0.00  0.00     0.001 A 
ATOM     26  C   UNL d   1     -44.827  10.349  23.686  0.00  0.00     0.011 A 
ENDBRANCH  18  21
ENDBRANCH  17  18
ENDBRANCH  16  17
ENDBRANCH   2  16
TORSDOF 5
ENDMDL
MODEL 2
REMARK VINA RESULT:      -5.7      1.185      5.990
REMARK  5 active torsions:
REMARK  status: ('A' for Active; 'I' for Inactive)
REMARK    1  A    between atoms: N_8  and  C_2 
REMARK    2  A    between atoms: S_5  and  C_13 
REMARK    3  A    between atoms: C_17  and  S_5 
REMARK       I    between atoms: C_9  and  N_8 
REMARK    4  A    between atoms: C_12  and  C_9 
REMARK    5  A    between atoms: C_13  and  C_12 
ROOT
ATOM      1  N   UNL d   1     -46.554  12.907  22.527  0.00  0.00    -0.183 NA
ATOM      2  C   UNL d   1     -46.708  13.548  23.029  0.00  0.00     0.282 C 
ATOM      3  O   UNL d   1     -46.202  13.689  23.678  0.00  0.00    -0.265 OA
ENDROOT
BRANCH   1   4
ATOM      4  C   UNL d   1     -45.919  12.417  22.659  0.00  0.00     0.197 A 
ATOM      5  S   UNL d   1     -45.151  12.556  22.418  0.00  0.00    -0.044 SA
ATOM      6  C   UNL d   1     -44.694  11.911  22.673  0.00  0.00     0.088 A 
ATOM      7  C   UNL d   1     -45.176  11.379  23.067  0.00  0.00     0.089 A 
ATOM      8  C   UNL d   1     -43.875  11.748  22.587  0.00  0.00     0.199 A 
ATOM      9  N   UNL d   1     -45.930  11.699  23.054  0.00  0.00    -0.221 NA
ATOM     10  C   UNL d   1     -44.869  10.684  23.382  0.00  0.00    -0.003 A 
ATOM     11  C   UNL d   1     -44.071  10.518  23.301  0.00  0.00     0.042 A 
ATOM     12  C   UNL d   1     -43.577  11.047  22.906  0.00  0.00     0.020 A 
ATOM     13  C   UNL d   1     -44.553   9.983  23.698  0.00  0.00     0.009 C 
ATOM     14  C   UNL d   1     -43.266  10.348  23.222  0.00  0.00     0.009 C 
ATOM     15  O   UNL d   1     -43.385  12.278  22.192  0.00  0.00    -0.286 OA
ENDBRANCH   1   4
BRANCH   2  16
ATOM     16  C   UNL d   1     -47.343  14.038  22.897  0.00  0.00     0.075 C 
BRANCH  16  17
ATOM     17  C   UNL d   1     -47.996  13.894  23.221  0.00  0.00     0.104 C 
BRANCH  17  18
ATOM     18  S   UNL d   1     -48.729  14.285  23.124  0.00  0.00     0.211 S 
ATOM     19  O   UNL d   1     -49.136  13.583  23.307  0.00  0.00    -0.217 OA
ATOM     20  O   UNL d   1     -48.313  14.996  22.939  0.00  0.00    -0.217 OA
BRANCH  18  21
ATOM     21  C   UNL d   1     -49.451  14.678  23.026  0.00  0.00     0.088 A 
ATOM     22  C   UNL d   1     -50.036  14.355  22.544  0.00  0.00     0.011 A 
ATOM     23  C   UNL d   1     -50.760  14.747  22.445  0.00  0.00     0.001 A 
ATOM     24  C   UNL d   1     -50.891  15.462  22.831  0.00  0.00     0.000 A 
ATOM     25  C   UNL d   1     -50.312  15.795  23.317  0.00  0.00     0.001 A 
ATOM     26  C   UNL d   1     -49.587  15.400  23.414  0.00  0.00     0.011 A 
ENDBRANCH  18  21
ENDBRANCH  17  18
ENDBRANCH  16  17
ENDBRANCH   2  16
TORSDOF 5
ENDMDL
MODEL 3
REMARK VINA RESULT:      -5.6      1.335      1.642
REMARK  5 active torsions:
REMARK  status: ('A' for Active; 'I' for Inactive)
REMARK    1  A    between atoms: N_8  and  C_2 
REMARK    2  A    between atoms: S_5  and  C_13 
REMARK    3  A    between atoms: C_17  and  S_5 
REMARK       I    between atoms: C_9  and  N_8 
REMARK    4  A    between atoms: C_12  and  C_9 
REMARK    5  A    between atoms: C_13  and  C_12 
ROOT
ATOM      1  N   UNL d   1     -47.515  13.462  22.121  0.00  0.00    -0.183 NA
ATOM      2  C   UNL d   1     -46.899  13.225  22.622  0.00  0.00     0.282 C 
ATOM      3  O   UNL d   1     -46.987  13.318  23.447  0.00  0.00    -0.265 OA
ENDROOT
BRANCH   1   4
ATOM      4  C   UNL d   1     -48.200  13.780  22.422  0.00  0.00     0.197 A 
ATOM      5  S   UNL d   1     -48.916  13.393  22.492  0.00  0.00    -0.044 SA
ATOM      6  C   UNL d   1     -49.453  13.931  22.827  0.00  0.00     0.088 A 
ATOM      7  C   UNL d   1     -49.072  14.643  22.961  0.00  0.00     0.089 A 
ATOM      8  C   UNL d   1     -50.264  13.847  23.026  0.00  0.00     0.199 A 
ATOM      9  N   UNL d   1     -48.299  14.542  22.709  0.00  0.00    -0.221 NA
ATOM     10  C   UNL d   1     -49.473  15.281  23.291  0.00  0.00    -0.003 A 
ATOM     11  C   UNL d   1     -50.264  15.206  23.489  0.00  0.00     0.042 A 
ATOM     12  C   UNL d   1     -50.657  14.493  23.357  0.00  0.00     0.020 A 
ATOM     13  C   UNL d   1     -49.883  15.922  23.625  0.00  0.00     0.009 C 
ATOM     14  C   UNL d   1     -51.062  15.135  23.690  0.00  0.00     0.009 C 
ATOM     15  O   UNL d   1     -50.653  13.134  22.893  0.00  0.00    -0.286 OA
ENDBRANCH   1   4
BRANCH   2  16
ATOM     16  C   UNL d   1     -46.215  12.907  22.321  0.00  0.00     0.075 C 
BRANCH  16  17
ATOM     17  C   UNL d   1     -45.556  13.177  22.532  0.00  0.00     0.104 C 
BRANCH  17  18
ATOM     18  S   UNL d   1     -44.795  13.008  22.227  0.00  0.00     0.211 S 
ATOM     19  O   UNL d   1     -44.826  12.243  22.554  0.00  0.00    -0.217 OA
ATOM     20  O   UNL d   1     -44.767  13.785  21.897  0.00  0.00    -0.217 OA
BRANCH  18  21
ATOM     21  C   UNL d   1     -44.043  12.847  21.923  0.00  0.00     0.088 A 
ATOM     22  C   UNL d   1     -43.696  13.363  21.382  0.00  0.00     0.011 A 
ATOM     23  C   UNL d   1     -42.941  13.203  21.076  0.00  0.00     0.001 A 
ATOM     24  C   UNL d   1     -42.541  12.525  21.316  0.00  0.00     0.000 A 
ATOM     25  C   UNL d   1     -42.878  12.001  21.858  0.00  0.00     0.001 A 
ATOM     26  C   UNL d   1     -43.635  12.164  22.163  0.00  0.00     0.011 A 
ENDBRANCH  18  21
ENDBRANCH  17  18
ENDBRANCH  16  17
ENDBRANCH   2  16
TORSDOF 5
ENDMDL
MODEL 4
REMARK VINA RESULT:      -4.8      3.175      4.456
REMARK  5 active torsions:
REMARK  status: ('A' for Active; 'I' for Inactive)
REMARK    1  A    between atoms: N_8  and  C_2 
REMARK    2  A    between atoms: S_5  and  C_13 
REMARK    3  A    between atoms: C_17  and  S_5 
REMARK       I    between atoms: C_9  and  N_8 
REMARK    4  A    between atoms: C_12  and  C_9 
REMARK    5  A    between atoms: C_13  and  C_12 
ROOT
ATOM      1  N   UNL d   1     -44.268  12.939  22.406  0.00  0.00    -0.183 NA
ATOM      2  C   UNL d   1     -43.993  12.826  21.633  0.00  0.00     0.282 C 
ATOM      3  O   UNL d   1     -44.538  12.632  21.030  0.00  0.00    -0.265 OA
ENDROOT
BRANCH   1   4
ATOM      4  C   UNL d   1     -45.058  12.864  22.583  0.00  0.00     0.197 A 
ATOM      5  S   UNL d   1     -45.635  13.424  22.437  0.00  0.00    -0.044 SA
ATOM      6  C   UNL d   1     -46.355  13.110  22.708  0.00  0.00     0.088 A 
ATOM      7  C   UNL d   1     -46.223  12.364  23.019  0.00  0.00     0.089 A 
ATOM      8  C   UNL d   1     -47.130  13.430  22.705  0.00  0.00     0.199 A 
ATOM      9  N   UNL d   1     -45.420  12.220  22.938  0.00  0.00    -0.221 NA
ATOM     10  C   UNL d   1     -46.842  11.920  23.330  0.00  0.00    -0.003 A 
ATOM     11  C   UNL d   1     -47.601  12.226  23.331  0.00  0.00     0.042 A 
ATOM     12  C   UNL d   1     -47.745  12.977  23.020  0.00  0.00     0.020 A 
ATOM     13  C   UNL d   1     -47.471  11.477  23.643  0.00  0.00     0.009 C 
ATOM     14  C   UNL d   1     -48.369  12.531  23.333  0.00  0.00     0.009 C 
ATOM     15  O   UNL d   1     -47.270  14.179  22.395  0.00  0.00    -0.286 OA
ENDBRANCH   1   4
BRANCH   2  16
ATOM     16  C   UNL d   1     -43.203  12.901  21.456  0.00  0.00     0.075 C 
BRANCH  16  17
ATOM     17  C   UNL d   1     -42.962  13.498  21.085  0.00  0.00     0.104 C 
BRANCH  17  18
ATOM     18  S   UNL d   1     -42.176  13.739  20.930  0.00  0.00     0.211 S 
ATOM     19  O   UNL d   1     -41.986  12.975  20.660  0.00  0.00    -0.217 OA
ATOM     20  O   UNL d   1     -42.371  14.513  21.205  0.00  0.00    -0.217 OA
BRANCH  18  21
ATOM     21  C   UNL d   1     -41.400  13.984  20.780  0.00  0.00     0.088 A 
ATOM     22  C   UNL d   1     -40.847  14.007  21.391  0.00  0.00     0.011 A 
ATOM     23  C   UNL d   1     -40.069  14.253  21.242  0.00  0.00     0.001 A 
ATOM     24  C   UNL d   1     -39.851  14.473  20.479  0.00  0.00     0.000 A 
ATOM     25  C   UNL d   1     -40.396  14.454  19.859  0.00  0.00     0.001 A 
ATOM     26  C   UNL d   1     -41.176  14.207  20.012  0.00  0.00     0.011 A 
ENDBRANCH  18  21
ENDBRANCH  17  18
ENDBRANCH  16  17
ENDBRANCH   2  16
TORSDOF 5
ENDMDL
MODEL 5
REMARK VINA RESULT:      -4.5      4.403      7.340
REMARK  5 active torsions:
REMARK  status: ('A' for Active; 'I' for Inactive)
REMARK    1  A    between atoms: N_8  and  C_2 
REMARK    2  A    between atoms: S_5  and  C_13 
REMARK    3  A    between atoms: C_17  and  S_5 
REMARK       I    between atoms: C_9  and  N_8 
REMARK    4  A    between atoms: C_12  and  C_9 
REMARK    5  A    between atoms: C_13  and  C_12 
ROOT
ATOM      1  N   UNL d   1     -42.247  13.737  21.454  0.00  0.00    -0.183 NA
ATOM      2  C   UNL d   1     -42.781  13.122  21.301  0.00  0.00     0.282 C 
ATOM      3  O   UNL d   1     -42.702  12.678  20.598  0.00  0.00    -0.265 OA
ENDROOT
BRANCH   1   4
ATOM      4  C   UNL d   1     -41.650  13.910  20.930  0.00  0.00     0.197 A 
ATOM      5  S   UNL d   1     -40.857  13.976  21.116  0.00  0.00    -0.044 SA
ATOM      6  C   UNL d   1     -40.455  14.159  20.412  0.00  0.00     0.088 A 
ATOM      7  C   UNL d   1     -40.995  14.205  19.799  0.00  0.00     0.089 A 
ATOM      8  C   UNL d   1     -39.640  14.290  20.262  0.00  0.00     0.199 A 
ATOM      9  N   UNL d   1     -41.730  14.050  20.127  0.00  0.00    -0.221 NA
ATOM     10  C   UNL d   1     -40.751  14.379  19.033  0.00  0.00    -0.003 A 
ATOM     11  C   UNL d   1     -39.957  14.509  18.878  0.00  0.00     0.042 A 
ATOM     12  C   UNL d   1     -39.405  14.464  19.489  0.00  0.00     0.020 A 
ATOM     13  C   UNL d   1     -40.498  14.555  18.261  0.00  0.00     0.009 C 
ATOM     14  C   UNL d   1     -39.157  14.640  18.719  0.00  0.00     0.009 C 
ATOM     15  O   UNL d   1     -39.092  14.245  20.874  0.00  0.00    -0.286 OA
ENDBRANCH   1   4
BRANCH   2  16
ATOM     16  C   UNL d   1     -43.379  12.949  21.825  0.00  0.00     0.075 C 
BRANCH  16  17
ATOM     17  C   UNL d   1     -44.087  12.984  21.603  0.00  0.00     0.104 C 
BRANCH  17  18
ATOM     18  S   UNL d   1     -44.784  12.959  22.065  0.00  0.00     0.211 S 
ATOM     19  O   UNL d   1     -44.587  12.198  22.337  0.00  0.00    -0.217 OA
ATOM     20  O   UNL d   1     -44.982  13.732  21.787  0.00  0.00    -0.217 OA
BRANCH  18  21
ATOM     21  C   UNL d   1     -45.475  12.942  22.519  0.00  0.00     0.088 A 
ATOM     22  C   UNL d   1     -45.714  12.243  22.886  0.00  0.00     0.011 A 
ATOM     23  C   UNL d   1     -46.406  12.224  23.341  0.00  0.00     0.001 A 
ATOM     24  C   UNL d   1     -46.856  12.909  23.426  0.00  0.00     0.000 A 
ATOM     25  C   UNL d   1     -46.628  13.615  23.064  0.00  0.00     0.001 A 
ATOM     26  C   UNL d   1     -45.932  13.631  22.607  0.00  0.00     0.011 A 
ENDBRANCH  18  21
ENDBRANCH  17  18
ENDBRANCH  16  17
ENDBRANCH   2  16
TORSDOF 5
ENDMDL
