MODEL 1
REMARK VINA RESULT:      63.7      0.000      0.000
REMARK  3 active torsions:
REMARK  status: ('A' for Active; 'I' for Inactive)
REMARK    1  A    between atoms: C_8  and  N_2 
REMARK    2  A    between atoms: C_14  and  C_8 
REMARK    3  A    between atoms: N_13  and  C_14 
ROOT
ATOM      1  C   UNL d   1      57.904  49.659  51.711  0.00  0.00     0.166 A 
ATOM      2  N   UNL d   1      58.391  49.649  51.056  0.00  0.00    -0.288 N 
ATOM      3  C   UNL d   1      57.103  49.655  51.501  0.00  0.00     0.117 A 
ATOM      4  C   UNL d   1      57.102  49.642  50.703  0.00  0.00     0.037 A 
ATOM      5  C   UNL d   1      57.912  49.638  50.421  0.00  0.00     0.067 A 
ATOM      6  N   UNL d   1      58.072  49.671  52.485  0.00  0.00    -0.225 NA
ATOM      7  N   UNL d   1      56.483  49.663  52.051  0.00  0.00    -0.241 NA
ATOM      8  C   UNL d   1      57.447  49.680  53.036  0.00  0.00     0.101 A 
ATOM      9  C   UNL d   1      56.653  49.676  52.814  0.00  0.00     0.099 A 
ATOM     10  C   UNL d   1      58.086  49.625  49.633  0.00  0.00     0.018 A 
ATOM     11  C   UNL d   1      56.485  49.633  50.192  0.00  0.00     0.010 A 
ATOM     12  C   UNL d   1      56.650  49.621  49.408  0.00  0.00     0.035 A 
ATOM     13  C   UNL d   1      57.460  49.617  49.125  0.00  0.00     0.008 A 
ATOM     14 BR   UNL d   1      56.053  49.612  48.869  0.00  0.00    -0.049 Br
ATOM     15  C   UNL d   1      56.035  49.684  53.373  0.00  0.00     0.021 A 
ATOM     16  C   UNL d   1      57.620  49.692  53.804  0.00  0.00     0.021 A 
ATOM     17  C   UNL d   1      56.998  49.701  54.353  0.00  0.00     0.002 A 
ATOM     18  C   UNL d   1      56.206  49.697  54.136  0.00  0.00     0.002 A 
ENDROOT
BRANCH   2  19
ATOM     19  C   UNL d   1      59.240  49.649  51.028  0.00  0.00     0.101 C 
BRANCH  19  20
ATOM     20  C   UNL d   1      59.635  48.964  51.322  0.00  0.00     0.100 C 
BRANCH  20  21
ATOM     21  N   UNL d   1      60.413  49.015  51.005  0.00  0.00    -0.298 N 
ATOM     22  C   UNL d   1      60.930  49.634  51.260  0.00  0.00     0.107 A 
ATOM     23  C   UNL d   1      61.701  49.685  50.947  0.00  0.00     0.142 A 
ATOM     24  O   UNL d   1      61.963  49.124  50.381  0.00  0.00    -0.300 OA
ATOM     25  C   UNL d   1      61.444  48.512  50.132  0.00  0.00     0.142 A 
ATOM     26  C   UNL d   1      60.668  48.458  50.445  0.00  0.00     0.107 A 
ENDBRANCH  20  21
ENDBRANCH  19  20
ENDBRANCH   2  19
TORSDOF 3
ENDMDL
