MODEL 1
REMARK VINA RESULT:      62.9      0.000      0.000
REMARK  6 active torsions:
REMARK  status: ('A' for Active; 'I' for Inactive)
REMARK    1  A    between atoms: S_10  and  C_3 
REMARK    2  A    between atoms: C_14  and  C_7 
REMARK    3  A    between atoms: C_18  and  S_10 
REMARK       I    between atoms: N_11  and  C_12 
REMARK    4  A    between atoms: C_13  and  N_11 
REMARK    5  A    between atoms: C_12  and  C_18 
REMARK    6  A    between atoms: O_20  and  C_16 
ROOT
ATOM      1  N   UNL d   1     -47.796  29.680  35.369  0.00  0.00    -0.186 N 
ATOM      2  N   UNL d   1     -47.829  30.323  34.865  0.00  0.00    -0.162 NA
ATOM      3  C   UNL d   1     -47.958  28.876  35.250  0.00  0.00     0.217 A 
ATOM      4  C   UNL d   1     -47.567  29.772  36.155  0.00  0.00     0.187 A 
ATOM      5  N   UNL d   1     -47.828  28.490  35.960  0.00  0.00    -0.120 NA
ATOM      6  N   UNL d   1     -47.586  29.043  36.522  0.00  0.00    -0.127 NA
ATOM      7  C   UNL d   1     -47.630  31.074  35.150  0.00  0.00     0.103 A 
ATOM      8  C   UNL d   1     -47.368  30.527  36.439  0.00  0.00     0.042 A 
ATOM      9  C   UNL d   1     -47.399  31.171  35.940  0.00  0.00     0.024 A 
ENDROOT
BRANCH   3  10
ATOM     10  S   UNL d   1     -48.207  28.512  34.552  0.00  0.00    -0.041 SA
BRANCH  10  11
ATOM     11  C   UNL d   1     -48.990  28.318  34.444  0.00  0.00     0.101 C 
BRANCH  11  12
ATOM     12  C   UNL d   1     -49.201  27.554  34.249  0.00  0.00     0.286 C 
ATOM     13  N   UNL d   1     -49.939  27.386  33.915  0.00  0.00    -0.206 NA
ATOM     14  O   UNL d   1     -48.677  26.931  34.384  0.00  0.00    -0.265 OA
BRANCH  13  15
ATOM     15  C   UNL d   1     -50.152  26.612  33.718  0.00  0.00     0.107 A 
ATOM     16  C   UNL d   1     -50.925  26.434  33.505  0.00  0.00     0.112 A 
ATOM     17  C   UNL d   1     -51.131  25.654  33.309  0.00  0.00     0.026 A 
ATOM     18  C   UNL d   1     -50.558  25.070  33.330  0.00  0.00     0.002 A 
ATOM     19  C   UNL d   1     -49.783  25.236  33.541  0.00  0.00     0.002 A 
ATOM     20  C   UNL d   1     -49.577  26.016  33.737  0.00  0.00     0.021 A 
BRANCH  16  21
ATOM     21  O   UNL d   1     -51.498  27.039  33.488  0.00  0.00    -0.327 OA
ATOM     22  C   UNL d   1     -52.303  26.845  33.434  0.00  0.00     0.181 C 
ENDBRANCH  16  21
ENDBRANCH  13  15
ENDBRANCH  11  12
ENDBRANCH  10  11
ENDBRANCH   3  10
BRANCH   7  23
ATOM     23  C   UNL d   1     -47.665  31.720  34.634  0.00  0.00     0.039 A 
ATOM     24  C   UNL d   1     -47.069  32.267  34.610  0.00  0.00     0.101 A 
ATOM     25  N   UNL d   1     -47.108  32.900  34.101  0.00  0.00    -0.242 NA
ATOM     26  C   UNL d   1     -47.761  32.993  33.602  0.00  0.00     0.099 A 
ATOM     27  C   UNL d   1     -48.368  32.437  33.627  0.00  0.00     0.021 A 
ATOM     28  C   UNL d   1     -48.325  31.795  34.145  0.00  0.00     0.005 A 
ENDBRANCH   7  23
TORSDOF 6
ENDMDL
