MODEL 1
REMARK VINA RESULT:      -3.4      0.000      0.000
REMARK  6 active torsions:
REMARK  status: ('A' for Active; 'I' for Inactive)
REMARK    1  A    between atoms: C_2  and  S_1 
REMARK    2  A    between atoms: N_8  and  S_1 
REMARK    3  A    between atoms: C_13  and  N_8 
REMARK    4  A    between atoms: N_9  and  C_14 
REMARK    5  A    between atoms: O_15  and  C_10 
REMARK    6  A    between atoms: C_14  and  C_13 
ROOT
ATOM      1  C   UNL d   1     -41.843-122.830 -50.332  0.00  0.00     0.105 A 
ATOM      2  C   UNL d   1     -42.548-123.004 -49.957  0.00  0.00     0.014 A 
ATOM      3  C   UNL d   1     -42.546-123.332 -49.200  0.00  0.00     0.023 A 
ATOM      4  C   UNL d   1     -41.124-122.983 -49.950  0.00  0.00     0.015 A 
ATOM      5  C   UNL d   1     -41.841-123.486 -48.819  0.00  0.00     0.094 A 
ATOM      6  C   UNL d   1     -41.123-123.312 -49.194  0.00  0.00     0.025 A 
ATOM      7  C   UNL d   1     -43.262-122.850 -50.339  0.00  0.00     0.001 A 
ATOM      8  C   UNL d   1     -43.260-123.507 -48.826  0.00  0.00     0.002 A 
ATOM      9  C   UNL d   1     -43.976-123.025 -49.964  0.00  0.00     0.000 A 
ATOM     10  C   UNL d   1     -43.975-123.353 -49.207  0.00  0.00     0.000 A 
ENDROOT
BRANCH   1  11
ATOM     11  S   UNL d   1     -41.844-122.501 -51.089  0.00  0.00     0.285 S 
ATOM     12  O   UNL d   1     -41.866-121.738 -50.757  0.00  0.00    -0.198 OA
ATOM     13  O   UNL d   1     -41.823-123.248 -51.413  0.00  0.00    -0.198 OA
BRANCH  11  14
ATOM     14  N   UNL d   1     -41.846-122.173 -51.845  0.00  0.00    -0.155 NA
BRANCH  14  15
ATOM     15  C   UNL d   1     -41.452-122.544 -52.457  0.00  0.00     0.131 C 
BRANCH  15  16
ATOM     16  C   UNL d   1     -41.218-122.117 -53.123  0.00  0.00     0.102 C 
BRANCH  16  17
ATOM     17  N   UNL d   1     -41.459-122.359 -53.874  0.00  0.00    -0.298 N 
ATOM     18  C   UNL d   1     -41.220-123.092 -54.167  0.00  0.00     0.107 A 
ATOM     19  C   UNL d   1     -41.461-123.338 -54.921  0.00  0.00     0.142 A 
ATOM     20  O   UNL d   1     -41.940-122.847 -55.379  0.00  0.00    -0.300 OA
ATOM     21  C   UNL d   1     -42.179-122.110 -55.083  0.00  0.00     0.142 A 
ATOM     22  C   UNL d   1     -41.938-121.868 -54.332  0.00  0.00     0.107 A 
ENDBRANCH  16  17
ENDBRANCH  15  16
ENDBRANCH  14  15
ENDBRANCH  11  14
ENDBRANCH   1  11
BRANCH   5  23
ATOM     23  O   UNL d   1     -41.833-123.815 -48.061  0.00  0.00    -0.328 OA
ATOM     24  C   UNL d   1     -41.333-123.515 -47.481  0.00  0.00     0.181 C 
ENDBRANCH   5  23
TORSDOF 6
ENDMDL
