MODEL 1
REMARK VINA RESULT:      46.7      0.000      0.000
REMARK  6 active torsions:
REMARK  status: ('A' for Active; 'I' for Inactive)
REMARK    1  A    between atoms: C_7  and  S_1 
REMARK    2  A    between atoms: N_18  and  S_1 
REMARK    3  A    between atoms: C_6  and  C_4 
REMARK    4  A    between atoms: C_9  and  C_24 
REMARK    5  A    between atoms: C_26  and  N_18 
REMARK    6  A    between atoms: C_24  and  C_26 
ROOT
ATOM      1  S   UNL d   1     -50.876  26.507  33.351  0.00  0.00     0.285 S 
ATOM      2  O   UNL d   1     -50.876  27.331  33.362  0.00  0.00    -0.198 OA
ATOM      3  O   UNL d   1     -51.697  26.516  33.316  0.00  0.00    -0.198 OA
ENDROOT
BRANCH   1   4
ATOM      4  C   UNL d   1     -50.885  25.686  33.340  0.00  0.00     0.105 A 
ATOM      5  C   UNL d   1     -51.604  25.281  33.344  0.00  0.00     0.019 A 
ATOM      6  C   UNL d   1     -51.615  24.463  33.333  0.00  0.00     0.100 A 
ATOM      7  C   UNL d   1     -50.905  24.040  33.318  0.00  0.00     0.144 A 
ATOM      8  C   UNL d   1     -50.190  24.442  33.313  0.00  0.00     0.030 A 
ATOM      9  F   UNL d   1     -50.908  23.219  33.306  0.00  0.00    -0.204 F 
ATOM     10  C   UNL d   1     -50.175  25.263  33.324  0.00  0.00     0.015 A 
BRANCH   6  11
ATOM     11  C   UNL d   1     -52.329  24.064  33.338  0.00  0.00     0.421 C 
ATOM     12  F   UNL d   1     -52.991  23.704  33.341  0.00  0.00    -0.166 F 
ATOM     13  F   UNL d   1     -52.483  23.219  33.374  0.00  0.00    -0.166 F 
ATOM     14  F   UNL d   1     -53.128  24.387  33.306  0.00  0.00    -0.166 F 
ENDBRANCH   6  11
ENDBRANCH   1   4
BRANCH   1  15
ATOM     15  N   UNL d   1     -50.050  26.509  33.387  0.00  0.00    -0.157 NA
BRANCH  15  16
ATOM     16  C   UNL d   1     -49.655  27.130  33.723  0.00  0.00     0.114 C 
BRANCH  16  17
ATOM     17  C   UNL d   1     -49.061  26.993  34.286  0.00  0.00     0.042 C 
BRANCH  17  18
ATOM     18  C   UNL d   1     -48.665  27.647  34.633  0.00  0.00     0.102 A 
ATOM     19  N   UNL d   1     -48.866  28.012  35.330  0.00  0.00    -0.227 NA
ATOM     20  C   UNL d   1     -48.335  28.630  35.471  0.00  0.00     0.148 A 
ATOM     21  C   UNL d   1     -48.276  29.175  36.083  0.00  0.00     0.037 A 
ATOM     22  N   UNL d   1     -47.799  28.645  34.851  0.00  0.00    -0.288 N 
ATOM     23  C   UNL d   1     -47.676  29.736  36.071  0.00  0.00     0.004 A 
ATOM     24  C   UNL d   1     -47.618  30.283  36.687  0.00  0.00     0.000 C 
ATOM     25  C   UNL d   1     -47.133  29.762  35.458  0.00  0.00     0.019 A 
ATOM     26  C   UNL d   1     -47.197  29.209  34.841  0.00  0.00     0.082 A 
ATOM     27  C   UNL d   1     -47.995  28.036  34.322  0.00  0.00     0.101 A 
ENDBRANCH  17  18
ENDBRANCH  16  17
ENDBRANCH  15  16
ENDBRANCH   1  15
TORSDOF 6
ENDMDL
