MODEL 1
REMARK VINA RESULT:      -2.4      0.000      0.000
REMARK  5 active torsions:
REMARK  status: ('A' for Active; 'I' for Inactive)
REMARK    1  A    between atoms: C_6  and  N_1 
REMARK    2  A    between atoms: C_10  and  C_3 
REMARK    3  A    between atoms: C_7  and  C_6 
REMARK    4  A    between atoms: C_13  and  C_10 
REMARK    5  A    between atoms: C_14  and  C_13 
ROOT
ATOM      1  N   UNL d   1      58.906  -0.685  29.402  0.00  0.00    -0.289 N 
ATOM      2  N   UNL d   1      58.040  -1.574  29.922  0.00  0.00    -0.227 NA
ATOM      3  C   UNL d   1      58.643  -1.465  29.333  0.00  0.00     0.148 A 
ATOM      4  C   UNL d   1      58.502  -0.318  29.992  0.00  0.00     0.083 A 
ATOM      5  C   UNL d   1      57.955  -0.879  30.320  0.00  0.00     0.099 A 
ATOM      6  C   UNL d   1      58.534   0.445  30.297  0.00  0.00     0.019 A 
ATOM      7  C   UNL d   1      57.484  -0.603  30.941  0.00  0.00     0.021 A 
ATOM      8  C   UNL d   1      58.051   0.651  30.899  0.00  0.00     0.002 A 
ATOM      9  C   UNL d   1      57.523   0.110  31.216  0.00  0.00     0.002 A 
ENDROOT
BRANCH   1  10
ATOM     10  C   UNL d   1      59.472  -0.500  28.886  0.00  0.00     0.088 C 
BRANCH  10  11
ATOM     11  C   UNL d   1      60.143  -0.099  29.108  0.00  0.00     0.052 C 
ATOM     12  C   UNL d   1      60.236   0.682  28.858  0.00  0.00     0.009 C 
ATOM     13 BR   UNL d   1      60.731  -0.431  29.568  0.00  0.00    -0.048 Br
ENDBRANCH  10  11
ENDBRANCH   1  10
BRANCH   3  14
ATOM     14  C   UNL d   1      58.908  -2.034  28.800  0.00  0.00     0.037 C 
BRANCH  14  15
ATOM     15  C   UNL d   1      58.593  -2.797  28.820  0.00  0.00     0.003 C 
BRANCH  15  16
ATOM     16  C   UNL d   1      58.993  -3.419  28.455  0.00  0.00     0.000 C 
ATOM     17  C   UNL d   1      58.748  -4.196  28.579  0.00  0.00     0.000 C 
ENDBRANCH  15  16
ENDBRANCH  14  15
ENDBRANCH   3  14
TORSDOF 5
ENDMDL
MODEL 2
REMARK VINA RESULT:      -2.3      1.031      3.037
REMARK  5 active torsions:
REMARK  status: ('A' for Active; 'I' for Inactive)
REMARK    1  A    between atoms: C_6  and  N_1 
REMARK    2  A    between atoms: C_10  and  C_3 
REMARK    3  A    between atoms: C_7  and  C_6 
REMARK    4  A    between atoms: C_13  and  C_10 
REMARK    5  A    between atoms: C_14  and  C_13 
ROOT
ATOM      1  N   UNL d   1      58.837  -1.184  29.658  0.00  0.00    -0.289 N 
ATOM      2  N   UNL d   1      58.556   0.086  30.007  0.00  0.00    -0.227 NA
ATOM      3  C   UNL d   1      58.328  -0.726  30.120  0.00  0.00     0.148 A 
ATOM      4  C   UNL d   1      59.355  -0.702  29.274  0.00  0.00     0.083 A 
ATOM      5  C   UNL d   1      59.178   0.098  29.495  0.00  0.00     0.099 A 
ATOM      6  C   UNL d   1      59.971  -0.854  28.751  0.00  0.00     0.019 A 
ATOM      7  C   UNL d   1      59.655   0.681  29.154  0.00  0.00     0.021 A 
ATOM      8  C   UNL d   1      60.397  -0.246  28.455  0.00  0.00     0.002 A 
ATOM      9  C   UNL d   1      60.226   0.527  28.668  0.00  0.00     0.002 A 
ENDROOT
BRANCH   1  10
ATOM     10  C   UNL d   1      58.691  -1.956  29.706  0.00  0.00     0.088 C 
BRANCH  10  11
ATOM     11  C   UNL d   1      58.928  -2.476  29.128  0.00  0.00     0.052 C 
ATOM     12  C   UNL d   1      58.456  -2.559  28.456  0.00  0.00     0.009 C 
ATOM     13 BR   UNL d   1      59.611  -2.921  29.179  0.00  0.00    -0.048 Br
ENDBRANCH  10  11
ENDBRANCH   1  10
BRANCH   3  14
ATOM     14  C   UNL d   1      57.716  -0.994  30.601  0.00  0.00     0.037 C 
BRANCH  14  15
ATOM     15  C   UNL d   1      57.355  -0.479  31.137  0.00  0.00     0.003 C 
BRANCH  15  16
ATOM     16  C   UNL d   1      56.774  -0.759  31.651  0.00  0.00     0.000 C 
ATOM     17  C   UNL d   1      56.616  -0.355  32.352  0.00  0.00     0.000 C 
ENDBRANCH  15  16
ENDBRANCH  14  15
ENDBRANCH   3  14
TORSDOF 5
ENDMDL
MODEL 3
REMARK VINA RESULT:      -1.8      1.717      3.441
REMARK  5 active torsions:
REMARK  status: ('A' for Active; 'I' for Inactive)
REMARK    1  A    between atoms: C_6  and  N_1 
REMARK    2  A    between atoms: C_10  and  C_3 
REMARK    3  A    between atoms: C_7  and  C_6 
REMARK    4  A    between atoms: C_13  and  C_10 
REMARK    5  A    between atoms: C_14  and  C_13 
ROOT
ATOM      1  N   UNL d   1      58.736   0.573  30.453  0.00  0.00    -0.289 N 
ATOM      2  N   UNL d   1      58.865   0.640  31.791  0.00  0.00    -0.227 NA
ATOM      3  C   UNL d   1      58.302   0.594  31.156  0.00  0.00     0.148 A 
ATOM      4  C   UNL d   1      59.522   0.604  30.623  0.00  0.00     0.083 A 
ATOM      5  C   UNL d   1      59.603   0.646  31.467  0.00  0.00     0.099 A 
ATOM      6  C   UNL d   1      60.193   0.601  30.148  0.00  0.00     0.019 A 
ATOM      7  C   UNL d   1      60.378   0.682  31.754  0.00  0.00     0.021 A 
ATOM      8  C   UNL d   1      60.917   0.638  30.487  0.00  0.00     0.002 A 
ATOM      9  C   UNL d   1      60.995   0.678  31.302  0.00  0.00     0.002 A 
ENDROOT
BRANCH   1  10
ATOM     10  C   UNL d   1      58.284   0.530  29.810  0.00  0.00     0.088 C 
BRANCH  10  11
ATOM     11  C   UNL d   1      58.478   0.056  29.178  0.00  0.00     0.052 C 
ATOM     12  C   UNL d   1      58.411  -0.762  29.264  0.00  0.00     0.009 C 
ATOM     13 BR   UNL d   1      58.737   0.350  28.461  0.00  0.00    -0.048 Br
ENDBRANCH  10  11
ENDBRANCH   1  10
BRANCH   3  14
ATOM     14  C   UNL d   1      57.482   0.574  31.235  0.00  0.00     0.037 C 
BRANCH  14  15
ATOM     15  C   UNL d   1      57.138   0.658  31.981  0.00  0.00     0.003 C 
BRANCH  15  16
ATOM     16  C   UNL d   1      56.412   0.301  32.143  0.00  0.00     0.000 C 
ATOM     17  C   UNL d   1      55.879   0.665  32.655  0.00  0.00     0.000 C 
ENDBRANCH  15  16
ENDBRANCH  14  15
ENDBRANCH   3  14
TORSDOF 5
ENDMDL
MODEL 4
REMARK VINA RESULT:      -1.5      2.579      3.994
REMARK  5 active torsions:
REMARK  status: ('A' for Active; 'I' for Inactive)
REMARK    1  A    between atoms: C_6  and  N_1 
REMARK    2  A    between atoms: C_10  and  C_3 
REMARK    3  A    between atoms: C_7  and  C_6 
REMARK    4  A    between atoms: C_13  and  C_10 
REMARK    5  A    between atoms: C_14  and  C_13 
ROOT
ATOM      1  N   UNL d   1      56.847   0.027  32.570  0.00  0.00    -0.289 N 
ATOM      2  N   UNL d   1      56.635  -0.889  31.607  0.00  0.00    -0.227 NA
ATOM      3  C   UNL d   1      57.060  -0.178  31.799  0.00  0.00     0.148 A 
ATOM      4  C   UNL d   1      56.324  -0.513  32.855  0.00  0.00     0.083 A 
ATOM      5  C   UNL d   1      56.190  -1.091  32.247  0.00  0.00     0.099 A 
ATOM      6  C   UNL d   1      55.936  -0.583  33.577  0.00  0.00     0.019 A 
ATOM      7  C   UNL d   1      55.662  -1.698  32.437  0.00  0.00     0.021 A 
ATOM      8  C   UNL d   1      55.436  -1.195  33.699  0.00  0.00     0.002 A 
ATOM      9  C   UNL d   1      55.307  -1.753  33.112  0.00  0.00     0.002 A 
ENDROOT
BRANCH   1  10
ATOM     10  C   UNL d   1      57.201   0.682  32.827  0.00  0.00     0.088 C 
BRANCH  10  11
ATOM     11  C   UNL d   1      57.690   0.681  33.477  0.00  0.00     0.052 C 
ATOM     12  C   UNL d   1      58.506   0.681  33.356  0.00  0.00     0.009 C 
ATOM     13 BR   UNL d   1      57.412   0.680  34.245  0.00  0.00    -0.048 Br
ENDBRANCH  10  11
ENDBRANCH   1  10
BRANCH   3  14
ATOM     14  C   UNL d   1      57.581   0.223  31.303  0.00  0.00     0.037 C 
BRANCH  14  15
ATOM     15  C   UNL d   1      57.667  -0.013  30.516  0.00  0.00     0.003 C 
BRANCH  15  16
ATOM     16  C   UNL d   1      58.194   0.385  30.021  0.00  0.00     0.000 C 
ATOM     17  C   UNL d   1      58.492   0.011  29.350  0.00  0.00     0.000 C 
ENDBRANCH  15  16
ENDBRANCH  14  15
ENDBRANCH   3  14
TORSDOF 5
ENDMDL
MODEL 5
REMARK VINA RESULT:      -1.4      3.049      4.619
REMARK  5 active torsions:
REMARK  status: ('A' for Active; 'I' for Inactive)
REMARK    1  A    between atoms: C_6  and  N_1 
REMARK    2  A    between atoms: C_10  and  C_3 
REMARK    3  A    between atoms: C_7  and  C_6 
REMARK    4  A    between atoms: C_13  and  C_10 
REMARK    5  A    between atoms: C_14  and  C_13 
ROOT
ATOM      1  N   UNL d   1      56.742   0.320  32.865  0.00  0.00    -0.289 N 
ATOM      2  N   UNL d   1      58.057   0.509  32.650  0.00  0.00    -0.227 NA
ATOM      3  C   UNL d   1      57.311   0.364  32.268  0.00  0.00     0.148 A 
ATOM      4  C   UNL d   1      57.095   0.428  33.580  0.00  0.00     0.083 A 
ATOM      5  C   UNL d   1      57.924   0.547  33.444  0.00  0.00     0.099 A 
ATOM      6  C   UNL d   1      56.801   0.439  34.348  0.00  0.00     0.019 A 
ATOM      7  C   UNL d   1      58.387   0.669  34.119  0.00  0.00     0.021 A 
ATOM      8  C   UNL d   1      57.301   0.563  34.960  0.00  0.00     0.002 A 
ATOM      9  C   UNL d   1      58.103   0.678  34.829  0.00  0.00     0.002 A 
ENDROOT
BRANCH   1  10
ATOM     10  C   UNL d   1      56.015   0.187  32.592  0.00  0.00     0.088 C 
BRANCH  10  11
ATOM     11  C   UNL d   1      55.460  -0.219  33.027  0.00  0.00     0.052 C 
ATOM     12  C   UNL d   1      55.458  -1.043  32.992  0.00  0.00     0.009 C 
ATOM     13 BR   UNL d   1      54.903   0.151  33.496  0.00  0.00    -0.048 Br
ENDBRANCH  10  11
ENDBRANCH   1  10
BRANCH   3  14
ATOM     14  C   UNL d   1      57.190   0.285  31.457  0.00  0.00     0.037 C 
BRANCH  14  15
ATOM     15  C   UNL d   1      57.802   0.454  30.930  0.00  0.00     0.003 C 
BRANCH  15  16
ATOM     16  C   UNL d   1      57.765   0.179  30.153  0.00  0.00     0.000 C 
ATOM     17  C   UNL d   1      57.996   0.669  29.531  0.00  0.00     0.000 C 
ENDBRANCH  15  16
ENDBRANCH  14  15
ENDBRANCH   3  14
TORSDOF 5
ENDMDL
MODEL 6
REMARK VINA RESULT:      -1.4      1.085      2.296
REMARK  5 active torsions:
REMARK  status: ('A' for Active; 'I' for Inactive)
REMARK    1  A    between atoms: C_6  and  N_1 
REMARK    2  A    between atoms: C_10  and  C_3 
REMARK    3  A    between atoms: C_7  and  C_6 
REMARK    4  A    between atoms: C_13  and  C_10 
REMARK    5  A    between atoms: C_14  and  C_13 
ROOT
ATOM      1  N   UNL d   1      59.153  -0.859  29.472  0.00  0.00    -0.289 N 
ATOM      2  N   UNL d   1      59.869  -1.399  28.468  0.00  0.00    -0.227 NA
ATOM      3  C   UNL d   1      59.178  -1.500  28.953  0.00  0.00     0.148 A 
ATOM      4  C   UNL d   1      59.783  -0.378  29.333  0.00  0.00     0.083 A 
ATOM      5  C   UNL d   1      60.235  -0.719  28.700  0.00  0.00     0.099 A 
ATOM      6  C   UNL d   1      60.032   0.325  29.678  0.00  0.00     0.019 A 
ATOM      7  C   UNL d   1      60.912  -0.302  28.473  0.00  0.00     0.021 A 
ATOM      8  C   UNL d   1      60.697   0.682  29.413  0.00  0.00     0.002 A 
ATOM      9  C   UNL d   1      61.133   0.353  28.802  0.00  0.00     0.002 A 
ENDROOT
BRANCH   1  10
ATOM     10  C   UNL d   1      58.536  -0.877  29.960  0.00  0.00     0.088 C 
BRANCH  10  11
ATOM     11  C   UNL d   1      58.062  -0.227  30.080  0.00  0.00     0.052 C 
ATOM     12  C   UNL d   1      57.764   0.169  29.420  0.00  0.00     0.009 C 
ATOM     13 BR   UNL d   1      57.866   0.053  30.822  0.00  0.00    -0.048 Br
ENDBRANCH  10  11
ENDBRANCH   1  10
BRANCH   3  14
ATOM     14  C   UNL d   1      58.641  -2.124  28.905  0.00  0.00     0.037 C 
BRANCH  14  15
ATOM     15  C   UNL d   1      58.908  -2.887  28.741  0.00  0.00     0.003 C 
BRANCH  15  16
ATOM     16  C   UNL d   1      58.424  -3.537  28.897  0.00  0.00     0.000 C 
ATOM     17  C   UNL d   1      58.506  -4.228  28.455  0.00  0.00     0.000 C 
ENDBRANCH  15  16
ENDBRANCH  14  15
ENDBRANCH   3  14
TORSDOF 5
ENDMDL
MODEL 7
REMARK VINA RESULT:       0.6      2.004      3.663
REMARK  5 active torsions:
REMARK  status: ('A' for Active; 'I' for Inactive)
REMARK    1  A    between atoms: C_6  and  N_1 
REMARK    2  A    between atoms: C_10  and  C_3 
REMARK    3  A    between atoms: C_7  and  C_6 
REMARK    4  A    between atoms: C_13  and  C_10 
REMARK    5  A    between atoms: C_14  and  C_13 
ROOT
ATOM      1  N   UNL d   1      57.683   0.043  31.430  0.00  0.00    -0.289 N 
ATOM      2  N   UNL d   1      57.028  -1.096  31.137  0.00  0.00    -0.227 NA
ATOM      3  C   UNL d   1      57.058  -0.439  31.676  0.00  0.00     0.148 A 
ATOM      4  C   UNL d   1      58.030  -0.280  30.780  0.00  0.00     0.083 A 
ATOM      5  C   UNL d   1      57.616  -0.998  30.596  0.00  0.00     0.099 A 
ATOM      6  C   UNL d   1      58.663  -0.042  30.313  0.00  0.00     0.019 A 
ATOM      7  C   UNL d   1      57.894  -1.415  29.938  0.00  0.00     0.021 A 
ATOM      8  C   UNL d   1      58.884  -0.490  29.688  0.00  0.00     0.002 A 
ATOM      9  C   UNL d   1      58.485  -1.184  29.510  0.00  0.00     0.002 A 
ENDROOT
BRANCH   1  10
ATOM     10  C   UNL d   1      57.780   0.681  31.881  0.00  0.00     0.088 C 
BRANCH  10  11
ATOM     11  C   UNL d   1      58.266   0.677  32.534  0.00  0.00     0.052 C 
ATOM     12  C   UNL d   1      59.082   0.682  32.416  0.00  0.00     0.009 C 
ATOM     13 BR   UNL d   1      57.984   0.670  33.301  0.00  0.00    -0.048 Br
ENDBRANCH  10  11
ENDBRANCH   1  10
BRANCH   3  14
ATOM     14  C   UNL d   1      56.557  -0.315  32.317  0.00  0.00     0.037 C 
BRANCH  14  15
ATOM     15  C   UNL d   1      55.976  -0.873  32.501  0.00  0.00     0.003 C 
BRANCH  15  16
ATOM     16  C   UNL d   1      55.447  -0.730  33.118  0.00  0.00     0.000 C 
ATOM     17  C   UNL d   1      55.130  -1.361  33.543  0.00  0.00     0.000 C 
ENDBRANCH  15  16
ENDBRANCH  14  15
ENDBRANCH   3  14
TORSDOF 5
ENDMDL
