MODEL 1
REMARK VINA RESULT:      58.9      0.000      0.000
REMARK  4 active torsions:
REMARK  status: ('A' for Active; 'I' for Inactive)
REMARK    1  A    between atoms: S_5  and  C_2 
REMARK    2  A    between atoms: C_16  and  S_5 
REMARK    3  A    between atoms: N_11  and  C_8 
REMARK    4  A    between atoms: C_12  and  N_11 
ROOT
ATOM      1  C   UNL d   1      46.073 -17.507  43.653  0.00  0.00     0.197 A 
ATOM      2  C   UNL d   1      45.905 -16.914  44.206  0.00  0.00     0.227 A 
ATOM      3  N   UNL d   1      46.143 -18.222  44.063  0.00  0.00    -0.192 N 
ATOM      4  N   UNL d   1      46.171 -17.492  42.834  0.00  0.00    -0.206 NA
ATOM      5  N   UNL d   1      45.871 -17.261  44.955  0.00  0.00    -0.115 NA
ATOM      6  N   UNL d   1      46.019 -18.073  44.869  0.00  0.00    -0.058 NA
ATOM      7  C   UNL d   1      46.339 -18.191  42.420  0.00  0.00     0.166 A 
ATOM      8  C   UNL d   1      46.408 -18.901  42.835  0.00  0.00     0.054 A 
ATOM      9  C   UNL d   1      46.312 -18.925  43.654  0.00  0.00     0.089 A 
ATOM     10  C   UNL d   1      46.577 -19.604  42.426  0.00  0.00     0.005 A 
ATOM     11  C   UNL d   1      46.381 -19.635  44.064  0.00  0.00     0.019 A 
ATOM     12  C   UNL d   1      46.646 -20.314  42.837  0.00  0.00     0.000 A 
ATOM     13  C   UNL d   1      46.548 -20.330  43.656  0.00  0.00     0.002 A 
ENDROOT
BRANCH   2  14
ATOM     14  S   UNL d   1      45.791 -16.114  44.035  0.00  0.00     0.231 S 
ATOM     15  O   UNL d   1      45.001 -16.155  44.262  0.00  0.00    -0.215 OA
ATOM     16  O   UNL d   1      46.582 -16.076  43.809  0.00  0.00    -0.215 OA
BRANCH  14  17
ATOM     17  C   UNL d   1      45.719 -15.317  43.854  0.00  0.00     0.090 A 
ATOM     18  C   UNL d   1      45.203 -14.844  44.292  0.00  0.00     0.011 A 
ATOM     19  C   UNL d   1      45.128 -14.049  44.116  0.00  0.00     0.001 A 
ATOM     20  C   UNL d   1      45.568 -13.717  43.499  0.00  0.00     0.000 A 
ATOM     21  C   UNL d   1      46.084 -14.194  43.062  0.00  0.00     0.001 A 
ATOM     22  C   UNL d   1      46.156 -14.987  43.241  0.00  0.00     0.011 A 
ENDBRANCH  14  17
ENDBRANCH   2  14
BRANCH   7  23
ATOM     23  N   UNL d   1      46.437 -18.176  41.601  0.00  0.00    -0.227 NA
BRANCH  23  24
ATOM     24  C   UNL d   1      45.788 -18.054  41.111  0.00  0.00     0.083 A 
ATOM     25  C   UNL d   1      45.890 -17.709  40.368  0.00  0.00     0.018 A 
ATOM     26  C   UNL d   1      45.240 -17.587  39.877  0.00  0.00     0.002 A 
ATOM     27  C   UNL d   1      46.646 -17.486  40.117  0.00  0.00     0.002 C 
ATOM     28  C   UNL d   1      45.342 -17.243  39.134  0.00  0.00     0.000 C 
ATOM     29  C   UNL d   1      44.481 -17.810  40.127  0.00  0.00     0.000 A 
ATOM     30  C   UNL d   1      44.387 -18.156  40.876  0.00  0.00     0.002 A 
ATOM     31  C   UNL d   1      45.036 -18.276  41.362  0.00  0.00     0.019 A 
ENDBRANCH  23  24
ENDBRANCH   7  23
TORSDOF 4
ENDMDL
