MODEL 1
REMARK VINA RESULT:      -5.2      0.000      0.000
REMARK  5 active torsions:
REMARK  status: ('A' for Active; 'I' for Inactive)
REMARK    1  A    between atoms: C_7  and  N_2 
REMARK    2  A    between atoms: C_6  and  C_8 
REMARK       I    between atoms: N_9  and  C_6 
REMARK    3  A    between atoms: C_8  and  C_7 
REMARK    4  A    between atoms: C_11  and  N_9 
REMARK    5  A    between atoms: C_13  and  C_11 
ROOT
ATOM      1  C   UNL d   1      58.425   0.127  30.424  0.00  0.00     0.080 C 
ENDROOT
BRANCH   1   2
ATOM      2  C   UNL d   1      57.669   0.372  30.642  0.00  0.00     0.266 C 
ATOM      3  N   UNL d   1      57.439   0.366  31.431  0.00  0.00    -0.270 N 
ATOM      4  C   UNL d   1      57.973   0.111  32.014  0.00  0.00     0.102 C 
ATOM      5  O   UNL d   1      57.137   0.625  30.063  0.00  0.00    -0.267 OA
BRANCH   3   6
ATOM      6  C   UNL d   1      56.687   0.610  31.645  0.00  0.00     0.083 C 
BRANCH   6   7
ATOM      7  C   UNL d   1      56.287   0.236  32.258  0.00  0.00     0.018 A 
ATOM      8  C   UNL d   1      56.257  -0.590  32.302  0.00  0.00     0.002 A 
ATOM      9  C   UNL d   1      55.858  -0.965  32.914  0.00  0.00     0.000 A 
ATOM     10  C   UNL d   1      55.483  -0.521  33.492  0.00  0.00     0.000 A 
ATOM     11  C   UNL d   1      55.508   0.303  33.455  0.00  0.00     0.000 A 
ATOM     12  C   UNL d   1      55.914   0.682  32.833  0.00  0.00     0.002 A 
ENDBRANCH   6   7
ENDBRANCH   3   6
ENDBRANCH   1   2
BRANCH   1  13
ATOM     13  C   UNL d   1      58.597  -0.050  29.640  0.00  0.00     0.090 C 
BRANCH  13  14
ATOM     14  N   UNL d   1      59.300  -0.433  29.445  0.00  0.00    -0.251 N 
ATOM     15  C   UNL d   1      60.051  -0.098  29.447  0.00  0.00     0.378 A 
ATOM     16  O   UNL d   1      60.534  -0.721  29.211  0.00  0.00    -0.258 OA
ATOM     17  O   UNL d   1      60.232   0.682  29.645  0.00  0.00    -0.237 OA
ATOM     18  C   UNL d   1      60.169  -1.373  29.072  0.00  0.00     0.121 A 
ATOM     19  C   UNL d   1      60.412  -2.127  28.829  0.00  0.00     0.026 A 
ATOM     20  C   UNL d   1      59.370  -1.223  29.213  0.00  0.00     0.092 A 
ATOM     21  C   UNL d   1      59.852  -2.732  28.727  0.00  0.00     0.002 A 
ATOM     22  C   UNL d   1      59.055  -2.570  28.872  0.00  0.00     0.002 A 
ATOM     23  C   UNL d   1      58.817  -1.816  29.114  0.00  0.00     0.020 A 
ENDBRANCH  13  14
ENDBRANCH   1  13
TORSDOF 5
ENDMDL
MODEL 2
REMARK VINA RESULT:      -3.7      1.306      4.950
REMARK  5 active torsions:
REMARK  status: ('A' for Active; 'I' for Inactive)
REMARK    1  A    between atoms: C_7  and  N_2 
REMARK    2  A    between atoms: C_6  and  C_8 
REMARK       I    between atoms: N_9  and  C_6 
REMARK    3  A    between atoms: C_8  and  C_7 
REMARK    4  A    between atoms: C_11  and  N_9 
REMARK    5  A    between atoms: C_13  and  C_11 
ROOT
ATOM      1  C   UNL d   1      57.559  -0.038  31.365  0.00  0.00     0.080 C 
ENDROOT
BRANCH   1   2
ATOM      2  C   UNL d   1      57.763  -0.019  30.566  0.00  0.00     0.266 C 
ATOM      3  N   UNL d   1      58.049  -0.692  30.193  0.00  0.00    -0.270 N 
ATOM      4  C   UNL d   1      58.134  -1.399  30.623  0.00  0.00     0.102 C 
ATOM      5  O   UNL d   1      57.679   0.682  30.137  0.00  0.00    -0.267 OA
BRANCH   3   6
ATOM      6  C   UNL d   1      58.252  -0.672  29.399  0.00  0.00     0.083 C 
BRANCH   6   7
ATOM      7  C   UNL d   1      58.835  -1.171  29.106  0.00  0.00     0.018 A 
ATOM      8  C   UNL d   1      59.608  -0.897  28.989  0.00  0.00     0.002 A 
ATOM      9  C   UNL d   1      60.192  -1.395  28.696  0.00  0.00     0.000 A 
ATOM     10  C   UNL d   1      60.013  -2.174  28.515  0.00  0.00     0.000 A 
ATOM     11  C   UNL d   1      59.246  -2.455  28.628  0.00  0.00     0.000 A 
ATOM     12  C   UNL d   1      58.654  -1.947  28.926  0.00  0.00     0.002 A 
ENDBRANCH   6   7
ENDBRANCH   3   6
ENDBRANCH   1   2
BRANCH   1  13
ATOM     13  C   UNL d   1      57.278   0.637  31.740  0.00  0.00     0.090 C 
BRANCH  13  14
ATOM     14  N   UNL d   1      57.180   0.649  32.557  0.00  0.00    -0.251 N 
ATOM     15  C   UNL d   1      57.782   0.669  33.117  0.00  0.00     0.378 A 
ATOM     16  O   UNL d   1      57.374   0.673  33.831  0.00  0.00    -0.258 OA
ATOM     17  O   UNL d   1      58.592   0.682  32.956  0.00  0.00    -0.237 OA
ATOM     18  C   UNL d   1      56.617   0.658  33.766  0.00  0.00     0.121 A 
ATOM     19  C   UNL d   1      55.993   0.656  34.311  0.00  0.00     0.026 A 
ATOM     20  C   UNL d   1      56.457   0.642  32.956  0.00  0.00     0.092 A 
ATOM     21  C   UNL d   1      55.207   0.637  34.044  0.00  0.00     0.002 A 
ATOM     22  C   UNL d   1      55.059   0.621  33.232  0.00  0.00     0.002 A 
ATOM     23  C   UNL d   1      55.684   0.623  32.691  0.00  0.00     0.020 A 
ENDBRANCH  13  14
ENDBRANCH   1  13
TORSDOF 5
ENDMDL
