MODEL 1
REMARK VINA RESULT:      -7.2      0.000      0.000
REMARK  7 active torsions:
REMARK  status: ('A' for Active; 'I' for Inactive)
REMARK    1  A    between atoms: C_13  and  N_1 
REMARK    2  A    between atoms: C_2  and  N_6 
REMARK    3  A    between atoms: C_9  and  C_5 
REMARK       I    between atoms: N_6  and  C_9 
REMARK    4  A    between atoms: S_14  and  C_7 
REMARK    5  A    between atoms: C_21  and  S_14 
REMARK    6  A    between atoms: C_15  and  C_21 
REMARK    7  A    between atoms: O_25  and  C_15 
ROOT
ATOM      1  N   UNL d   1     -45.205  13.065  21.900  0.00  0.00    -0.181 NA
ATOM      2  C   UNL d   1     -45.582  12.905  22.563  0.00  0.00     0.283 C 
ATOM      3  O   UNL d   1     -45.212  12.542  23.143  0.00  0.00    -0.265 OA
ENDROOT
BRANCH   2   4
ATOM      4  C   UNL d   1     -46.326  13.109  22.643  0.00  0.00     0.080 A 
ATOM      5  C   UNL d   1     -46.943  12.650  22.541  0.00  0.00     0.088 A 
ATOM      6  N   UNL d   1     -47.582  13.073  22.676  0.00  0.00    -0.273 N 
ATOM      7  C   UNL d   1     -47.360  13.788  22.861  0.00  0.00     0.265 A 
ATOM      8  C   UNL d   1     -46.579  13.817  22.842  0.00  0.00     0.067 A 
ATOM      9  O   UNL d   1     -47.833  14.386  23.038  0.00  0.00    -0.267 OA
BRANCH   6  10
ATOM     10  C   UNL d   1     -48.372  12.794  22.628  0.00  0.00     0.067 A 
ATOM     11  C   UNL d   1     -48.790  12.865  21.910  0.00  0.00     0.020 A 
ATOM     12  C   UNL d   1     -49.578  12.585  21.872  0.00  0.00     0.031 A 
ATOM     13  C   UNL d   1     -49.939  12.243  22.533  0.00  0.00     0.140 A 
ATOM     14  C   UNL d   1     -49.513  12.175  23.253  0.00  0.00     0.031 A 
ATOM     15  F   UNL d   1     -50.732  11.961  22.492  0.00  0.00    -0.204 F 
ATOM     16  C   UNL d   1     -48.738  12.448  23.299  0.00  0.00     0.020 A 
ENDBRANCH   6  10
ENDBRANCH   2   4
BRANCH   1  17
ATOM     17  C   UNL d   1     -44.460  12.863  21.816  0.00  0.00     0.219 A 
ATOM     18  S   UNL d   1     -43.911  13.273  21.446  0.00  0.00    -0.019 SA
ATOM     19  C   UNL d   1     -43.250  12.881  21.488  0.00  0.00     0.165 A 
ATOM     20  N   UNL d   1     -43.372  12.222  21.884  0.00  0.00    -0.133 NA
ATOM     21  N   UNL d   1     -44.134  12.211  22.090  0.00  0.00    -0.120 NA
BRANCH  19  22
ATOM     22  S   UNL d   1     -41.882  13.591  20.737  0.00  0.00    -0.053 SA
BRANCH  22  23
ATOM     23  C   UNL d   1     -41.400  14.124  21.163  0.00  0.00     0.106 C 
BRANCH  23  24
ATOM     24  C   UNL d   1     -40.915  14.679  20.750  0.00  0.00     0.303 C 
ATOM     25  O   UNL d   1     -40.529  14.460  20.043  0.00  0.00    -0.259 OA
BRANCH  24  26
ATOM     26  O   UNL d   1     -40.829  15.456  21.069  0.00  0.00    -0.295 OA
ATOM     27  C   UNL d   1     -40.093  15.841  20.991  0.00  0.00     0.185 C 
ENDBRANCH  24  26
ENDBRANCH  23  24
ENDBRANCH  22  23
ENDBRANCH  19  22
ENDBRANCH   1  17
TORSDOF 7
ENDMDL
MODEL 2
REMARK VINA RESULT:      -5.4      3.128      7.327
REMARK  7 active torsions:
REMARK  status: ('A' for Active; 'I' for Inactive)
REMARK    1  A    between atoms: C_13  and  N_1 
REMARK    2  A    between atoms: C_2  and  N_6 
REMARK    3  A    between atoms: C_9  and  C_5 
REMARK       I    between atoms: N_6  and  C_9 
REMARK    4  A    between atoms: S_14  and  C_7 
REMARK    5  A    between atoms: C_21  and  S_14 
REMARK    6  A    between atoms: C_15  and  C_21 
REMARK    7  A    between atoms: O_25  and  C_15 
ROOT
ATOM      1  N   UNL d   1     -42.566  13.376  20.786  0.00  0.00    -0.181 NA
ATOM      2  C   UNL d   1     -41.889  13.635  21.073  0.00  0.00     0.283 C 
ATOM      3  O   UNL d   1     -41.717  13.523  21.824  0.00  0.00    -0.265 OA
ENDROOT
BRANCH   2   4
ATOM      4  C   UNL d   1     -41.388  14.003  20.609  0.00  0.00     0.080 A 
ATOM      5  C   UNL d   1     -41.227  13.825  19.872  0.00  0.00     0.088 A 
ATOM      6  N   UNL d   1     -40.696  14.331  19.613  0.00  0.00    -0.273 N 
ATOM      7  C   UNL d   1     -40.531  14.819  20.188  0.00  0.00     0.265 A 
ATOM      8  C   UNL d   1     -40.959  14.619  20.811  0.00  0.00     0.067 A 
ATOM      9  O   UNL d   1     -40.023  15.413  20.156  0.00  0.00    -0.267 OA
BRANCH   6  10
ATOM     10  C   UNL d   1     -40.364  14.342  18.842  0.00  0.00     0.067 A 
ATOM     11  C   UNL d   1     -39.666  13.912  18.690  0.00  0.00     0.020 A 
ATOM     12  C   UNL d   1     -39.343  13.928  17.918  0.00  0.00     0.031 A 
ATOM     13  C   UNL d   1     -39.706  14.362  17.315  0.00  0.00     0.140 A 
ATOM     14  C   UNL d   1     -40.407  14.793  17.475  0.00  0.00     0.031 A 
ATOM     15  F   UNL d   1     -39.377  14.377  16.539  0.00  0.00    -0.204 F 
ATOM     16  C   UNL d   1     -40.733  14.782  18.231  0.00  0.00     0.020 A 
ENDBRANCH   6  10
ENDBRANCH   2   4
BRANCH   1  17
ATOM     17  C   UNL d   1     -43.070  13.008  21.248  0.00  0.00     0.219 A 
ATOM     18  S   UNL d   1     -43.787  13.249  21.431  0.00  0.00    -0.019 SA
ATOM     19  C   UNL d   1     -44.103  12.727  21.900  0.00  0.00     0.165 A 
ATOM     20  N   UNL d   1     -43.592  12.151  22.018  0.00  0.00    -0.133 NA
ATOM     21  N   UNL d   1     -42.942  12.328  21.607  0.00  0.00    -0.120 NA
BRANCH  19  22
ATOM     22  S   UNL d   1     -45.698  13.043  22.445  0.00  0.00    -0.053 SA
BRANCH  22  23
ATOM     23  C   UNL d   1     -46.078  12.506  22.959  0.00  0.00     0.106 C 
BRANCH  23  24
ATOM     24  C   UNL d   1     -46.872  12.651  23.211  0.00  0.00     0.303 C 
ATOM     25  O   UNL d   1     -47.258  13.362  23.006  0.00  0.00    -0.259 OA
BRANCH  24  26
ATOM     26  O   UNL d   1     -47.263  12.062  23.672  0.00  0.00    -0.295 OA
ATOM     27  C   UNL d   1     -48.096  12.026  23.651  0.00  0.00     0.185 C 
ENDBRANCH  24  26
ENDBRANCH  23  24
ENDBRANCH  22  23
ENDBRANCH  19  22
ENDBRANCH   1  17
TORSDOF 7
ENDMDL
MODEL 3
REMARK VINA RESULT:      -4.3      2.776      6.886
REMARK  7 active torsions:
REMARK  status: ('A' for Active; 'I' for Inactive)
REMARK    1  A    between atoms: C_13  and  N_1 
REMARK    2  A    between atoms: C_2  and  N_6 
REMARK    3  A    between atoms: C_9  and  C_5 
REMARK       I    between atoms: N_6  and  C_9 
REMARK    4  A    between atoms: S_14  and  C_7 
REMARK    5  A    between atoms: C_21  and  S_14 
REMARK    6  A    between atoms: C_15  and  C_21 
REMARK    7  A    between atoms: O_25  and  C_15 
ROOT
ATOM      1  N   UNL d   1     -44.108  13.318  21.775  0.00  0.00    -0.181 NA
ATOM      2  C   UNL d   1     -43.469  12.891  21.643  0.00  0.00     0.283 C 
ATOM      3  O   UNL d   1     -43.435  12.156  21.896  0.00  0.00    -0.265 OA
ENDROOT
BRANCH   2   4
ATOM      4  C   UNL d   1     -42.869  13.201  21.262  0.00  0.00     0.080 A 
ATOM      5  C   UNL d   1     -42.346  13.696  21.549  0.00  0.00     0.088 A 
ATOM      6  N   UNL d   1     -41.841  13.867  20.983  0.00  0.00    -0.273 N 
ATOM      7  C   UNL d   1     -42.051  13.479  20.350  0.00  0.00     0.265 A 
ATOM      8  C   UNL d   1     -42.691  13.062  20.518  0.00  0.00     0.067 A 
ATOM      9  O   UNL d   1     -41.688  13.498  19.657  0.00  0.00    -0.267 OA
BRANCH   6  10
ATOM     10  C   UNL d   1     -41.183  14.384  21.054  0.00  0.00     0.067 A 
ATOM     11  C   UNL d   1     -41.281  15.197  20.899  0.00  0.00     0.020 A 
ATOM     12  C   UNL d   1     -40.620  15.705  20.972  0.00  0.00     0.031 A 
ATOM     13  C   UNL d   1     -39.880  15.408  21.193  0.00  0.00     0.140 A 
ATOM     14  C   UNL d   1     -39.788  14.589  21.347  0.00  0.00     0.031 A 
ATOM     15  F   UNL d   1     -39.215  15.922  21.266  0.00  0.00    -0.204 F 
ATOM     16  C   UNL d   1     -40.433  14.082  21.278  0.00  0.00     0.020 A 
ENDBRANCH   6  10
ENDBRANCH   2   4
BRANCH   1  17
ATOM     17  C   UNL d   1     -44.711  13.012  22.156  0.00  0.00     0.219 A 
ATOM     18  S   UNL d   1     -45.447  13.265  22.132  0.00  0.00    -0.019 SA
ATOM     19  C   UNL d   1     -45.871  12.811  22.587  0.00  0.00     0.165 A 
ATOM     20  N   UNL d   1     -45.410  12.268  22.902  0.00  0.00    -0.133 NA
ATOM     21  N   UNL d   1     -44.680  12.395  22.631  0.00  0.00    -0.120 NA
BRANCH  19  22
ATOM     22  S   UNL d   1     -47.543  13.175  22.697  0.00  0.00    -0.053 SA
BRANCH  22  23
ATOM     23  C   UNL d   1     -48.042  13.051  22.040  0.00  0.00     0.106 C 
BRANCH  23  24
ATOM     24  C   UNL d   1     -48.876  13.167  22.114  0.00  0.00     0.303 C 
ATOM     25  O   UNL d   1     -49.251  13.088  22.856  0.00  0.00    -0.259 OA
BRANCH  24  26
ATOM     26  O   UNL d   1     -49.319  13.364  21.422  0.00  0.00    -0.295 OA
ATOM     27  C   UNL d   1     -50.152  13.366  21.469  0.00  0.00     0.185 C 
ENDBRANCH  24  26
ENDBRANCH  23  24
ENDBRANCH  22  23
ENDBRANCH  19  22
ENDBRANCH   1  17
TORSDOF 7
ENDMDL
