MODEL 1
REMARK VINA RESULT:      -9.1      0.000      0.000
REMARK  5 active torsions:
REMARK  status: ('A' for Active; 'I' for Inactive)
REMARK    1  A    between atoms: S_8  and  C_2 
REMARK    2  A    between atoms: C_4  and  C_3 
REMARK    3  A    between atoms: C_18  and  S_8 
REMARK    4  A    between atoms: C_9  and  C_18 
REMARK       I    between atoms: N_11  and  C_9 
REMARK    5  A    between atoms: C_13  and  N_11 
ROOT
ATOM      1  C   UNL d   1      52.880  33.830  53.893  0.00  0.00     0.096 A 
ATOM      2  C   UNL d   1      53.228  33.053  53.835  0.00  0.00     0.120 A 
ATOM      3  C   UNL d   1      53.250  34.415  54.360  0.00  0.00     0.085 A 
ATOM      4  N   UNL d   1      53.926  32.903  54.248  0.00  0.00    -0.238 NA
ATOM      5  C   UNL d   1      52.192  34.013  53.499  0.00  0.00     0.103 C 
ATOM      6  N   UNL d   1      51.502  34.196  53.103  0.00  0.00    -0.191 NA
ATOM      7  C   UNL d   1      53.956  34.246  54.771  0.00  0.00     0.024 A 
ATOM      8  C   UNL d   1      54.303  33.469  54.713  0.00  0.00     0.082 A 
ATOM      9  C   UNL d   1      54.982  33.282  55.099  0.00  0.00     0.021 C 
ENDROOT
BRANCH   2  10
ATOM     10  S   UNL d   1      52.850  32.487  53.370  0.00  0.00    -0.062 SA
BRANCH  10  11
ATOM     11  C   UNL d   1      53.055  31.695  53.422  0.00  0.00     0.099 C 
BRANCH  11  12
ATOM     12  C   UNL d   1      52.876  31.186  52.793  0.00  0.00     0.281 C 
ATOM     13  N   UNL d   1      52.901  30.384  52.909  0.00  0.00    -0.238 NA
ATOM     14  O   UNL d   1      52.672  31.501  52.050  0.00  0.00    -0.265 OA
BRANCH  13  15
ATOM     15  C   UNL d   1      53.103  30.079  53.645  0.00  0.00     0.088 C 
ATOM     16  C   UNL d   1      53.303  29.768  54.398  0.00  0.00     0.025 C 
ATOM     17  C   UNL d   1      53.888  30.087  53.430  0.00  0.00     0.025 C 
ATOM     18  C   UNL d   1      52.321  30.078  53.843  0.00  0.00     0.025 C 
ENDBRANCH  13  15
ENDBRANCH  11  12
ENDBRANCH  10  11
ENDBRANCH   2  10
BRANCH   3  19
ATOM     19  C   UNL d   1      52.917  35.161  54.415  0.00  0.00     0.419 C 
ATOM     20  F   UNL d   1      52.586  35.901  54.470  0.00  0.00    -0.166 F 
ATOM     21  F   UNL d   1      53.294  35.381  53.715  0.00  0.00    -0.166 F 
ATOM     22  F   UNL d   1      52.538  34.939  55.116  0.00  0.00    -0.166 F 
ENDBRANCH   3  19
TORSDOF 5
ENDMDL
MODEL 2
REMARK VINA RESULT:      -8.7      1.782      3.265
REMARK  5 active torsions:
REMARK  status: ('A' for Active; 'I' for Inactive)
REMARK    1  A    between atoms: S_8  and  C_2 
REMARK    2  A    between atoms: C_4  and  C_3 
REMARK    3  A    between atoms: C_18  and  S_8 
REMARK    4  A    between atoms: C_9  and  C_18 
REMARK       I    between atoms: N_11  and  C_9 
REMARK    5  A    between atoms: C_13  and  N_11 
ROOT
ATOM      1  C   UNL d   1      53.700  33.520  54.288  0.00  0.00     0.096 A 
ATOM      2  C   UNL d   1      53.230  33.355  53.595  0.00  0.00     0.120 A 
ATOM      3  C   UNL d   1      54.121  32.902  54.658  0.00  0.00     0.085 A 
ATOM      4  N   UNL d   1      53.208  32.581  53.310  0.00  0.00    -0.238 NA
ATOM      5  C   UNL d   1      53.744  34.272  54.596  0.00  0.00     0.103 C 
ATOM      6  N   UNL d   1      53.788  35.026  54.905  0.00  0.00    -0.191 NA
ATOM      7  C   UNL d   1      54.088  32.125  54.357  0.00  0.00     0.024 A 
ATOM      8  C   UNL d   1      53.618  31.960  53.664  0.00  0.00     0.082 A 
ATOM      9  C   UNL d   1      53.570  31.221  53.355  0.00  0.00     0.021 C 
ENDROOT
BRANCH   2  10
ATOM     10  S   UNL d   1      52.820  33.977  53.242  0.00  0.00    -0.062 SA
BRANCH  10  11
ATOM     11  C   UNL d   1      52.056  33.871  52.963  0.00  0.00     0.099 C 
BRANCH  11  12
ATOM     12  C   UNL d   1      51.781  34.345  52.342  0.00  0.00     0.281 C 
ATOM     13  N   UNL d   1      50.982  34.446  52.240  0.00  0.00    -0.238 NA
ATOM     14  O   UNL d   1      52.324  34.712  51.828  0.00  0.00    -0.265 OA
BRANCH  13  15
ATOM     15  C   UNL d   1      50.452  34.082  52.750  0.00  0.00     0.088 C 
ATOM     16  C   UNL d   1      49.910  33.704  53.267  0.00  0.00     0.025 C 
ATOM     17  C   UNL d   1      50.442  34.750  53.214  0.00  0.00     0.025 C 
ATOM     18  C   UNL d   1      50.472  33.427  52.280  0.00  0.00     0.025 C 
ENDBRANCH  13  15
ENDBRANCH  11  12
ENDBRANCH  10  11
ENDBRANCH   2  10
BRANCH   3  19
ATOM     19  C   UNL d   1      54.572  33.060  55.323  0.00  0.00     0.419 C 
ATOM     20  F   UNL d   1      55.019  33.217  55.984  0.00  0.00    -0.166 F 
ATOM     21  F   UNL d   1      53.940  32.836  55.804  0.00  0.00    -0.166 F 
ATOM     22  F   UNL d   1      55.205  33.285  54.841  0.00  0.00    -0.166 F 
ENDBRANCH   3  19
TORSDOF 5
ENDMDL
MODEL 3
REMARK VINA RESULT:      -7.5      2.179      3.683
REMARK  5 active torsions:
REMARK  status: ('A' for Active; 'I' for Inactive)
REMARK    1  A    between atoms: S_8  and  C_2 
REMARK    2  A    between atoms: C_4  and  C_3 
REMARK    3  A    between atoms: C_18  and  S_8 
REMARK    4  A    between atoms: C_9  and  C_18 
REMARK       I    between atoms: N_11  and  C_9 
REMARK    5  A    between atoms: C_13  and  N_11 
ROOT
ATOM      1  C   UNL d   1      53.282  31.915  53.429  0.00  0.00     0.096 A 
ATOM      2  C   UNL d   1      53.222  32.765  53.477  0.00  0.00     0.120 A 
ATOM      3  C   UNL d   1      53.688  31.496  54.026  0.00  0.00     0.085 A 
ATOM      4  N   UNL d   1      53.571  33.148  54.119  0.00  0.00    -0.238 NA
ATOM      5  C   UNL d   1      52.950  31.504  52.810  0.00  0.00     0.103 C 
ATOM      6  N   UNL d   1      52.617  31.093  52.189  0.00  0.00    -0.191 NA
ATOM      7  C   UNL d   1      54.035  31.899  54.667  0.00  0.00     0.024 A 
ATOM      8  C   UNL d   1      53.974  32.749  54.715  0.00  0.00     0.082 A 
ATOM      9  C   UNL d   1      54.300  33.160  55.323  0.00  0.00     0.021 C 
ENDROOT
BRANCH   2  10
ATOM     10  S   UNL d   1      52.818  33.164  52.880  0.00  0.00    -0.062 SA
BRANCH  10  11
ATOM     11  C   UNL d   1      52.218  33.694  53.060  0.00  0.00     0.099 C 
BRANCH  11  12
ATOM     12  C   UNL d   1      52.124  34.374  52.596  0.00  0.00     0.281 C 
ATOM     13  N   UNL d   1      51.385  34.696  52.505  0.00  0.00    -0.238 NA
ATOM     14  O   UNL d   1      52.786  34.720  52.228  0.00  0.00    -0.265 OA
BRANCH  13  15
ATOM     15  C   UNL d   1      50.736  34.350  52.870  0.00  0.00     0.088 C 
ATOM     16  C   UNL d   1      50.072  33.993  53.237  0.00  0.00     0.025 C 
ATOM     17  C   UNL d   1      50.933  34.722  53.567  0.00  0.00     0.025 C 
ATOM     18  C   UNL d   1      50.554  33.988  52.173  0.00  0.00     0.025 C 
ENDBRANCH  13  15
ENDBRANCH  11  12
ENDBRANCH  10  11
ENDBRANCH   2  10
BRANCH   3  19
ATOM     19  C   UNL d   1      53.746  30.680  53.980  0.00  0.00     0.419 C 
ATOM     20  F   UNL d   1      53.804  29.870  53.934  0.00  0.00    -0.166 F 
ATOM     21  F   UNL d   1      53.076  30.606  54.455  0.00  0.00    -0.166 F 
ATOM     22  F   UNL d   1      54.418  30.755  53.503  0.00  0.00    -0.166 F 
ENDBRANCH   3  19
TORSDOF 5
ENDMDL
MODEL 4
REMARK VINA RESULT:      -6.7      1.916      3.064
REMARK  5 active torsions:
REMARK  status: ('A' for Active; 'I' for Inactive)
REMARK    1  A    between atoms: S_8  and  C_2 
REMARK    2  A    between atoms: C_4  and  C_3 
REMARK    3  A    between atoms: C_18  and  S_8 
REMARK    4  A    between atoms: C_9  and  C_18 
REMARK       I    between atoms: N_11  and  C_9 
REMARK    5  A    between atoms: C_13  and  N_11 
ROOT
ATOM      1  C   UNL d   1      51.996  33.806  53.010  0.00  0.00     0.096 A 
ATOM      2  C   UNL d   1      52.541  33.168  53.163  0.00  0.00     0.120 A 
ATOM      3  C   UNL d   1      51.181  33.644  52.940  0.00  0.00     0.085 A 
ATOM      4  N   UNL d   1      52.241  32.404  53.238  0.00  0.00    -0.238 NA
ATOM      5  C   UNL d   1      52.258  34.572  52.931  0.00  0.00     0.103 C 
ATOM      6  N   UNL d   1      52.520  35.341  52.851  0.00  0.00    -0.191 NA
ATOM      7  C   UNL d   1      50.894  32.865  53.018  0.00  0.00     0.024 A 
ATOM      8  C   UNL d   1      51.439  32.228  53.172  0.00  0.00     0.082 A 
ATOM      9  C   UNL d   1      51.188  31.469  53.251  0.00  0.00     0.021 C 
ENDROOT
BRANCH   2  10
ATOM     10  S   UNL d   1      53.344  33.345  53.230  0.00  0.00    -0.062 SA
BRANCH  10  11
ATOM     11  C   UNL d   1      53.766  33.137  53.902  0.00  0.00     0.099 C 
BRANCH  11  12
ATOM     12  C   UNL d   1      54.570  32.950  53.835  0.00  0.00     0.281 C 
ATOM     13  N   UNL d   1      55.056  33.041  54.478  0.00  0.00    -0.238 NA
ATOM     14  O   UNL d   1      54.873  32.671  53.111  0.00  0.00    -0.265 OA
BRANCH  13  15
ATOM     15  C   UNL d   1      54.752  33.317  55.190  0.00  0.00     0.088 C 
ATOM     16  C   UNL d   1      54.444  33.604  55.915  0.00  0.00     0.025 C 
ATOM     17  C   UNL d   1      54.416  32.588  55.326  0.00  0.00     0.025 C 
ATOM     18  C   UNL d   1      55.090  34.033  55.040  0.00  0.00     0.025 C 
ENDBRANCH  13  15
ENDBRANCH  11  12
ENDBRANCH  10  11
ENDBRANCH   2  10
BRANCH   3  19
ATOM     19  C   UNL d   1      50.657  34.256  52.793  0.00  0.00     0.419 C 
ATOM     20  F   UNL d   1      50.137  34.864  52.647  0.00  0.00    -0.166 F 
ATOM     21  F   UNL d   1      50.529  34.342  53.603  0.00  0.00    -0.166 F 
ATOM     22  F   UNL d   1      50.785  34.170  51.980  0.00  0.00    -0.166 F 
ENDBRANCH   3  19
TORSDOF 5
ENDMDL
