MODEL 1
REMARK VINA RESULT:      43.7      0.000      0.000
REMARK  3 active torsions:
REMARK  status: ('A' for Active; 'I' for Inactive)
REMARK    1  A    between atoms: N_4  and  C_1 
REMARK    2  A    between atoms: C_11  and  C_3 
REMARK       I    between atoms: C_5  and  N_4 
REMARK    3  A    between atoms: C_8  and  C_5 
ROOT
ATOM      1  N   UNL d   1      13.471  13.170  -4.829  0.00  0.00    -0.183 NA
ATOM      2  C   UNL d   1      13.498  12.382  -4.580  0.00  0.00     0.281 C 
ATOM      3  O   UNL d   1      13.529  11.781  -5.152  0.00  0.00    -0.265 OA
ENDROOT
BRANCH   1   4
ATOM      4  C   UNL d   1      13.439  13.782  -4.280  0.00  0.00     0.197 A 
ATOM      5  N   UNL d   1      14.062  14.297  -4.097  0.00  0.00    -0.219 NA
ATOM      6  C   UNL d   1      13.790  14.829  -3.514  0.00  0.00     0.108 A 
ATOM      7  C   UNL d   1      13.003  14.638  -3.343  0.00  0.00     0.059 A 
ATOM      8  S   UNL d   1      12.786  13.989  -3.818  0.00  0.00    -0.046 SA
BRANCH   6   9
ATOM      9  C   UNL d   1      14.236  15.442  -3.169  0.00  0.00     0.100 A 
ATOM     10  N   UNL d   1      14.555  16.029  -3.642  0.00  0.00    -0.242 NA
ATOM     11  C   UNL d   1      14.999  16.641  -3.308  0.00  0.00     0.099 A 
ATOM     12  C   UNL d   1      15.110  16.645  -2.493  0.00  0.00     0.021 A 
ATOM     13  C   UNL d   1      14.792  16.061  -2.026  0.00  0.00     0.003 A 
ATOM     14  C   UNL d   1      14.351  15.450  -2.346  0.00  0.00     0.021 A 
ENDBRANCH   6   9
ENDBRANCH   1   4
BRANCH   2  15
ATOM     15  C   UNL d   1      13.492  12.231  -3.757  0.00  0.00     0.060 A 
ATOM     16  C   UNL d   1      14.193  12.247  -3.328  0.00  0.00     0.032 A 
ATOM     17  C   UNL d   1      14.190  12.099  -2.516  0.00  0.00     0.123 A 
ATOM     18  O   UNL d   1      14.894  12.114  -2.082  0.00  0.00    -0.301 OA
ATOM     19  C   UNL d   1      13.463  11.932  -2.140  0.00  0.00     0.123 A 
ATOM     20  C   UNL d   1      14.886  11.964  -1.267  0.00  0.00     0.149 A 
ATOM     21  C   UNL d   1      14.158  11.797  -0.888  0.00  0.00     0.149 A 
ATOM     22  O   UNL d   1      13.458  11.781  -1.317  0.00  0.00    -0.301 OA
ATOM     23  C   UNL d   1      12.769  11.918  -2.573  0.00  0.00     0.027 A 
ATOM     24  C   UNL d   1      12.779  12.067  -3.382  0.00  0.00     0.007 A 
ENDBRANCH   2  15
TORSDOF 3
ENDMDL
