MODEL 1
REMARK VINA RESULT:      -2.3      0.000      0.000
REMARK  6 active torsions:
REMARK  status: ('A' for Active; 'I' for Inactive)
REMARK    1  A    between atoms: N_2  and  S_1 
REMARK    2  A    between atoms: C_3  and  S_1 
REMARK    3  A    between atoms: C_6  and  N_2 
REMARK    4  A    between atoms: C_12  and  C_6 
REMARK    5  A    between atoms: O_10  and  C_11 
REMARK    6  A    between atoms: C_15  and  O_10 
ROOT
ATOM      1  C   UNL d   1      31.297  16.477 -24.543  0.00  0.00     0.105 A 
ATOM      2  C   UNL d   1      31.527  17.111 -25.021  0.00  0.00     0.015 A 
ATOM      3  C   UNL d   1      31.722  16.312 -23.846  0.00  0.00     0.015 A 
ATOM      4  C   UNL d   1      32.587  17.411 -24.124  0.00  0.00     0.100 A 
ATOM      5  C   UNL d   1      32.366  16.780 -23.640  0.00  0.00     0.025 A 
ATOM      6  C   UNL d   1      32.170  17.576 -24.812  0.00  0.00     0.025 A 
ENDROOT
BRANCH   1   7
ATOM      7  S   UNL d   1      30.652  16.005 -24.747  0.00  0.00     0.285 S 
ATOM      8  O   UNL d   1      31.163  15.463 -25.097  0.00  0.00    -0.198 OA
ATOM      9  O   UNL d   1      30.010  15.533 -24.952  0.00  0.00    -0.198 OA
BRANCH   7  10
ATOM     10  N   UNL d   1      30.135  16.552 -24.393  0.00  0.00    -0.155 NA
BRANCH  10  11
ATOM     11  C   UNL d   1      29.321  16.507 -24.548  0.00  0.00     0.137 C 
BRANCH  11  12
ATOM     12  C   UNL d   1      28.798  16.987 -24.120  0.00  0.00     0.120 A 
ATOM     13  O   UNL d   1      28.595  17.773 -24.284  0.00  0.00    -0.304 OA
ATOM     14  C   UNL d   1      28.058  18.020 -23.709  0.00  0.00     0.123 A 
ATOM     15  C   UNL d   1      27.926  17.399 -23.194  0.00  0.00     0.029 A 
ATOM     16  C   UNL d   1      28.381  16.758 -23.444  0.00  0.00     0.028 A 
ENDBRANCH  11  12
ENDBRANCH  10  11
ENDBRANCH   7  10
ENDBRANCH   1   7
BRANCH   4  17
ATOM     17  O   UNL d   1      33.239  17.885 -23.916  0.00  0.00    -0.307 OA
BRANCH  17  18
ATOM     18  C   UNL d   1      33.137  18.505 -23.374  0.00  0.00     0.100 A 
ATOM     19  C   UNL d   1      33.241  18.376 -22.560  0.00  0.00     0.025 A 
ATOM     20  C   UNL d   1      33.138  18.998 -22.027  0.00  0.00     0.002 A 
ATOM     21  C   UNL d   1      32.933  19.747 -22.304  0.00  0.00     0.000 A 
ATOM     22  C   UNL d   1      32.829  19.876 -23.118  0.00  0.00     0.002 A 
ATOM     23  C   UNL d   1      32.932  19.254 -23.652  0.00  0.00     0.025 A 
ENDBRANCH  17  18
ENDBRANCH   4  17
TORSDOF 6
ENDMDL
MODEL 2
REMARK VINA RESULT:      -1.6      0.651      1.002
REMARK  6 active torsions:
REMARK  status: ('A' for Active; 'I' for Inactive)
REMARK    1  A    between atoms: N_2  and  S_1 
REMARK    2  A    between atoms: C_3  and  S_1 
REMARK    3  A    between atoms: C_6  and  N_2 
REMARK    4  A    between atoms: C_12  and  C_6 
REMARK    5  A    between atoms: O_10  and  C_11 
REMARK    6  A    between atoms: C_15  and  O_10 
ROOT
ATOM      1  C   UNL d   1      31.712  16.962 -24.528  0.00  0.00     0.105 A 
ATOM      2  C   UNL d   1      32.154  16.914 -23.831  0.00  0.00     0.015 A 
ATOM      3  C   UNL d   1      31.783  17.635 -25.013  0.00  0.00     0.015 A 
ATOM      4  C   UNL d   1      32.727  18.186 -24.096  0.00  0.00     0.100 A 
ATOM      5  C   UNL d   1      32.291  18.245 -24.795  0.00  0.00     0.025 A 
ATOM      6  C   UNL d   1      32.660  17.524 -23.616  0.00  0.00     0.025 A 
ENDROOT
BRANCH   1   7
ATOM      7  S   UNL d   1      31.203  16.353 -24.750  0.00  0.00     0.285 S 
ATOM      8  O   UNL d   1      31.845  15.923 -25.033  0.00  0.00    -0.198 OA
ATOM      9  O   UNL d   1      30.697  15.743 -24.972  0.00  0.00    -0.198 OA
BRANCH   7  10
ATOM     10  N   UNL d   1      30.553  16.787 -24.464  0.00  0.00    -0.155 NA
BRANCH  10  11
ATOM     11  C   UNL d   1      29.783  16.548 -24.658  0.00  0.00     0.137 C 
BRANCH  11  12
ATOM     12  C   UNL d   1      29.153  16.764 -24.165  0.00  0.00     0.120 A 
ATOM     13  O   UNL d   1      28.846  16.331 -23.529  0.00  0.00    -0.304 OA
ATOM     14  C   UNL d   1      28.225  16.765 -23.204  0.00  0.00     0.123 A 
ATOM     15  C   UNL d   1      28.144  17.459 -23.629  0.00  0.00     0.029 A 
ATOM     16  C   UNL d   1      28.715  17.463 -24.224  0.00  0.00     0.028 A 
ENDBRANCH  11  12
ENDBRANCH  10  11
ENDBRANCH   7  10
ENDBRANCH   1   7
BRANCH   4  17
ATOM     17  O   UNL d   1      33.241  18.802 -23.875  0.00  0.00    -0.307 OA
BRANCH  17  18
ATOM     18  C   UNL d   1      33.095  19.227 -23.178  0.00  0.00     0.100 A 
ATOM     19  C   UNL d   1      33.241  18.884 -22.435  0.00  0.00     0.025 A 
ATOM     20  C   UNL d   1      33.093  19.312 -21.746  0.00  0.00     0.002 A 
ATOM     21  C   UNL d   1      32.800  20.082 -21.795  0.00  0.00     0.000 A 
ATOM     22  C   UNL d   1      32.654  20.425 -22.537  0.00  0.00     0.002 A 
ATOM     23  C   UNL d   1      32.801  19.997 -23.228  0.00  0.00     0.025 A 
ENDBRANCH  17  18
ENDBRANCH   4  17
TORSDOF 6
ENDMDL
MODEL 3
REMARK VINA RESULT:      -0.4      1.799      3.273
REMARK  6 active torsions:
REMARK  status: ('A' for Active; 'I' for Inactive)
REMARK    1  A    between atoms: N_2  and  S_1 
REMARK    2  A    between atoms: C_3  and  S_1 
REMARK    3  A    between atoms: C_6  and  N_2 
REMARK    4  A    between atoms: C_12  and  C_6 
REMARK    5  A    between atoms: O_10  and  C_11 
REMARK    6  A    between atoms: C_15  and  O_10 
ROOT
ATOM      1  C   UNL d   1      32.872  18.999 -23.634  0.00  0.00     0.105 A 
ATOM      2  C   UNL d   1      33.171  18.603 -22.972  0.00  0.00     0.015 A 
ATOM      3  C   UNL d   1      32.641  19.795 -23.566  0.00  0.00     0.015 A 
ATOM      4  C   UNL d   1      33.011  19.776 -22.188  0.00  0.00     0.100 A 
ATOM      5  C   UNL d   1      32.711  20.182 -22.842  0.00  0.00     0.025 A 
ATOM      6  C   UNL d   1      33.240  18.991 -22.252  0.00  0.00     0.025 A 
ENDROOT
BRANCH   1   7
ATOM      7  S   UNL d   1      32.800  18.615 -24.360  0.00  0.00     0.285 S 
ATOM      8  O   UNL d   1      33.241  19.212 -24.716  0.00  0.00    -0.198 OA
ATOM      9  O   UNL d   1      32.730  18.234 -25.086  0.00  0.00    -0.198 OA
BRANCH   7  10
ATOM     10  N   UNL d   1      32.354  18.011 -24.001  0.00  0.00    -0.155 NA
BRANCH  10  11
ATOM     11  C   UNL d   1      32.209  17.307 -24.415  0.00  0.00     0.137 C 
BRANCH  11  12
ATOM     12  C   UNL d   1      31.633  16.781 -24.135  0.00  0.00     0.120 A 
ATOM     13  O   UNL d   1      30.835  16.753 -24.357  0.00  0.00    -0.304 OA
ATOM     14  C   UNL d   1      30.477  16.142 -23.935  0.00  0.00     0.123 A 
ATOM     15  C   UNL d   1      31.042  15.792 -23.457  0.00  0.00     0.029 A 
ATOM     16  C   UNL d   1      31.757  16.184 -23.578  0.00  0.00     0.028 A 
ENDBRANCH  11  12
ENDBRANCH  10  11
ENDBRANCH   7  10
ENDBRANCH   1   7
BRANCH   4  17
ATOM     17  O   UNL d   1      33.083  20.166 -21.457  0.00  0.00    -0.307 OA
BRANCH  17  18
ATOM     18  C   UNL d   1      32.840  20.956 -21.388  0.00  0.00     0.100 A 
ATOM     19  C   UNL d   1      33.241  21.559 -21.797  0.00  0.00     0.025 A 
ATOM     20  C   UNL d   1      32.994  22.342 -21.724  0.00  0.00     0.002 A 
ATOM     21  C   UNL d   1      32.348  22.527 -21.246  0.00  0.00     0.000 A 
ATOM     22  C   UNL d   1      31.946  21.925 -20.837  0.00  0.00     0.002 A 
ATOM     23  C   UNL d   1      32.193  21.140 -20.909  0.00  0.00     0.025 A 
ENDBRANCH  17  18
ENDBRANCH   4  17
TORSDOF 6
ENDMDL
MODEL 4
REMARK VINA RESULT:      -0.0      2.885      5.138
REMARK  6 active torsions:
REMARK  status: ('A' for Active; 'I' for Inactive)
REMARK    1  A    between atoms: N_2  and  S_1 
REMARK    2  A    between atoms: C_3  and  S_1 
REMARK    3  A    between atoms: C_6  and  N_2 
REMARK    4  A    between atoms: C_12  and  C_6 
REMARK    5  A    between atoms: O_10  and  C_11 
REMARK    6  A    between atoms: C_15  and  O_10 
ROOT
ATOM      1  C   UNL d   1      32.982  19.927 -22.016  0.00  0.00     0.105 A 
ATOM      2  C   UNL d   1      33.240  19.141 -22.022  0.00  0.00     0.015 A 
ATOM      3  C   UNL d   1      32.663  20.259 -22.709  0.00  0.00     0.015 A 
ATOM      4  C   UNL d   1      32.867  19.021 -23.387  0.00  0.00     0.100 A 
ATOM      5  C   UNL d   1      32.607  19.805 -23.392  0.00  0.00     0.025 A 
ATOM      6  C   UNL d   1      33.182  18.690 -22.706  0.00  0.00     0.025 A 
ENDROOT
BRANCH   1   7
ATOM      7  S   UNL d   1      33.037  20.385 -21.332  0.00  0.00     0.285 S 
ATOM      8  O   UNL d   1      33.140  19.701 -20.886  0.00  0.00    -0.198 OA
ATOM      9  O   UNL d   1      33.093  20.839 -20.648  0.00  0.00    -0.198 OA
BRANCH   7  10
ATOM     10  N   UNL d   1      32.933  21.076 -21.783  0.00  0.00    -0.155 NA
BRANCH  10  11
ATOM     11  C   UNL d   1      33.084  21.816 -21.439  0.00  0.00     0.137 C 
BRANCH  11  12
ATOM     12  C   UNL d   1      32.751  22.497 -21.775  0.00  0.00     0.120 A 
ATOM     13  O   UNL d   1      32.047  22.870 -21.550  0.00  0.00    -0.304 OA
ATOM     14  C   UNL d   1      31.940  23.524 -22.041  0.00  0.00     0.123 A 
ATOM     15  C   UNL d   1      32.568  23.561 -22.564  0.00  0.00     0.029 A 
ATOM     16  C   UNL d   1      33.072  22.928 -22.403  0.00  0.00     0.028 A 
ENDBRANCH  11  12
ENDBRANCH  10  11
ENDBRANCH   7  10
ENDBRANCH   1   7
BRANCH   4  17
ATOM     17  O   UNL d   1      32.810  18.561 -24.078  0.00  0.00    -0.307 OA
BRANCH  17  18
ATOM     18  C   UNL d   1      32.221  17.980 -24.136  0.00  0.00     0.100 A 
ATOM     19  C   UNL d   1      32.284  17.270 -23.709  0.00  0.00     0.025 A 
ATOM     20  C   UNL d   1      31.695  16.697 -23.771  0.00  0.00     0.002 A 
ATOM     21  C   UNL d   1      31.043  16.829 -24.259  0.00  0.00     0.000 A 
ATOM     22  C   UNL d   1      30.980  17.539 -24.687  0.00  0.00     0.002 A 
ATOM     23  C   UNL d   1      31.569  18.113 -24.625  0.00  0.00     0.025 A 
ENDBRANCH  17  18
ENDBRANCH   4  17
TORSDOF 6
ENDMDL
