MODEL 1
REMARK VINA RESULT:      -7.3      0.000      0.000
REMARK  2 active torsions:
REMARK  status: ('A' for Active; 'I' for Inactive)
REMARK    1  A    between atoms: C_2  and  CA_1 
REMARK    2  A    between atoms: C_3  and  CA_1 
ROOT
ATOM      1  C   UNL d   1      53.509  33.443  53.810  0.00  0.00     0.025 A 
ATOM      2  C   UNL d   1      53.005  32.956  53.363  0.00  0.00     0.002 A 
ATOM      3  C   UNL d   1      53.298  34.226  53.958  0.00  0.00     0.002 A 
ATOM      4  C   UNL d   1      53.216  32.173  53.214  0.00  0.00     0.000 C 
ATOM      5  C   UNL d   1      52.296  33.256  53.071  0.00  0.00     0.000 A 
ATOM      6  C   UNL d   1      52.582  34.523  53.661  0.00  0.00     0.000 A 
ATOM      7  C   UNL d   1      52.085  34.039  53.220  0.00  0.00     0.000 A 
ENDROOT
BRANCH   1   8
ATOM      8  CA  UNL d   1      54.220  33.140  54.102  0.00  0.00     0.167 C 
ATOM      9  N   UNL d   1      54.728  32.724  53.607  0.00  0.00    -0.142 N 
BRANCH   8  10
ATOM     10  C   UNL d   1      54.419  33.256  54.894  0.00  0.00     0.231 C 
ATOM     11  O   UNL d   1      54.154  32.737  55.475  0.00  0.00    -0.643 OA
ATOM     12  OXT UNL d   1      54.890  33.901  55.111  0.00  0.00    -0.643 OA
ENDBRANCH   8  10
ENDBRANCH   1   8
TORSDOF 2
ENDMDL
MODEL 2
REMARK VINA RESULT:      -7.3      1.674      2.295
REMARK  2 active torsions:
REMARK  status: ('A' for Active; 'I' for Inactive)
REMARK    1  A    between atoms: C_2  and  CA_1 
REMARK    2  A    between atoms: C_3  and  CA_1 
ROOT
ATOM      1  C   UNL d   1      53.242  33.170  53.883  0.00  0.00     0.025 A 
ATOM      2  C   UNL d   1      53.741  32.574  54.176  0.00  0.00     0.002 A 
ATOM      3  C   UNL d   1      53.287  33.933  54.194  0.00  0.00     0.002 A 
ATOM      4  C   UNL d   1      53.696  31.811  53.865  0.00  0.00     0.000 C 
ATOM      5  C   UNL d   1      54.280  32.745  54.775  0.00  0.00     0.000 A 
ATOM      6  C   UNL d   1      53.831  34.100  54.798  0.00  0.00     0.000 A 
ATOM      7  C   UNL d   1      54.325  33.508  55.086  0.00  0.00     0.000 A 
ENDROOT
BRANCH   1   8
ATOM      8  CA  UNL d   1      52.702  32.995  53.282  0.00  0.00     0.167 C 
ATOM      9  N   UNL d   1      52.843  32.369  52.769  0.00  0.00    -0.142 N 
BRANCH   8  10
ATOM     10  C   UNL d   1      52.021  33.453  53.198  0.00  0.00     0.231 C 
ATOM     11  O   UNL d   1      51.338  33.272  53.621  0.00  0.00    -0.643 OA
ATOM     12  OXT UNL d   1      52.021  34.103  52.685  0.00  0.00    -0.643 OA
ENDBRANCH   8  10
ENDBRANCH   1   8
TORSDOF 2
ENDMDL
MODEL 3
REMARK VINA RESULT:      -7.2      0.918      1.798
REMARK  2 active torsions:
REMARK  status: ('A' for Active; 'I' for Inactive)
REMARK    1  A    between atoms: C_2  and  CA_1 
REMARK    2  A    between atoms: C_3  and  CA_1 
ROOT
ATOM      1  C   UNL d   1      53.461  32.604  53.971  0.00  0.00     0.025 A 
ATOM      2  C   UNL d   1      52.901  32.736  53.371  0.00  0.00     0.002 A 
ATOM      3  C   UNL d   1      53.774  31.849  54.081  0.00  0.00     0.002 A 
ATOM      4  C   UNL d   1      52.588  33.491  53.261  0.00  0.00     0.000 C 
ATOM      5  C   UNL d   1      52.661  32.115  52.887  0.00  0.00     0.000 A 
ATOM      6  C   UNL d   1      53.528  31.225  53.590  0.00  0.00     0.000 A 
ATOM      7  C   UNL d   1      52.974  31.359  52.997  0.00  0.00     0.000 A 
ENDROOT
BRANCH   1   8
ATOM      8  CA  UNL d   1      53.701  33.229  54.455  0.00  0.00     0.167 C 
ATOM      9  N   UNL d   1      53.231  33.900  54.527  0.00  0.00    -0.142 N 
BRANCH   8  10
ATOM     10  C   UNL d   1      54.414  33.177  54.865  0.00  0.00     0.231 C 
ATOM     11  O   UNL d   1      55.122  33.397  54.508  0.00  0.00    -0.643 OA
ATOM     12  OXT UNL d   1      54.423  32.902  55.646  0.00  0.00    -0.643 OA
ENDBRANCH   8  10
ENDBRANCH   1   8
TORSDOF 2
ENDMDL
