MODEL 1
REMARK VINA RESULT:      -1.7      0.000      0.000
REMARK  6 active torsions:
REMARK  status: ('A' for Active; 'I' for Inactive)
REMARK       I    between atoms: C_3  and  N_1 
REMARK    1  A    between atoms: C_4  and  N_1 
REMARK    2  A    between atoms: S_2  and  C_12 
REMARK    3  A    between atoms: C_6  and  C_3 
REMARK    4  A    between atoms: N_5  and  C_6 
REMARK       I    between atoms: C_7  and  N_5 
REMARK    5  A    between atoms: C_8  and  C_6 
REMARK    6  A    between atoms: C_12  and  C_8 
ROOT
ATOM      1  N   UNL d   1      57.803  -0.694  31.374  0.00  0.00    -0.207 NA
ATOM      2  C   UNL d   1      57.754  -0.409  30.602  0.00  0.00     0.297 C 
ATOM      3  O   UNL d   1      57.158   0.132  30.399  0.00  0.00    -0.264 OA
ENDROOT
BRANCH   2   4
ATOM      4  C   UNL d   1      58.300  -0.662  30.029  0.00  0.00     0.143 C 
BRANCH   4   5
ATOM      5  N   UNL d   1      58.070  -1.215  29.459  0.00  0.00    -0.203 NA
ATOM      6  C   UNL d   1      58.411  -1.965  29.451  0.00  0.00     0.280 C 
ATOM      7  O   UNL d   1      58.982  -2.163  30.013  0.00  0.00    -0.265 OA
ATOM      8  C   UNL d   1      58.182  -2.518  28.882  0.00  0.00     0.068 C 
ENDBRANCH   4   5
BRANCH   4   9
ATOM      9  C   UNL d   1      59.068  -0.363  30.028  0.00  0.00     0.036 C 
BRANCH   9  10
ATOM     10  C   UNL d   1      59.294   0.187  29.457  0.00  0.00     0.096 C 
BRANCH  10  11
ATOM     11  S   UNL d   1      60.082   0.419  29.400  0.00  0.00     0.192 S 
ATOM     12  O   UNL d   1      59.786   0.494  28.626  0.00  0.00    -0.222 OA
ATOM     13  O   UNL d   1      60.827   0.681  29.130  0.00  0.00    -0.222 OA
ATOM     14  C   UNL d   1      60.561   0.415  30.070  0.00  0.00     0.145 C 
ENDBRANCH  10  11
ENDBRANCH   9  10
ENDBRANCH   4   9
ENDBRANCH   2   4
BRANCH   1  15
ATOM     15  C   UNL d   1      57.245  -0.433  31.953  0.00  0.00     0.085 A 
ATOM     16  C   UNL d   1      57.399   0.244  32.378  0.00  0.00     0.018 A 
ATOM     17  C   UNL d   1      56.843   0.492  32.946  0.00  0.00     0.002 A 
ATOM     18  C   UNL d   1      58.080   0.682  32.261  0.00  0.00     0.002 C 
ATOM     19  C   UNL d   1      56.147   0.066  33.081  0.00  0.00     0.000 A 
ATOM     20  C   UNL d   1      56.008  -0.622  32.637  0.00  0.00     0.002 A 
ATOM     21  C   UNL d   1      56.563  -0.880  32.063  0.00  0.00     0.018 A 
ATOM     22  C   UNL d   1      56.408  -1.560  31.636  0.00  0.00     0.002 C 
ENDBRANCH   1  15
TORSDOF 6
ENDMDL
MODEL 2
REMARK VINA RESULT:      -0.7      0.908      1.425
REMARK  6 active torsions:
REMARK  status: ('A' for Active; 'I' for Inactive)
REMARK       I    between atoms: C_3  and  N_1 
REMARK    1  A    between atoms: C_4  and  N_1 
REMARK    2  A    between atoms: S_2  and  C_12 
REMARK    3  A    between atoms: C_6  and  C_3 
REMARK    4  A    between atoms: N_5  and  C_6 
REMARK       I    between atoms: C_7  and  N_5 
REMARK    5  A    between atoms: C_8  and  C_6 
REMARK    6  A    between atoms: C_12  and  C_8 
ROOT
ATOM      1  N   UNL d   1      57.535  -0.521  31.963  0.00  0.00    -0.207 NA
ATOM      2  C   UNL d   1      57.508  -0.127  31.239  0.00  0.00     0.297 C 
ATOM      3  O   UNL d   1      56.876   0.383  31.072  0.00  0.00    -0.264 OA
ENDROOT
BRANCH   2   4
ATOM      4  C   UNL d   1      58.112  -0.242  30.679  0.00  0.00     0.143 C 
BRANCH   4   5
ATOM      5  N   UNL d   1      57.919  -0.456  29.905  0.00  0.00    -0.203 NA
ATOM      6  C   UNL d   1      58.145  -1.192  29.612  0.00  0.00     0.280 C 
ATOM      7  O   UNL d   1      58.564  -1.715  30.093  0.00  0.00    -0.265 OA
ATOM      8  C   UNL d   1      57.952  -1.406  28.838  0.00  0.00     0.068 C 
ENDBRANCH   4   5
BRANCH   4   9
ATOM      9  C   UNL d   1      58.901  -0.141  30.896  0.00  0.00     0.036 C 
BRANCH   9  10
ATOM     10  C   UNL d   1      59.282   0.573  30.738  0.00  0.00     0.096 C 
BRANCH  10  11
ATOM     11  S   UNL d   1      60.102   0.624  30.807  0.00  0.00     0.192 S 
ATOM     12  O   UNL d   1      59.959   0.635  29.987  0.00  0.00    -0.222 OA
ATOM     13  O   UNL d   1      60.921   0.680  30.656  0.00  0.00    -0.222 OA
ATOM     14  C   UNL d   1      60.452   0.628  31.552  0.00  0.00     0.145 C 
ENDBRANCH  10  11
ENDBRANCH   9  10
ENDBRANCH   4   9
ENDBRANCH   2   4
BRANCH   1  15
ATOM     15  C   UNL d   1      56.919  -0.401  32.529  0.00  0.00     0.085 A 
ATOM     16  C   UNL d   1      56.261  -0.880  32.508  0.00  0.00     0.018 A 
ATOM     17  C   UNL d   1      55.659  -0.753  33.070  0.00  0.00     0.002 A 
ATOM     18  C   UNL d   1      56.177  -1.475  31.954  0.00  0.00     0.002 C 
ATOM     19  C   UNL d   1      55.722  -0.156  33.639  0.00  0.00     0.000 A 
ATOM     20  C   UNL d   1      56.401   0.321  33.644  0.00  0.00     0.002 A 
ATOM     21  C   UNL d   1      57.013   0.201  33.082  0.00  0.00     0.018 A 
ATOM     22  C   UNL d   1      57.674   0.682  33.103  0.00  0.00     0.002 C 
ENDBRANCH   1  15
TORSDOF 6
ENDMDL
MODEL 3
REMARK VINA RESULT:      -0.3      1.687      3.969
REMARK  6 active torsions:
REMARK  status: ('A' for Active; 'I' for Inactive)
REMARK       I    between atoms: C_3  and  N_1 
REMARK    1  A    between atoms: C_4  and  N_1 
REMARK    2  A    between atoms: S_2  and  C_12 
REMARK    3  A    between atoms: C_6  and  C_3 
REMARK    4  A    between atoms: N_5  and  C_6 
REMARK       I    between atoms: C_7  and  N_5 
REMARK    5  A    between atoms: C_8  and  C_6 
REMARK    6  A    between atoms: C_12  and  C_8 
ROOT
ATOM      1  N   UNL d   1      59.582  -1.895  29.551  0.00  0.00    -0.207 NA
ATOM      2  C   UNL d   1      59.264  -1.241  29.163  0.00  0.00     0.297 C 
ATOM      3  O   UNL d   1      58.839  -1.348  28.458  0.00  0.00    -0.264 OA
ENDROOT
BRANCH   2   4
ATOM      4  C   UNL d   1      59.368  -0.478  29.475  0.00  0.00     0.143 C 
BRANCH   4   5
ATOM      5  N   UNL d   1      59.856   0.062  29.085  0.00  0.00    -0.203 NA
ATOM      6  C   UNL d   1      60.646   0.141  29.307  0.00  0.00     0.280 C 
ATOM      7  O   UNL d   1      60.948  -0.321  29.920  0.00  0.00    -0.265 OA
ATOM      8  C   UNL d   1      61.133   0.681  28.917  0.00  0.00     0.068 C 
ENDBRANCH   4   5
BRANCH   4   9
ATOM      9  C   UNL d   1      58.986  -0.261  30.172  0.00  0.00     0.036 C 
BRANCH   9  10
ATOM     10  C   UNL d   1      58.478   0.389  30.177  0.00  0.00     0.096 C 
BRANCH  10  11
ATOM     11  S   UNL d   1      57.913   0.463  30.772  0.00  0.00     0.192 S 
ATOM     12  O   UNL d   1      57.480   0.523  30.064  0.00  0.00    -0.222 OA
ATOM     13  O   UNL d   1      57.204   0.557  31.202  0.00  0.00    -0.222 OA
ATOM     14  C   UNL d   1      58.142   0.429  31.562  0.00  0.00     0.145 C 
ENDBRANCH  10  11
ENDBRANCH   9  10
ENDBRANCH   4   9
ENDBRANCH   2   4
BRANCH   1  15
ATOM     15  C   UNL d   1      59.473  -2.668  29.229  0.00  0.00     0.085 A 
ATOM     16  C   UNL d   1      58.769  -3.057  29.355  0.00  0.00     0.018 A 
ATOM     17  C   UNL d   1      58.672  -3.819  29.033  0.00  0.00     0.002 A 
ATOM     18  C   UNL d   1      58.161  -2.720  29.786  0.00  0.00     0.002 C 
ATOM     19  C   UNL d   1      59.273  -4.179  28.594  0.00  0.00     0.000 A 
ATOM     20  C   UNL d   1      59.983  -3.767  28.476  0.00  0.00     0.002 A 
ATOM     21  C   UNL d   1      60.091  -2.998  28.797  0.00  0.00     0.018 A 
ATOM     22  C   UNL d   1      60.798  -2.608  28.670  0.00  0.00     0.002 C 
ENDBRANCH   1  15
TORSDOF 6
ENDMDL
MODEL 4
REMARK VINA RESULT:       0.8      1.662      2.232
REMARK  6 active torsions:
REMARK  status: ('A' for Active; 'I' for Inactive)
REMARK       I    between atoms: C_3  and  N_1 
REMARK    1  A    between atoms: C_4  and  N_1 
REMARK    2  A    between atoms: S_2  and  C_12 
REMARK    3  A    between atoms: C_6  and  C_3 
REMARK    4  A    between atoms: N_5  and  C_6 
REMARK       I    between atoms: C_7  and  N_5 
REMARK    5  A    between atoms: C_8  and  C_6 
REMARK    6  A    between atoms: C_12  and  C_8 
ROOT
ATOM      1  N   UNL d   1      57.071  -0.418  32.459  0.00  0.00    -0.207 NA
ATOM      2  C   UNL d   1      57.125   0.185  31.899  0.00  0.00     0.297 C 
ATOM      3  O   UNL d   1      56.463   0.660  31.740  0.00  0.00    -0.264 OA
ENDROOT
BRANCH   2   4
ATOM      4  C   UNL d   1      57.839   0.317  31.495  0.00  0.00     0.143 C 
BRANCH   4   5
ATOM      5  N   UNL d   1      58.473   0.672  31.887  0.00  0.00    -0.203 NA
ATOM      6  C   UNL d   1      59.220   0.324  31.864  0.00  0.00     0.280 C 
ATOM      7  O   UNL d   1      59.333  -0.380  31.449  0.00  0.00    -0.265 OA
ATOM      8  C   UNL d   1      59.854   0.679  32.256  0.00  0.00     0.068 C 
ENDBRANCH   4   5
BRANCH   4   9
ATOM      9  C   UNL d   1      57.915   0.093  30.705  0.00  0.00     0.036 C 
BRANCH   9  10
ATOM     10  C   UNL d   1      57.980   0.670  30.119  0.00  0.00     0.096 C 
BRANCH  10  11
ATOM     11  S   UNL d   1      57.981   0.451  29.325  0.00  0.00     0.192 S 
ATOM     12  O   UNL d   1      57.178   0.558  29.510  0.00  0.00    -0.222 OA
ATOM     13  O   UNL d   1      57.766   0.250  28.544  0.00  0.00    -0.222 OA
ATOM     14  C   UNL d   1      58.695   0.296  28.944  0.00  0.00     0.145 C 
ENDBRANCH  10  11
ENDBRANCH   9  10
ENDBRANCH   4   9
ENDBRANCH   2   4
BRANCH   1  15
ATOM     15  C   UNL d   1      56.343  -0.547  32.867  0.00  0.00     0.085 A 
ATOM     16  C   UNL d   1      56.087   0.003  33.409  0.00  0.00     0.018 A 
ATOM     17  C   UNL d   1      55.367  -0.134  33.806  0.00  0.00     0.002 A 
ATOM     18  C   UNL d   1      56.515   0.681  33.572  0.00  0.00     0.002 C 
ATOM     19  C   UNL d   1      54.918  -0.812  33.657  0.00  0.00     0.000 A 
ATOM     20  C   UNL d   1      55.196  -1.362  33.100  0.00  0.00     0.002 A 
ATOM     21  C   UNL d   1      55.920  -1.232  32.695  0.00  0.00     0.018 A 
ATOM     22  C   UNL d   1      56.177  -1.785  32.150  0.00  0.00     0.002 C 
ENDBRANCH   1  15
TORSDOF 6
ENDMDL
