MODEL 1
REMARK VINA RESULT:      -4.0      0.000      0.000
REMARK  3 active torsions:
REMARK  status: ('A' for Active; 'I' for Inactive)
REMARK    1  A    between atoms: N_4  and  C_1 
REMARK    2  A    between atoms: C_15  and  C_5 
REMARK    3  A    between atoms: C_9  and  N_8 
ROOT
ATOM      1  C   UNL d   1     -41.811-122.925 -51.607  0.00  0.00     0.169 A 
ATOM      2  N   UNL d   1     -42.016-123.554 -52.098  0.00  0.00    -0.130 NA
ATOM      3  N   UNL d   1     -41.986-123.434 -52.923  0.00  0.00    -0.147 NA
ATOM      4  C   UNL d   1     -41.761-122.716 -53.234  0.00  0.00     0.103 A 
ATOM      5  C   UNL d   1     -41.588-122.211 -51.917  0.00  0.00     0.038 A 
ATOM      6  C   UNL d   1     -41.563-122.106 -52.739  0.00  0.00     0.022 A 
ATOM      7  C   UNL d   1     -41.379-121.569 -51.408  0.00  0.00     0.003 A 
ATOM      8  C   UNL d   1     -41.324-121.344 -53.045  0.00  0.00     0.002 A 
ATOM      9  C   UNL d   1     -41.144-120.816 -51.724  0.00  0.00     0.000 A 
ATOM     10  C   UNL d   1     -41.123-120.726 -52.548  0.00  0.00     0.000 A 
ENDROOT
BRANCH   1  11
ATOM     11  N   UNL d   1     -41.836-123.029 -50.800  0.00  0.00    -0.285 N 
ATOM     12  C   UNL d   1     -42.541-122.948 -50.375  0.00  0.00     0.101 A 
ATOM     13  C   UNL d   1     -42.566-123.053 -49.558  0.00  0.00     0.101 A 
ATOM     14  N   UNL d   1     -41.887-123.242 -49.146  0.00  0.00    -0.286 N 
ATOM     15  C   UNL d   1     -41.187-123.325 -49.551  0.00  0.00     0.101 A 
ATOM     16  C   UNL d   1     -41.161-123.217 -50.393  0.00  0.00     0.101 A 
BRANCH  14  17
ATOM     17  C   UNL d   1     -41.897-123.350 -48.330  0.00  0.00     0.148 A 
ATOM     18  N   UNL d   1     -41.271-123.103 -47.846  0.00  0.00    -0.227 NA
ATOM     19  C   UNL d   1     -41.281-123.212 -47.029  0.00  0.00     0.101 A 
ATOM     20  C   UNL d   1     -41.927-123.574 -46.677  0.00  0.00     0.021 A 
ATOM     21  C   UNL d   1     -42.544-123.817 -47.151  0.00  0.00     0.005 A 
ATOM     22  C   UNL d   1     -42.534-123.709 -47.968  0.00  0.00     0.037 A 
ENDBRANCH  14  17
ENDBRANCH   1  11
BRANCH   4  23
ATOM     23  C   UNL d   1     -41.736-122.610 -54.056  0.00  0.00     0.019 A 
ATOM     24  C   UNL d   1     -41.169-123.017 -54.495  0.00  0.00     0.002 A 
ATOM     25  C   UNL d   1     -41.139-122.914 -55.323  0.00  0.00     0.000 A 
ATOM     26  C   UNL d   1     -41.665-122.414 -55.711  0.00  0.00     0.000 A 
ATOM     27  C   UNL d   1     -42.237-122.004 -55.271  0.00  0.00     0.000 A 
ATOM     28  C   UNL d   1     -42.274-122.102 -54.433  0.00  0.00     0.002 A 
ENDBRANCH   4  23
TORSDOF 3
ENDMDL
MODEL 2
REMARK VINA RESULT:      -3.1      0.781      5.483
REMARK  3 active torsions:
REMARK  status: ('A' for Active; 'I' for Inactive)
REMARK    1  A    between atoms: N_4  and  C_1 
REMARK    2  A    between atoms: C_15  and  C_5 
REMARK    3  A    between atoms: C_9  and  N_8 
ROOT
ATOM      1  C   UNL d   1     -41.752-122.918 -50.792  0.00  0.00     0.169 A 
ATOM      2  N   UNL d   1     -41.123-123.313 -50.435  0.00  0.00    -0.130 NA
ATOM      3  N   UNL d   1     -41.142-123.415 -49.608  0.00  0.00    -0.147 NA
ATOM      4  C   UNL d   1     -41.764-123.134 -49.164  0.00  0.00     0.103 A 
ATOM      5  C   UNL d   1     -42.371-122.639 -50.350  0.00  0.00     0.038 A 
ATOM      6  C   UNL d   1     -42.377-122.748 -49.528  0.00  0.00     0.022 A 
ATOM      7  C   UNL d   1     -43.015-122.235 -50.721  0.00  0.00     0.003 A 
ATOM      8  C   UNL d   1     -43.040-122.446 -49.082  0.00  0.00     0.002 A 
ATOM      9  C   UNL d   1     -43.669-121.938 -50.266  0.00  0.00     0.000 A 
ATOM     10  C   UNL d   1     -43.660-122.055 -49.445  0.00  0.00     0.000 A 
ENDROOT
BRANCH   1  11
ATOM     11  N   UNL d   1     -41.747-122.811 -51.599  0.00  0.00    -0.285 N 
ATOM     12  C   UNL d   1     -41.553-122.081 -51.936  0.00  0.00     0.101 A 
ATOM     13  C   UNL d   1     -41.547-121.973 -52.753  0.00  0.00     0.101 A 
ATOM     14  N   UNL d   1     -41.735-122.591 -53.252  0.00  0.00    -0.286 N 
ATOM     15  C   UNL d   1     -41.927-123.314 -52.934  0.00  0.00     0.101 A 
ATOM     16  C   UNL d   1     -41.933-123.426 -52.091  0.00  0.00     0.101 A 
BRANCH  14  17
ATOM     17  C   UNL d   1     -41.733-122.498 -54.070  0.00  0.00     0.148 A 
ATOM     18  N   UNL d   1     -42.323-122.071 -54.466  0.00  0.00    -0.227 NA
ATOM     19  C   UNL d   1     -42.321-121.978 -55.285  0.00  0.00     0.101 A 
ATOM     20  C   UNL d   1     -41.719-122.316 -55.728  0.00  0.00     0.021 A 
ATOM     21  C   UNL d   1     -41.138-122.736 -55.341  0.00  0.00     0.005 A 
ATOM     22  C   UNL d   1     -41.140-122.829 -54.523  0.00  0.00     0.037 A 
ENDBRANCH  14  17
ENDBRANCH   1  11
BRANCH   4  23
ATOM     23  C   UNL d   1     -41.770-123.244 -48.342  0.00  0.00     0.019 A 
ATOM     24  C   UNL d   1     -42.364-123.704 -48.003  0.00  0.00     0.002 A 
ATOM     25  C   UNL d   1     -42.375-123.817 -47.177  0.00  0.00     0.000 A 
ATOM     26  C   UNL d   1     -41.803-123.478 -46.691  0.00  0.00     0.000 A 
ATOM     27  C   UNL d   1     -41.204-123.014 -47.031  0.00  0.00     0.000 A 
ATOM     28  C   UNL d   1     -41.186-122.894 -47.866  0.00  0.00     0.002 A 
ENDBRANCH   4  23
TORSDOF 3
ENDMDL
