MODEL 1
REMARK VINA RESULT:      -6.2      0.000      0.000
REMARK  5 active torsions:
REMARK  status: ('A' for Active; 'I' for Inactive)
REMARK    1  A    between atoms: C_6  and  C_1 
REMARK    2  A    between atoms: C_11  and  N_3 
REMARK    3  A    between atoms: C_14  and  C_11 
REMARK    4  A    between atoms: O_12  and  C_14 
REMARK    5  A    between atoms: C_13  and  O_12 
ROOT
ATOM      1  C   UNL d   1     -49.609  13.815  22.994  0.00  0.00     0.171 A 
ATOM      2  N   UNL d   1     -50.382  13.551  23.133  0.00  0.00    -0.225 NA
ATOM      3  N   UNL d   1     -49.118  13.157  23.116  0.00  0.00    -0.286 N 
ATOM      4  C   UNL d   1     -49.575  12.525  23.320  0.00  0.00     0.083 A 
ATOM      5  C   UNL d   1     -50.363  12.771  23.331  0.00  0.00     0.099 A 
ATOM      6  C   UNL d   1     -49.384  11.744  23.502  0.00  0.00     0.019 A 
ATOM      7  C   UNL d   1     -50.932  12.227  23.523  0.00  0.00     0.021 A 
ATOM      8  C   UNL d   1     -49.973  11.232  23.687  0.00  0.00     0.002 A 
ATOM      9  C   UNL d   1     -50.762  11.478  23.698  0.00  0.00     0.002 A 
ENDROOT
BRANCH   3  10
ATOM     10  C   UNL d   1     -48.327  13.302  23.005  0.00  0.00     0.108 C 
BRANCH  10  11
ATOM     11  C   UNL d   1     -47.773  12.710  22.934  0.00  0.00     0.142 C 
BRANCH  11  12
ATOM     12  O   UNL d   1     -46.988  12.855  22.793  0.00  0.00    -0.304 OA
BRANCH  12  13
ATOM     13  C   UNL d   1     -46.250  12.653  22.760  0.00  0.00     0.100 A 
ATOM     14  C   UNL d   1     -46.081  13.253  22.220  0.00  0.00     0.025 A 
ATOM     15  C   UNL d   1     -45.312  13.347  21.935  0.00  0.00     0.002 A 
ATOM     16  C   UNL d   1     -44.708  12.840  22.190  0.00  0.00     0.000 A 
ATOM     17  C   UNL d   1     -44.877  12.240  22.730  0.00  0.00     0.002 A 
ATOM     18  C   UNL d   1     -45.650  12.146  23.015  0.00  0.00     0.025 A 
ENDBRANCH  12  13
ENDBRANCH  11  12
ENDBRANCH  10  11
ENDBRANCH   3  10
BRANCH   1  19
ATOM     19  C   UNL d   1     -49.375  14.575  22.778  0.00  0.00     0.134 A 
ATOM     20  O   UNL d   1     -49.086  15.136  23.285  0.00  0.00    -0.302 OA
ATOM     21  C   UNL d   1     -48.918  15.821  22.840  0.00  0.00     0.123 A 
ATOM     22  C   UNL d   1     -49.114  15.658  22.055  0.00  0.00     0.029 A 
ATOM     23  C   UNL d   1     -49.400  14.875  22.025  0.00  0.00     0.030 A 
ENDBRANCH   1  19
TORSDOF 5
ENDMDL
MODEL 2
REMARK VINA RESULT:      -6.1      1.235      2.435
REMARK  5 active torsions:
REMARK  status: ('A' for Active; 'I' for Inactive)
REMARK    1  A    between atoms: C_6  and  C_1 
REMARK    2  A    between atoms: C_11  and  N_3 
REMARK    3  A    between atoms: C_14  and  C_11 
REMARK    4  A    between atoms: O_12  and  C_14 
REMARK    5  A    between atoms: C_13  and  O_12 
ROOT
ATOM      1  C   UNL d   1     -50.009  13.405  22.727  0.00  0.00     0.171 A 
ATOM      2  N   UNL d   1     -50.726  13.778  22.906  0.00  0.00    -0.225 NA
ATOM      3  N   UNL d   1     -49.414  13.953  22.910  0.00  0.00    -0.286 N 
ATOM      4  C   UNL d   1     -49.757  14.627  23.187  0.00  0.00     0.083 A 
ATOM      5  C   UNL d   1     -50.576  14.518  23.185  0.00  0.00     0.099 A 
ATOM      6  C   UNL d   1     -49.438  15.341  23.448  0.00  0.00     0.019 A 
ATOM      7  C   UNL d   1     -51.044  15.127  23.443  0.00  0.00     0.021 A 
ATOM      8  C   UNL d   1     -49.932  15.922  23.697  0.00  0.00     0.002 A 
ATOM      9  C   UNL d   1     -50.750  15.813  23.694  0.00  0.00     0.002 A 
ENDROOT
BRANCH   3  10
ATOM     10  C   UNL d   1     -48.658  13.690  22.771  0.00  0.00     0.108 C 
BRANCH  10  11
ATOM     11  C   UNL d   1     -47.996  14.092  23.018  0.00  0.00     0.142 C 
BRANCH  11  12
ATOM     12  O   UNL d   1     -47.243  13.865  22.821  0.00  0.00    -0.304 OA
BRANCH  12  13
ATOM     13  C   UNL d   1     -46.631  13.406  22.870  0.00  0.00     0.100 A 
ATOM     14  C   UNL d   1     -46.203  13.875  22.344  0.00  0.00     0.025 A 
ATOM     15  C   UNL d   1     -45.430  13.668  22.142  0.00  0.00     0.002 A 
ATOM     16  C   UNL d   1     -45.082  12.989  22.466  0.00  0.00     0.000 A 
ATOM     17  C   UNL d   1     -45.511  12.519  22.992  0.00  0.00     0.002 A 
ATOM     18  C   UNL d   1     -46.287  12.729  23.194  0.00  0.00     0.025 A 
ENDBRANCH  12  13
ENDBRANCH  11  12
ENDBRANCH  10  11
ENDBRANCH   3  10
BRANCH   1  19
ATOM     19  C   UNL d   1     -49.907  12.644  22.427  0.00  0.00     0.134 A 
ATOM     20  O   UNL d   1     -49.736  11.987  22.869  0.00  0.00    -0.302 OA
ATOM     21  C   UNL d   1     -49.679  11.337  22.350  0.00  0.00     0.123 A 
ATOM     22  C   UNL d   1     -49.820  11.619  21.586  0.00  0.00     0.029 A 
ATOM     23  C   UNL d   1     -49.962  12.439  21.644  0.00  0.00     0.030 A 
ENDBRANCH   1  19
TORSDOF 5
ENDMDL
MODEL 3
REMARK VINA RESULT:      -5.5      1.030      2.599
REMARK  5 active torsions:
REMARK  status: ('A' for Active; 'I' for Inactive)
REMARK    1  A    between atoms: C_6  and  C_1 
REMARK    2  A    between atoms: C_11  and  N_3 
REMARK    3  A    between atoms: C_14  and  C_11 
REMARK    4  A    between atoms: O_12  and  C_14 
REMARK    5  A    between atoms: C_13  and  O_12 
ROOT
ATOM      1  C   UNL d   1     -49.293  13.230  23.015  0.00  0.00     0.171 A 
ATOM      2  N   UNL d   1     -49.947  13.714  23.169  0.00  0.00    -0.225 NA
ATOM      3  N   UNL d   1     -48.671  13.743  22.819  0.00  0.00    -0.286 N 
ATOM      4  C   UNL d   1     -48.938  14.503  22.854  0.00  0.00     0.083 A 
ATOM      5  C   UNL d   1     -49.735  14.484  23.072  0.00  0.00     0.099 A 
ATOM      6  C   UNL d   1     -48.566  15.225  22.715  0.00  0.00     0.019 A 
ATOM      7  C   UNL d   1     -50.129  15.188  23.144  0.00  0.00     0.021 A 
ATOM      8  C   UNL d   1     -48.987  15.902  22.796  0.00  0.00     0.002 A 
ATOM      9  C   UNL d   1     -49.783  15.884  23.014  0.00  0.00     0.002 A 
ENDROOT
BRANCH   3  10
ATOM     10  C   UNL d   1     -47.969  13.372  22.646  0.00  0.00     0.108 C 
BRANCH  10  11
ATOM     11  C   UNL d   1     -47.246  13.737  22.715  0.00  0.00     0.142 C 
BRANCH  11  12
ATOM     12  O   UNL d   1     -46.543  13.351  22.592  0.00  0.00    -0.304 OA
BRANCH  12  13
ATOM     13  C   UNL d   1     -45.834  13.295  22.307  0.00  0.00     0.100 A 
ATOM     14  C   UNL d   1     -45.702  12.585  22.706  0.00  0.00     0.025 A 
ATOM     15  C   UNL d   1     -44.977  12.197  22.627  0.00  0.00     0.002 A 
ATOM     16  C   UNL d   1     -44.382  12.518  22.149  0.00  0.00     0.000 A 
ATOM     17  C   UNL d   1     -44.514  13.228  21.750  0.00  0.00     0.002 A 
ATOM     18  C   UNL d   1     -45.242  13.617  21.830  0.00  0.00     0.025 A 
ENDBRANCH  12  13
ENDBRANCH  11  12
ENDBRANCH  10  11
ENDBRANCH   3  10
BRANCH   1  19
ATOM     19  C   UNL d   1     -49.264  12.407  23.049  0.00  0.00     0.134 A 
ATOM     20  O   UNL d   1     -49.042  11.974  23.696  0.00  0.00    -0.302 OA
ATOM     21  C   UNL d   1     -49.092  11.167  23.493  0.00  0.00     0.123 A 
ATOM     22  C   UNL d   1     -49.350  11.125  22.710  0.00  0.00     0.029 A 
ATOM     23  C   UNL d   1     -49.455  11.908  22.440  0.00  0.00     0.030 A 
ENDBRANCH   1  19
TORSDOF 5
ENDMDL
MODEL 4
REMARK VINA RESULT:      -5.5      1.190      1.524
REMARK  5 active torsions:
REMARK  status: ('A' for Active; 'I' for Inactive)
REMARK    1  A    between atoms: C_6  and  C_1 
REMARK    2  A    between atoms: C_11  and  N_3 
REMARK    3  A    between atoms: C_14  and  C_11 
REMARK    4  A    between atoms: O_12  and  C_14 
REMARK    5  A    between atoms: C_13  and  O_12 
ROOT
ATOM      1  C   UNL d   1     -48.453  13.562  23.011  0.00  0.00     0.171 A 
ATOM      2  N   UNL d   1     -49.277  13.633  23.052  0.00  0.00    -0.225 NA
ATOM      3  N   UNL d   1     -48.282  12.773  23.200  0.00  0.00    -0.286 N 
ATOM      4  C   UNL d   1     -48.972  12.384  23.348  0.00  0.00     0.083 A 
ATOM      5  C   UNL d   1     -49.593  12.921  23.256  0.00  0.00     0.099 A 
ATOM      6  C   UNL d   1     -49.130  11.603  23.558  0.00  0.00     0.019 A 
ATOM      7  C   UNL d   1     -50.349  12.656  23.377  0.00  0.00     0.021 A 
ATOM      8  C   UNL d   1     -49.891  11.376  23.670  0.00  0.00     0.002 A 
ATOM      9  C   UNL d   1     -50.512  11.912  23.578  0.00  0.00     0.002 A 
ENDROOT
BRANCH   3  10
ATOM     10  C   UNL d   1     -47.490  12.588  23.190  0.00  0.00     0.108 C 
BRANCH  10  11
ATOM     11  C   UNL d   1     -47.191  11.906  23.517  0.00  0.00     0.142 C 
BRANCH  11  12
ATOM     12  O   UNL d   1     -46.426  11.662  23.404  0.00  0.00    -0.304 OA
BRANCH  12  13
ATOM     13  C   UNL d   1     -45.853  11.156  23.462  0.00  0.00     0.100 A 
ATOM     14  C   UNL d   1     -45.318  11.681  23.117  0.00  0.00     0.025 A 
ATOM     15  C   UNL d   1     -44.532  11.457  23.008  0.00  0.00     0.002 A 
ATOM     16  C   UNL d   1     -44.276  10.705  23.244  0.00  0.00     0.000 A 
ATOM     17  C   UNL d   1     -44.811  10.179  23.589  0.00  0.00     0.002 A 
ATOM     18  C   UNL d   1     -45.601  10.406  23.698  0.00  0.00     0.025 A 
ENDBRANCH  12  13
ENDBRANCH  11  12
ENDBRANCH  10  11
ENDBRANCH   3  10
BRANCH   1  19
ATOM     19  C   UNL d   1     -47.913  14.155  22.821  0.00  0.00     0.134 A 
ATOM     20  O   UNL d   1     -47.260  14.349  23.259  0.00  0.00    -0.302 OA
ATOM     21  C   UNL d   1     -46.868  14.975  22.871  0.00  0.00     0.123 A 
ATOM     22  C   UNL d   1     -47.302  15.152  22.191  0.00  0.00     0.029 A 
ATOM     23  C   UNL d   1     -47.955  14.633  22.168  0.00  0.00     0.030 A 
ENDBRANCH   1  19
TORSDOF 5
ENDMDL
MODEL 5
REMARK VINA RESULT:      -5.3      9.247     10.331
REMARK  5 active torsions:
REMARK  status: ('A' for Active; 'I' for Inactive)
REMARK    1  A    between atoms: C_6  and  C_1 
REMARK    2  A    between atoms: C_11  and  N_3 
REMARK    3  A    between atoms: C_14  and  C_11 
REMARK    4  A    between atoms: O_12  and  C_14 
REMARK    5  A    between atoms: C_13  and  O_12 
ROOT
ATOM      1  C   UNL d   1     -39.567  13.879  17.591  0.00  0.00     0.171 A 
ATOM      2  N   UNL d   1     -40.107  14.123  17.012  0.00  0.00    -0.225 NA
ATOM      3  N   UNL d   1     -39.697  14.371  18.246  0.00  0.00    -0.286 N 
ATOM      4  C   UNL d   1     -40.289  14.888  18.071  0.00  0.00     0.083 A 
ATOM      5  C   UNL d   1     -40.545  14.734  17.301  0.00  0.00     0.099 A 
ATOM      6  C   UNL d   1     -40.642  15.492  18.508  0.00  0.00     0.019 A 
ATOM      7  C   UNL d   1     -41.143  15.188  16.997  0.00  0.00     0.021 A 
ATOM      8  C   UNL d   1     -41.232  15.921  18.176  0.00  0.00     0.002 A 
ATOM      9  C   UNL d   1     -41.487  15.766  17.405  0.00  0.00     0.002 A 
ENDROOT
BRANCH   3  10
ATOM     10  C   UNL d   1     -39.215  14.219  18.883  0.00  0.00     0.108 C 
BRANCH  10  11
ATOM     11  C   UNL d   1     -39.410  14.427  19.645  0.00  0.00     0.142 C 
BRANCH  11  12
ATOM     12  O   UNL d   1     -39.110  14.046  20.295  0.00  0.00    -0.304 OA
BRANCH  12  13
ATOM     13  C   UNL d   1     -39.093  13.879  21.043  0.00  0.00     0.100 A 
ATOM     14  C   UNL d   1     -38.321  13.594  20.989  0.00  0.00     0.025 A 
ATOM     15  C   UNL d   1     -37.941  13.304  21.662  0.00  0.00     0.002 A 
ATOM     16  C   UNL d   1     -38.332  13.298  22.392  0.00  0.00     0.000 A 
ATOM     17  C   UNL d   1     -39.104  13.583  22.446  0.00  0.00     0.002 A 
ATOM     18  C   UNL d   1     -39.485  13.874  21.770  0.00  0.00     0.025 A 
ENDBRANCH  12  13
ENDBRANCH  11  12
ENDBRANCH  10  11
ENDBRANCH   3  10
BRANCH   1  19
ATOM     19  C   UNL d   1     -39.013  13.272  17.529  0.00  0.00     0.134 A 
ATOM     20  O   UNL d   1     -39.056  12.560  17.911  0.00  0.00    -0.302 OA
ATOM     21  C   UNL d   1     -38.387  12.112  17.695  0.00  0.00     0.123 A 
ATOM     22  C   UNL d   1     -37.941  12.572  17.174  0.00  0.00     0.029 A 
ATOM     23  C   UNL d   1     -38.341  13.297  17.076  0.00  0.00     0.030 A 
ENDBRANCH   1  19
TORSDOF 5
ENDMDL
MODEL 6
REMARK VINA RESULT:      -5.2      1.385      3.045
REMARK  5 active torsions:
REMARK  status: ('A' for Active; 'I' for Inactive)
REMARK    1  A    between atoms: C_6  and  C_1 
REMARK    2  A    between atoms: C_11  and  N_3 
REMARK    3  A    between atoms: C_14  and  C_11 
REMARK    4  A    between atoms: O_12  and  C_14 
REMARK    5  A    between atoms: C_13  and  O_12 
ROOT
ATOM      1  C   UNL d   1     -48.588  13.121  22.870  0.00  0.00     0.171 A 
ATOM      2  N   UNL d   1     -48.901  13.876  22.736  0.00  0.00    -0.225 NA
ATOM      3  N   UNL d   1     -47.764  13.211  22.871  0.00  0.00    -0.286 N 
ATOM      4  C   UNL d   1     -47.586  13.987  22.743  0.00  0.00     0.083 A 
ATOM      5  C   UNL d   1     -48.295  14.402  22.659  0.00  0.00     0.099 A 
ATOM      6  C   UNL d   1     -46.867  14.386  22.689  0.00  0.00     0.019 A 
ATOM      7  C   UNL d   1     -48.259  15.200  22.524  0.00  0.00     0.021 A 
ATOM      8  C   UNL d   1     -46.868  15.176  22.555  0.00  0.00     0.002 A 
ATOM      9  C   UNL d   1     -47.578  15.591  22.471  0.00  0.00     0.002 A 
ENDROOT
BRANCH   3  10
ATOM     10  C   UNL d   1     -47.349  12.524  22.995  0.00  0.00     0.108 C 
BRANCH  10  11
ATOM     11  C   UNL d   1     -46.651  12.496  23.413  0.00  0.00     0.142 C 
BRANCH  11  12
ATOM     12  O   UNL d   1     -46.202  11.824  23.476  0.00  0.00    -0.304 OA
BRANCH  12  13
ATOM     13  C   UNL d   1     -45.545  11.433  23.427  0.00  0.00     0.100 A 
ATOM     14  C   UNL d   1     -45.916  10.729  23.643  0.00  0.00     0.025 A 
ATOM     15  C   UNL d   1     -45.478  10.032  23.698  0.00  0.00     0.002 A 
ATOM     16  C   UNL d   1     -44.665  10.036  23.537  0.00  0.00     0.000 A 
ATOM     17  C   UNL d   1     -44.294  10.741  23.321  0.00  0.00     0.002 A 
ATOM     18  C   UNL d   1     -44.735  11.440  23.266  0.00  0.00     0.025 A 
ENDBRANCH  12  13
ENDBRANCH  11  12
ENDBRANCH  10  11
ENDBRANCH   3  10
BRANCH   1  19
ATOM     19  C   UNL d   1     -49.010  12.422  22.981  0.00  0.00     0.134 A 
ATOM     20  O   UNL d   1     -49.220  12.111  23.698  0.00  0.00    -0.302 OA
ATOM     21  C   UNL d   1     -49.638  11.404  23.559  0.00  0.00     0.123 A 
ATOM     22  C   UNL d   1     -49.675  11.297  22.741  0.00  0.00     0.029 A 
ATOM     23  C   UNL d   1     -49.279  11.940  22.386  0.00  0.00     0.030 A 
ENDBRANCH   1  19
TORSDOF 5
ENDMDL
MODEL 7
REMARK VINA RESULT:      -3.8      8.425     11.352
REMARK  5 active torsions:
REMARK  status: ('A' for Active; 'I' for Inactive)
REMARK    1  A    between atoms: C_6  and  C_1 
REMARK    2  A    between atoms: C_11  and  N_3 
REMARK    3  A    between atoms: C_14  and  C_11 
REMARK    4  A    between atoms: O_12  and  C_14 
REMARK    5  A    between atoms: C_13  and  O_12 
ROOT
ATOM      1  C   UNL d   1     -38.299  13.513  17.134  0.00  0.00     0.171 A 
ATOM      2  N   UNL d   1     -37.940  13.692  16.410  0.00  0.00    -0.225 NA
ATOM      3  N   UNL d   1     -38.753  14.178  17.335  0.00  0.00    -0.286 N 
ATOM      4  C   UNL d   1     -38.671  14.733  16.757  0.00  0.00     0.083 A 
ATOM      5  C   UNL d   1     -38.164  14.430  16.180  0.00  0.00     0.099 A 
ATOM      6  C   UNL d   1     -38.991  15.488  16.669  0.00  0.00     0.019 A 
ATOM      7  C   UNL d   1     -37.996  14.893  15.537  0.00  0.00     0.021 A 
ATOM      8  C   UNL d   1     -38.803  15.918  16.019  0.00  0.00     0.002 A 
ATOM      9  C   UNL d   1     -38.296  15.615  15.442  0.00  0.00     0.002 A 
ENDROOT
BRANCH   3  10
ATOM     10  C   UNL d   1     -39.155  14.112  18.038  0.00  0.00     0.108 C 
BRANCH  10  11
ATOM     11  C   UNL d   1     -39.857  14.495  18.184  0.00  0.00     0.142 C 
BRANCH  11  12
ATOM     12  O   UNL d   1     -40.196  14.529  18.920  0.00  0.00    -0.304 OA
BRANCH  12  13
ATOM     13  C   UNL d   1     -40.284  14.829  19.620  0.00  0.00     0.100 A 
ATOM     14  C   UNL d   1     -40.937  14.348  19.774  0.00  0.00     0.025 A 
ATOM     15  C   UNL d   1     -41.326  14.402  20.499  0.00  0.00     0.002 A 
ATOM     16  C   UNL d   1     -41.064  14.937  21.075  0.00  0.00     0.000 A 
ATOM     17  C   UNL d   1     -40.411  15.418  20.922  0.00  0.00     0.002 A 
ATOM     18  C   UNL d   1     -40.021  15.363  20.192  0.00  0.00     0.025 A 
ENDBRANCH  12  13
ENDBRANCH  11  12
ENDBRANCH  10  11
ENDBRANCH   3  10
BRANCH   1  19
ATOM     19  C   UNL d   1     -38.222  12.816  17.568  0.00  0.00     0.134 A 
ATOM     20  O   UNL d   1     -38.414  12.077  17.302  0.00  0.00    -0.302 OA
ATOM     21  C   UNL d   1     -38.251  11.533  17.913  0.00  0.00     0.123 A 
ATOM     22  C   UNL d   1     -37.956  11.964  18.553  0.00  0.00     0.029 A 
ATOM     23  C   UNL d   1     -37.941  12.768  18.327  0.00  0.00     0.030 A 
ENDBRANCH   1  19
TORSDOF 5
ENDMDL
MODEL 8
REMARK VINA RESULT:      -3.7      9.311     10.838
REMARK  5 active torsions:
REMARK  status: ('A' for Active; 'I' for Inactive)
REMARK    1  A    between atoms: C_6  and  C_1 
REMARK    2  A    between atoms: C_11  and  N_3 
REMARK    3  A    between atoms: C_14  and  C_11 
REMARK    4  A    between atoms: O_12  and  C_14 
REMARK    5  A    between atoms: C_13  and  O_12 
ROOT
ATOM      1  C   UNL d   1     -39.989  14.899  18.850  0.00  0.00     0.171 A 
ATOM      2  N   UNL d   1     -40.142  14.846  19.662  0.00  0.00    -0.225 NA
ATOM      3  N   UNL d   1     -39.201  14.658  18.750  0.00  0.00    -0.286 N 
ATOM      4  C   UNL d   1     -38.893  14.468  19.470  0.00  0.00     0.083 A 
ATOM      5  C   UNL d   1     -39.480  14.586  20.039  0.00  0.00     0.099 A 
ATOM      6  C   UNL d   1     -38.147  14.200  19.697  0.00  0.00     0.019 A 
ATOM      7  C   UNL d   1     -39.299  14.430  20.814  0.00  0.00     0.021 A 
ATOM      8  C   UNL d   1     -38.004  14.056  20.473  0.00  0.00     0.002 A 
ATOM      9  C   UNL d   1     -38.591  14.174  21.042  0.00  0.00     0.002 A 
ENDROOT
BRANCH   3  10
ATOM     10  C   UNL d   1     -38.940  14.671  17.981  0.00  0.00     0.108 C 
BRANCH  10  11
ATOM     11  C   UNL d   1     -38.207  14.397  17.758  0.00  0.00     0.142 C 
BRANCH  11  12
ATOM     12  O   UNL d   1     -38.014  14.232  16.988  0.00  0.00    -0.304 OA
BRANCH  12  13
ATOM     13  C   UNL d   1     -37.991  14.392  16.238  0.00  0.00     0.100 A 
ATOM     14  C   UNL d   1     -37.981  13.591  16.040  0.00  0.00     0.025 A 
ATOM     15  C   UNL d   1     -37.956  13.363  15.248  0.00  0.00     0.002 A 
ATOM     16  C   UNL d   1     -37.940  13.935  14.649  0.00  0.00     0.000 A 
ATOM     17  C   UNL d   1     -37.949  14.736  14.847  0.00  0.00     0.002 A 
ATOM     18  C   UNL d   1     -37.975  14.964  15.643  0.00  0.00     0.025 A 
ENDBRANCH  12  13
ENDBRANCH  11  12
ENDBRANCH  10  11
ENDBRANCH   3  10
BRANCH   1  19
ATOM     19  C   UNL d   1     -40.511  15.142  18.261  0.00  0.00     0.134 A 
ATOM     20  O   UNL d   1     -40.594  15.901  17.994  0.00  0.00    -0.302 OA
ATOM     21  C   UNL d   1     -41.179  15.902  17.399  0.00  0.00     0.123 A 
ATOM     22  C   UNL d   1     -41.446  15.124  17.316  0.00  0.00     0.029 A 
ATOM     23  C   UNL d   1     -41.022  14.655  17.860  0.00  0.00     0.030 A 
ENDBRANCH   1  19
TORSDOF 5
ENDMDL
MODEL 9
REMARK VINA RESULT:      -3.3      7.027      9.569
REMARK  5 active torsions:
REMARK  status: ('A' for Active; 'I' for Inactive)
REMARK    1  A    between atoms: C_6  and  C_1 
REMARK    2  A    between atoms: C_11  and  N_3 
REMARK    3  A    between atoms: C_14  and  C_11 
REMARK    4  A    between atoms: O_12  and  C_14 
REMARK    5  A    between atoms: C_13  and  O_12 
ROOT
ATOM      1  C   UNL d   1     -40.302  14.521  21.342  0.00  0.00     0.171 A 
ATOM      2  N   UNL d   1     -39.829  14.511  22.021  0.00  0.00    -0.225 NA
ATOM      3  N   UNL d   1     -39.903  14.998  20.792  0.00  0.00    -0.286 N 
ATOM      4  C   UNL d   1     -39.219  15.264  21.125  0.00  0.00     0.083 A 
ATOM      5  C   UNL d   1     -39.173  14.960  21.892  0.00  0.00     0.099 A 
ATOM      6  C   UNL d   1     -38.618  15.749  20.837  0.00  0.00     0.019 A 
ATOM      7  C   UNL d   1     -38.527  15.153  22.342  0.00  0.00     0.021 A 
ATOM      8  C   UNL d   1     -37.994  15.919  21.310  0.00  0.00     0.002 A 
ATOM      9  C   UNL d   1     -37.947  15.615  22.077  0.00  0.00     0.002 A 
ENDROOT
BRANCH   3  10
ATOM     10  C   UNL d   1     -40.283  15.079  20.078  0.00  0.00     0.108 C 
BRANCH  10  11
ATOM     11  C   UNL d   1     -39.964  15.486  19.451  0.00  0.00     0.142 C 
BRANCH  11  12
ATOM     12  O   UNL d   1     -40.329  15.540  18.729  0.00  0.00    -0.304 OA
BRANCH  12  13
ATOM     13  C   UNL d   1     -40.336  15.667  17.973  0.00  0.00     0.100 A 
ATOM     14  C   UNL d   1     -41.158  15.612  17.944  0.00  0.00     0.025 A 
ATOM     15  C   UNL d   1     -41.552  15.704  17.225  0.00  0.00     0.002 A 
ATOM     16  C   UNL d   1     -41.125  15.852  16.531  0.00  0.00     0.000 A 
ATOM     17  C   UNL d   1     -40.302  15.907  16.559  0.00  0.00     0.002 A 
ATOM     18  C   UNL d   1     -39.907  15.814  17.283  0.00  0.00     0.025 A 
ENDBRANCH  12  13
ENDBRANCH  11  12
ENDBRANCH  10  11
ENDBRANCH   3  10
BRANCH   1  19
ATOM     19  C   UNL d   1     -41.023  14.136  21.233  0.00  0.00     0.134 A 
ATOM     20  O   UNL d   1     -41.751  14.467  21.353  0.00  0.00    -0.302 OA
ATOM     21  C   UNL d   1     -42.327  13.889  21.180  0.00  0.00     0.123 A 
ATOM     22  C   UNL d   1     -41.926  13.203  20.953  0.00  0.00     0.029 A 
ATOM     23  C   UNL d   1     -41.109  13.367  20.989  0.00  0.00     0.030 A 
ENDBRANCH   1  19
TORSDOF 5
ENDMDL
