MODEL 1
REMARK VINA RESULT:      -3.9      0.000      0.000
REMARK  5 active torsions:
REMARK  status: ('A' for Active; 'I' for Inactive)
REMARK    1  A    between atoms: N_2  and  S_1 
REMARK    2  A    between atoms: C_10  and  S_1 
REMARK    3  A    between atoms: S_6  and  C_3 
REMARK    4  A    between atoms: C_4  and  C_7 
REMARK    5  A    between atoms: C_7  and  S_6 
ROOT
ATOM      1  N   UNL d   1     -41.378-122.240 -52.478  0.00  0.00    -0.208 N 
ATOM      2  C   UNL d   1     -41.570-122.086 -51.683  0.00  0.00     0.189 A 
ATOM      3  N   UNL d   1     -41.433-121.280 -51.532  0.00  0.00    -0.219 NA
ATOM      4  C   UNL d   1     -41.123-121.524 -52.817  0.00  0.00     0.114 A 
ATOM      5  C   UNL d   1     -41.158-120.938 -52.234  0.00  0.00     0.121 A 
ENDROOT
BRANCH   2   6
ATOM      6  S   UNL d   1     -41.849-122.648 -51.140  0.00  0.00    -0.049 SA
BRANCH   6   7
ATOM      7  C   UNL d   1     -41.996-122.418 -50.359  0.00  0.00     0.041 C 
BRANCH   7   8
ATOM      8  C   UNL d   1     -42.383-122.874 -49.797  0.00  0.00     0.045 A 
ATOM      9  C   UNL d   1     -43.201-122.960 -49.822  0.00  0.00     0.141 A 
ATOM     10  F   UNL d   1     -43.645-122.586 -50.418  0.00  0.00    -0.204 F 
ATOM     11  C   UNL d   1     -43.591-123.422 -49.252  0.00  0.00     0.030 A 
ATOM     12  C   UNL d   1     -43.147-123.796 -48.656  0.00  0.00     0.003 A 
ATOM     13  C   UNL d   1     -42.328-123.710 -48.632  0.00  0.00     0.012 A 
ATOM     14  C   UNL d   1     -41.942-123.247 -49.204  0.00  0.00     0.060 A 
ATOM     15 CL   UNL d   1     -41.123-123.167 -49.170  0.00  0.00    -0.082 Cl
ENDBRANCH   7   8
ENDBRANCH   6   7
ENDBRANCH   2   6
BRANCH   1  16
ATOM     16  S   UNL d   1     -41.430-122.969 -52.866  0.00  0.00     0.273 S 
ATOM     17  O   UNL d   1     -41.143-123.310 -52.169  0.00  0.00    -0.200 OA
ATOM     18  O   UNL d   1     -41.391-123.781 -53.023  0.00  0.00    -0.200 OA
BRANCH  16  19
ATOM     19  C   UNL d   1     -41.716-122.648 -53.567  0.00  0.00     0.104 A 
ATOM     20  C   UNL d   1     -42.446-122.274 -53.571  0.00  0.00     0.013 A 
ATOM     21  C   UNL d   1     -42.729-121.955 -54.275  0.00  0.00     0.001 A 
ATOM     22  C   UNL d   1     -42.290-122.007 -54.967  0.00  0.00     0.000 A 
ATOM     23  C   UNL d   1     -41.553-122.387 -54.954  0.00  0.00     0.001 A 
ATOM     24  C   UNL d   1     -41.269-122.707 -54.250  0.00  0.00     0.013 A 
ENDBRANCH  16  19
ENDBRANCH   1  16
TORSDOF 5
ENDMDL
MODEL 2
REMARK VINA RESULT:      -3.0      1.742      4.328
REMARK  5 active torsions:
REMARK  status: ('A' for Active; 'I' for Inactive)
REMARK    1  A    between atoms: N_2  and  S_1 
REMARK    2  A    between atoms: C_10  and  S_1 
REMARK    3  A    between atoms: S_6  and  C_3 
REMARK    4  A    between atoms: C_4  and  C_7 
REMARK    5  A    between atoms: C_7  and  S_6 
ROOT
ATOM      1  N   UNL d   1     -41.646-122.580 -51.272  0.00  0.00    -0.208 N 
ATOM      2  C   UNL d   1     -41.618-122.853 -52.058  0.00  0.00     0.189 A 
ATOM      3  N   UNL d   1     -41.295-123.620 -52.058  0.00  0.00    -0.219 NA
ATOM      4  C   UNL d   1     -41.338-123.181 -50.787  0.00  0.00     0.114 A 
ATOM      5  C   UNL d   1     -41.123-123.817 -51.272  0.00  0.00     0.121 A 
ENDROOT
BRANCH   2   6
ATOM      6  S   UNL d   1     -41.872-122.428 -52.724  0.00  0.00    -0.049 SA
BRANCH   6   7
ATOM      7  C   UNL d   1     -41.935-122.814 -53.452  0.00  0.00     0.041 C 
BRANCH   7   8
ATOM      8  C   UNL d   1     -41.978-122.442 -54.182  0.00  0.00     0.045 A 
ATOM      9  C   UNL d   1     -42.422-121.756 -54.275  0.00  0.00     0.141 A 
ATOM     10  F   UNL d   1     -42.833-121.430 -53.628  0.00  0.00    -0.204 F 
ATOM     11  C   UNL d   1     -42.465-121.380 -55.014  0.00  0.00     0.030 A 
ATOM     12  C   UNL d   1     -42.054-121.706 -55.661  0.00  0.00     0.003 A 
ATOM     13  C   UNL d   1     -41.610-122.392 -55.568  0.00  0.00     0.012 A 
ATOM     14  C   UNL d   1     -41.570-122.765 -54.826  0.00  0.00     0.060 A 
ATOM     15 CL   UNL d   1     -41.123-123.452 -54.744  0.00  0.00    -0.082 Cl
ENDBRANCH   7   8
ENDBRANCH   6   7
ENDBRANCH   2   6
BRANCH   1  16
ATOM     16  S   UNL d   1     -41.927-121.846 -51.016  0.00  0.00     0.273 S 
ATOM     17  O   UNL d   1     -41.460-121.509 -51.609  0.00  0.00    -0.200 OA
ATOM     18  O   UNL d   1     -42.053-121.030 -50.953  0.00  0.00    -0.200 OA
BRANCH  16  19
ATOM     19  C   UNL d   1     -42.398-122.162 -50.420  0.00  0.00     0.104 A 
ATOM     20  C   UNL d   1     -43.194-122.296 -50.565  0.00  0.00     0.013 A 
ATOM     21  C   UNL d   1     -43.662-122.613 -49.966  0.00  0.00     0.001 A 
ATOM     22  C   UNL d   1     -43.341-122.794 -49.232  0.00  0.00     0.000 A 
ATOM     23  C   UNL d   1     -42.535-122.654 -49.095  0.00  0.00     0.001 A 
ATOM     24  C   UNL d   1     -42.067-122.338 -49.693  0.00  0.00     0.013 A 
ENDBRANCH  16  19
ENDBRANCH   1  16
TORSDOF 5
ENDMDL
MODEL 3
REMARK VINA RESULT:      -3.0      1.697      4.243
REMARK  5 active torsions:
REMARK  status: ('A' for Active; 'I' for Inactive)
REMARK    1  A    between atoms: N_2  and  S_1 
REMARK    2  A    between atoms: C_10  and  S_1 
REMARK    3  A    between atoms: S_6  and  C_3 
REMARK    4  A    between atoms: C_4  and  C_7 
REMARK    5  A    between atoms: C_7  and  S_6 
ROOT
ATOM      1  N   UNL d   1     -41.408-122.197 -51.287  0.00  0.00    -0.208 N 
ATOM      2  C   UNL d   1     -41.463-121.868 -52.050  0.00  0.00     0.189 A 
ATOM      3  N   UNL d   1     -41.301-121.054 -51.997  0.00  0.00    -0.219 NA
ATOM      4  C   UNL d   1     -41.211-121.582 -50.764  0.00  0.00     0.114 A 
ATOM      5  C   UNL d   1     -41.146-120.882 -51.201  0.00  0.00     0.121 A 
ENDROOT
BRANCH   2   6
ATOM      6  S   UNL d   1     -41.649-122.288 -52.742  0.00  0.00    -0.049 SA
BRANCH   6   7
ATOM      7  C   UNL d   1     -41.525-121.931 -53.477  0.00  0.00     0.041 C 
BRANCH   7   8
ATOM      8  C   UNL d   1     -41.850-122.186 -54.186  0.00  0.00     0.045 A 
ATOM      9  C   UNL d   1     -41.654-122.924 -54.494  0.00  0.00     0.141 A 
ATOM     10  F   UNL d   1     -41.123-123.420 -54.089  0.00  0.00    -0.204 F 
ATOM     11  C   UNL d   1     -41.984-123.180 -55.212  0.00  0.00     0.030 A 
ATOM     12  C   UNL d   1     -42.515-122.683 -55.617  0.00  0.00     0.003 A 
ATOM     13  C   UNL d   1     -42.711-121.946 -55.309  0.00  0.00     0.012 A 
ATOM     14  C   UNL d   1     -42.379-121.693 -54.591  0.00  0.00     0.060 A 
ATOM     15 CL   UNL d   1     -42.582-120.953 -54.291  0.00  0.00    -0.082 Cl
ENDBRANCH   7   8
ENDBRANCH   6   7
ENDBRANCH   2   6
BRANCH   1  16
ATOM     16  S   UNL d   1     -41.526-122.990 -51.083  0.00  0.00     0.273 S 
ATOM     17  O   UNL d   1     -41.135-123.183 -51.785  0.00  0.00    -0.200 OA
ATOM     18  O   UNL d   1     -41.518-123.817 -51.105  0.00  0.00    -0.200 OA
BRANCH  16  19
ATOM     19  C   UNL d   1     -41.918-122.817 -50.381  0.00  0.00     0.104 A 
ATOM     20  C   UNL d   1     -41.496-122.800 -49.678  0.00  0.00     0.013 A 
ATOM     21  C   UNL d   1     -41.891-122.627 -48.977  0.00  0.00     0.001 A 
ATOM     22  C   UNL d   1     -42.698-122.473 -48.976  0.00  0.00     0.000 A 
ATOM     23  C   UNL d   1     -43.117-122.492 -49.692  0.00  0.00     0.001 A 
ATOM     24  C   UNL d   1     -42.721-122.665 -50.393  0.00  0.00     0.013 A 
ENDBRANCH  16  19
ENDBRANCH   1  16
TORSDOF 5
ENDMDL
MODEL 4
REMARK VINA RESULT:      -3.0      1.291      1.617
REMARK  5 active torsions:
REMARK  status: ('A' for Active; 'I' for Inactive)
REMARK    1  A    between atoms: N_2  and  S_1 
REMARK    2  A    between atoms: C_10  and  S_1 
REMARK    3  A    between atoms: S_6  and  C_3 
REMARK    4  A    between atoms: C_4  and  C_7 
REMARK    5  A    between atoms: C_7  and  S_6 
ROOT
ATOM      1  N   UNL d   1     -41.410-122.541 -52.705  0.00  0.00    -0.208 N 
ATOM      2  C   UNL d   1     -41.578-123.013 -52.040  0.00  0.00     0.189 A 
ATOM      3  N   UNL d   1     -41.400-123.804 -52.229  0.00  0.00    -0.219 NA
ATOM      4  C   UNL d   1     -41.128-123.044 -53.304  0.00  0.00     0.114 A 
ATOM      5  C   UNL d   1     -41.123-123.817 -53.009  0.00  0.00     0.121 A 
ENDROOT
BRANCH   2   6
ATOM      6  S   UNL d   1     -41.872-122.736 -51.316  0.00  0.00    -0.049 SA
BRANCH   6   7
ATOM      7  C   UNL d   1     -42.266-123.259 -50.811  0.00  0.00     0.041 C 
BRANCH   7   8
ATOM      8  C   UNL d   1     -42.408-123.130 -50.013  0.00  0.00     0.045 A 
ATOM      9  C   UNL d   1     -41.844-123.337 -49.451  0.00  0.00     0.141 A 
ATOM     10  F   UNL d   1     -41.123-123.680 -49.685  0.00  0.00    -0.204 F 
ATOM     11  C   UNL d   1     -41.988-123.206 -48.644  0.00  0.00     0.030 A 
ATOM     12  C   UNL d   1     -42.709-122.862 -48.409  0.00  0.00     0.003 A 
ATOM     13  C   UNL d   1     -43.273-122.655 -48.972  0.00  0.00     0.012 A 
ATOM     14  C   UNL d   1     -43.124-122.788 -49.778  0.00  0.00     0.060 A 
ATOM     15 CL   UNL d   1     -43.696-122.577 -50.333  0.00  0.00    -0.082 Cl
ENDBRANCH   7   8
ENDBRANCH   6   7
ENDBRANCH   2   6
BRANCH   1  16
ATOM     16  S   UNL d   1     -41.505-121.721 -52.763  0.00  0.00     0.273 S 
ATOM     17  O   UNL d   1     -41.123-121.670 -52.031  0.00  0.00    -0.200 OA
ATOM     18  O   UNL d   1     -41.477-120.912 -52.590  0.00  0.00    -0.200 OA
BRANCH  16  19
ATOM     19  C   UNL d   1     -41.887-121.753 -53.490  0.00  0.00     0.104 A 
ATOM     20  C   UNL d   1     -42.706-121.723 -53.518  0.00  0.00     0.013 A 
ATOM     21  C   UNL d   1     -43.084-121.755 -54.248  0.00  0.00     0.001 A 
ATOM     22  C   UNL d   1     -42.652-121.815 -54.943  0.00  0.00     0.000 A 
ATOM     23  C   UNL d   1     -41.823-121.844 -54.907  0.00  0.00     0.001 A 
ATOM     24  C   UNL d   1     -41.445-121.812 -54.176  0.00  0.00     0.013 A 
ENDBRANCH  16  19
ENDBRANCH   1  16
TORSDOF 5
ENDMDL
MODEL 5
REMARK VINA RESULT:      -0.9      1.674      4.399
REMARK  5 active torsions:
REMARK  status: ('A' for Active; 'I' for Inactive)
REMARK    1  A    between atoms: N_2  and  S_1 
REMARK    2  A    between atoms: C_10  and  S_1 
REMARK    3  A    between atoms: S_6  and  C_3 
REMARK    4  A    between atoms: C_4  and  C_7 
REMARK    5  A    between atoms: C_7  and  S_6 
ROOT
ATOM      1  N   UNL d   1     -42.285-122.498 -50.021  0.00  0.00    -0.208 N 
ATOM      2  C   UNL d   1     -41.893-122.240 -50.708  0.00  0.00     0.189 A 
ATOM      3  N   UNL d   1     -41.483-121.539 -50.528  0.00  0.00    -0.219 NA
ATOM      4  C   UNL d   1     -42.115-121.953 -49.416  0.00  0.00     0.114 A 
ATOM      5  C   UNL d   1     -41.623-121.366 -49.730  0.00  0.00     0.121 A 
ENDROOT
BRANCH   2   6
ATOM      6  S   UNL d   1     -41.912-122.623 -51.444  0.00  0.00    -0.049 SA
BRANCH   6   7
ATOM      7  C   UNL d   1     -41.567-122.256 -52.100  0.00  0.00     0.041 C 
BRANCH   7   8
ATOM      8  C   UNL d   1     -41.607-122.533 -52.871  0.00  0.00     0.045 A 
ATOM      9  C   UNL d   1     -41.389-123.307 -53.049  0.00  0.00     0.141 A 
ATOM     10  F   UNL d   1     -41.125-123.817 -52.446  0.00  0.00    -0.204 F 
ATOM     11  C   UNL d   1     -41.430-123.586 -53.829  0.00  0.00     0.030 A 
ATOM     12  C   UNL d   1     -41.695-123.076 -54.431  0.00  0.00     0.003 A 
ATOM     13  C   UNL d   1     -41.913-122.302 -54.254  0.00  0.00     0.012 A 
ATOM     14  C   UNL d   1     -41.870-122.027 -53.471  0.00  0.00     0.060 A 
ATOM     15 CL   UNL d   1     -42.091-121.251 -53.305  0.00  0.00    -0.082 Cl
ENDBRANCH   7   8
ENDBRANCH   6   7
ENDBRANCH   2   6
BRANCH   1  16
ATOM     16  S   UNL d   1     -42.759-123.172 -49.948  0.00  0.00     0.273 S 
ATOM     17  O   UNL d   1     -42.967-123.058 -50.740  0.00  0.00    -0.200 OA
ATOM     18  O   UNL d   1     -43.282-123.789 -50.125  0.00  0.00    -0.200 OA
BRANCH  16  19
ATOM     19  C   UNL d   1     -42.564-123.303 -49.159  0.00  0.00     0.104 A 
ATOM     20  C   UNL d   1     -41.864-123.689 -48.975  0.00  0.00     0.013 A 
ATOM     21  C   UNL d   1     -41.672-123.817 -48.185  0.00  0.00     0.001 A 
ATOM     22  C   UNL d   1     -42.172-123.564 -47.585  0.00  0.00     0.000 A 
ATOM     23  C   UNL d   1     -42.878-123.174 -47.780  0.00  0.00     0.001 A 
ATOM     24  C   UNL d   1     -43.070-123.045 -48.570  0.00  0.00     0.013 A 
ENDBRANCH  16  19
ENDBRANCH   1  16
TORSDOF 5
ENDMDL
