MODEL 1
REMARK VINA RESULT:      -5.4      0.000      0.000
REMARK  4 active torsions:
REMARK  status: ('A' for Active; 'I' for Inactive)
REMARK    1  A    between atoms: N_2  and  S_1 
REMARK    2  A    between atoms: C_4  and  S_1 
REMARK    3  A    between atoms: C_3  and  C_9 
REMARK       I    between atoms: N_5  and  C_3 
REMARK    4  A    between atoms: C_6  and  N_5 
ROOT
ATOM      1  C   UNL d   1     -41.606-122.118 -50.858  0.00  0.00     0.104 A 
ATOM      2  C   UNL d   1     -41.456-121.976 -52.272  0.00  0.00     0.059 A 
ATOM      3  C   UNL d   1     -41.667-122.434 -51.623  0.00  0.00     0.018 A 
ATOM      4  C   UNL d   1     -41.335-121.348 -50.751  0.00  0.00     0.013 A 
ATOM      5  C   UNL d   1     -41.184-121.206 -52.164  0.00  0.00     0.005 A 
ATOM      6  C   UNL d   1     -41.124-120.891 -51.396  0.00  0.00     0.001 A 
ENDROOT
BRANCH   1   7
ATOM      7  S   UNL d   1     -41.817-122.575 -50.214  0.00  0.00     0.271 S 
ATOM      8  O   UNL d   1     -42.230-121.896 -50.089  0.00  0.00    -0.200 OA
ATOM      9  O   UNL d   1     -41.410-123.291 -50.304  0.00  0.00    -0.200 OA
BRANCH   7  10
ATOM     10  N   UNL d   1     -42.084-122.958 -49.540  0.00  0.00    -0.229 N 
ATOM     11  C   UNL d   1     -42.893-123.184 -49.523  0.00  0.00     0.092 A 
ATOM     12  C   UNL d   1     -43.228-123.526 -48.977  0.00  0.00     0.020 A 
ATOM     13  C   UNL d   1     -42.990-123.817 -48.203  0.00  0.00     0.002 A 
ATOM     14  C   UNL d   1     -42.343-123.812 -47.833  0.00  0.00     0.002 A 
ATOM     15  C   UNL d   1     -41.616-123.488 -48.110  0.00  0.00     0.020 A 
ATOM     16  C   UNL d   1     -41.495-123.093 -48.899  0.00  0.00     0.092 A 
ENDBRANCH   7  10
ENDBRANCH   1   7
BRANCH   2  17
ATOM     17  C   UNL d   1     -41.517-122.291 -53.036  0.00  0.00     0.281 C 
ATOM     18  N   UNL d   1     -41.746-121.799 -53.659  0.00  0.00    -0.187 NA
ATOM     19  O   UNL d   1     -41.350-123.084 -53.159  0.00  0.00    -0.265 OA
BRANCH  18  20
ATOM     20  C   UNL d   1     -41.804-122.116 -54.414  0.00  0.00     0.194 A 
ATOM     21  N   UNL d   1     -41.272-122.638 -54.769  0.00  0.00    -0.106 NA
ATOM     22  O   UNL d   1     -41.549-122.809 -55.523  0.00  0.00    -0.207 OA
ATOM     23  C   UNL d   1     -42.255-122.393 -55.637  0.00  0.00     0.153 A 
ATOM     24  C   UNL d   1     -42.413-121.967 -54.958  0.00  0.00     0.070 A 
ENDBRANCH  18  20
ENDBRANCH   2  17
TORSDOF 4
ENDMDL
MODEL 2
REMARK VINA RESULT:      -5.1      1.108      4.967
REMARK  4 active torsions:
REMARK  status: ('A' for Active; 'I' for Inactive)
REMARK    1  A    between atoms: N_2  and  S_1 
REMARK    2  A    between atoms: C_4  and  S_1 
REMARK    3  A    between atoms: C_3  and  C_9 
REMARK       I    between atoms: N_5  and  C_3 
REMARK    4  A    between atoms: C_6  and  N_5 
ROOT
ATOM      1  C   UNL d   1     -41.559-122.048 -52.085  0.00  0.00     0.104 A 
ATOM      2  C   UNL d   1     -41.731-122.337 -50.697  0.00  0.00     0.059 A 
ATOM      3  C   UNL d   1     -41.819-122.557 -51.484  0.00  0.00     0.018 A 
ATOM      4  C   UNL d   1     -41.214-121.326 -51.893  0.00  0.00     0.013 A 
ATOM      5  C   UNL d   1     -41.386-121.614 -50.505  0.00  0.00     0.005 A 
ATOM      6  C   UNL d   1     -41.125-121.105 -51.110  0.00  0.00     0.001 A 
ENDROOT
BRANCH   1   7
ATOM      7  S   UNL d   1     -41.648-122.268 -52.867  0.00  0.00     0.271 S 
ATOM      8  O   UNL d   1     -41.195-121.605 -52.923  0.00  0.00    -0.200 OA
ATOM      9  O   UNL d   1     -42.112-122.954 -52.856  0.00  0.00    -0.200 OA
BRANCH   7  10
ATOM     10  N   UNL d   1     -41.681-122.411 -53.674  0.00  0.00    -0.229 N 
ATOM     11  C   UNL d   1     -41.173-123.005 -53.980  0.00  0.00     0.092 A 
ATOM     12  C   UNL d   1     -41.125-123.208 -54.676  0.00  0.00     0.020 A 
ATOM     13  C   UNL d   1     -41.510-122.969 -55.408  0.00  0.00     0.002 A 
ATOM     14  C   UNL d   1     -42.032-122.462 -55.568  0.00  0.00     0.002 A 
ATOM     15  C   UNL d   1     -42.410-121.949 -55.016  0.00  0.00     0.020 A 
ATOM     16  C   UNL d   1     -42.249-121.924 -54.140  0.00  0.00     0.092 A 
ENDBRANCH   7  10
ENDBRANCH   1   7
BRANCH   2  17
ATOM     17  C   UNL d   1     -41.991-122.845 -50.096  0.00  0.00     0.281 C 
ATOM     18  N   UNL d   1     -42.213-122.527 -49.366  0.00  0.00    -0.187 NA
ATOM     19  O   UNL d   1     -42.024-123.652 -50.237  0.00  0.00    -0.265 OA
BRANCH  18  20
ATOM     20  C   UNL d   1     -42.469-123.034 -48.774  0.00  0.00     0.194 A 
ATOM     21  N   UNL d   1     -43.234-123.335 -48.683  0.00  0.00    -0.106 NA
ATOM     22  O   UNL d   1     -43.240-123.817 -48.019  0.00  0.00    -0.207 OA
ATOM     23  C   UNL d   1     -42.478-123.817 -47.695  0.00  0.00     0.153 A 
ATOM     24  C   UNL d   1     -42.005-123.338 -48.157  0.00  0.00     0.070 A 
ENDBRANCH  18  20
ENDBRANCH   2  17
TORSDOF 4
ENDMDL
