MODEL 1
REMARK VINA RESULT:      -6.5      0.000      0.000
REMARK  4 active torsions:
REMARK  status: ('A' for Active; 'I' for Inactive)
REMARK    1  A    between atoms: P_2  and  C_1 
REMARK    2  A    between atoms: N_3  and  C_1 
REMARK    3  A    between atoms: C_5  and  C_1 
REMARK       I    between atoms: C_4  and  N_3 
REMARK    4  A    between atoms: C_6  and  C_4 
ROOT
ATOM      1  C   UNL d   1     -48.906  12.457  22.413  0.00  0.00     0.196 C 
ENDROOT
BRANCH   1   2
ATOM      2  P   UNL d   1     -49.244  11.870  22.914  0.00  0.00     0.317 P 
ATOM      3  O   UNL d   1     -49.711  12.440  23.290  0.00  0.00    -0.635 OA
ATOM      4  O   UNL d   1     -49.567  11.264  23.402  0.00  0.00    -0.635 OA
ATOM      5  O   UNL d   1     -48.762  11.285  22.524  0.00  0.00    -0.635 OA
ENDBRANCH   1   2
BRANCH   1   6
ATOM      6  N   UNL d   1     -48.107  12.697  22.482  0.00  0.00    -0.201 NA
ATOM      7  C   UNL d   1     -47.917  13.372  22.896  0.00  0.00     0.255 C 
ATOM      8  O   UNL d   1     -48.517  13.810  23.242  0.00  0.00    -0.270 OA
BRANCH   7   9
ATOM      9  C   UNL d   1     -47.140  13.601  22.960  0.00  0.00     0.073 C 
ATOM     10  C   UNL d   1     -46.915  14.355  22.710  0.00  0.00     0.009 C 
ATOM     11  C   UNL d   1     -46.577  13.077  23.274  0.00  0.00     0.009 C 
ATOM     12  C   UNL d   1     -46.284  13.886  23.017  0.00  0.00     0.009 C 
ENDBRANCH   7   9
ENDBRANCH   1   6
BRANCH   1  13
ATOM     13  C   UNL d   1     -49.375  12.806  21.835  0.00  0.00     0.142 C 
ATOM     14 CL   UNL d   1     -49.151  12.667  21.104  0.00  0.00    -0.068 Cl
ATOM     15 CL   UNL d   1     -50.062  13.287  22.072  0.00  0.00    -0.068 Cl
ENDBRANCH   1  13
TORSDOF 4
ENDMDL
MODEL 2
REMARK VINA RESULT:      -6.3      1.232      1.372
REMARK  4 active torsions:
REMARK  status: ('A' for Active; 'I' for Inactive)
REMARK    1  A    between atoms: P_2  and  C_1 
REMARK    2  A    between atoms: N_3  and  C_1 
REMARK    3  A    between atoms: C_5  and  C_1 
REMARK       I    between atoms: C_4  and  N_3 
REMARK    4  A    between atoms: C_6  and  C_4 
ROOT
ATOM      1  C   UNL d   1     -48.845  12.736  22.122  0.00  0.00     0.196 C 
ENDROOT
BRANCH   1   2
ATOM      2  P   UNL d   1     -49.423  13.148  21.667  0.00  0.00     0.317 P 
ATOM      3  O   UNL d   1     -49.824  13.372  22.354  0.00  0.00    -0.635 OA
ATOM      4  O   UNL d   1     -49.987  13.551  21.188  0.00  0.00    -0.635 OA
ATOM      5  O   UNL d   1     -49.007  12.914  20.960  0.00  0.00    -0.635 OA
ENDBRANCH   1   2
BRANCH   1   6
ATOM      6  N   UNL d   1     -48.048  12.988  22.165  0.00  0.00    -0.201 NA
ATOM      7  C   UNL d   1     -47.794  13.439  22.793  0.00  0.00     0.255 C 
ATOM      8  O   UNL d   1     -48.329  13.642  23.380  0.00  0.00    -0.270 OA
BRANCH   7   9
ATOM      9  C   UNL d   1     -47.019  13.680  22.830  0.00  0.00     0.073 C 
ATOM     10  C   UNL d   1     -46.836  14.479  22.729  0.00  0.00     0.009 C 
ATOM     11  C   UNL d   1     -46.417  13.125  22.968  0.00  0.00     0.009 C 
ATOM     12  C   UNL d   1     -46.168  13.982  22.865  0.00  0.00     0.009 C 
ENDBRANCH   7   9
ENDBRANCH   1   6
BRANCH   1  13
ATOM     13  C   UNL d   1     -49.070  12.064  22.538  0.00  0.00     0.142 C 
ATOM     14 CL   UNL d   1     -48.752  11.401  22.285  0.00  0.00    -0.068 Cl
ATOM     15 CL   UNL d   1     -49.626  12.137  23.205  0.00  0.00    -0.068 Cl
ENDBRANCH   1  13
TORSDOF 4
ENDMDL
MODEL 3
REMARK VINA RESULT:      -6.3      2.098      2.806
REMARK  4 active torsions:
REMARK  status: ('A' for Active; 'I' for Inactive)
REMARK    1  A    between atoms: P_2  and  C_1 
REMARK    2  A    between atoms: N_3  and  C_1 
REMARK    3  A    between atoms: C_5  and  C_1 
REMARK       I    between atoms: C_4  and  N_3 
REMARK    4  A    between atoms: C_6  and  C_4 
ROOT
ATOM      1  C   UNL d   1     -47.287  13.276  22.981  0.00  0.00     0.196 C 
ENDROOT
BRANCH   1   2
ATOM      2  P   UNL d   1     -46.489  13.447  22.773  0.00  0.00     0.317 P 
ATOM      3  O   UNL d   1     -46.632  13.231  21.987  0.00  0.00    -0.635 OA
ATOM      4  O   UNL d   1     -45.685  13.626  22.592  0.00  0.00    -0.635 OA
ATOM      5  O   UNL d   1     -46.344  13.670  23.583  0.00  0.00    -0.635 OA
ENDBRANCH   1   2
BRANCH   1   6
ATOM      6  N   UNL d   1     -47.836  13.876  23.179  0.00  0.00    -0.201 NA
ATOM      7  C   UNL d   1     -48.386  14.125  22.633  0.00  0.00     0.255 C 
ATOM      8  O   UNL d   1     -48.394  13.780  21.889  0.00  0.00    -0.270 OA
BRANCH   7   9
ATOM      9  C   UNL d   1     -48.917  14.708  22.831  0.00  0.00     0.073 C 
ATOM     10  C   UNL d   1     -48.802  15.475  22.550  0.00  0.00     0.009 C 
ATOM     11  C   UNL d   1     -49.569  14.530  23.313  0.00  0.00     0.009 C 
ATOM     12  C   UNL d   1     -49.487  15.379  23.032  0.00  0.00     0.009 C 
ENDBRANCH   7   9
ENDBRANCH   1   6
BRANCH   1  13
ATOM     13  C   UNL d   1     -47.537  12.493  22.990  0.00  0.00     0.142 C 
ATOM     14 CL   UNL d   1     -47.604  12.180  23.698  0.00  0.00    -0.068 Cl
ATOM     15 CL   UNL d   1     -47.704  12.086  22.238  0.00  0.00    -0.068 Cl
ENDBRANCH   1  13
TORSDOF 4
ENDMDL
MODEL 4
REMARK VINA RESULT:      -6.0      1.697      2.148
REMARK  4 active torsions:
REMARK  status: ('A' for Active; 'I' for Inactive)
REMARK    1  A    between atoms: P_2  and  C_1 
REMARK    2  A    between atoms: N_3  and  C_1 
REMARK    3  A    between atoms: C_5  and  C_1 
REMARK       I    between atoms: C_4  and  N_3 
REMARK    4  A    between atoms: C_6  and  C_4 
ROOT
ATOM      1  C   UNL d   1     -48.738  12.858  22.542  0.00  0.00     0.196 C 
ENDROOT
BRANCH   1   2
ATOM      2  P   UNL d   1     -49.082  12.128  22.786  0.00  0.00     0.317 P 
ATOM      3  O   UNL d   1     -49.500  12.071  22.075  0.00  0.00    -0.635 OA
ATOM      4  O   UNL d   1     -49.411  11.401  23.055  0.00  0.00    -0.635 OA
ATOM      5  O   UNL d   1     -48.649  12.191  23.519  0.00  0.00    -0.635 OA
ENDBRANCH   1   2
BRANCH   1   6
ATOM      6  N   UNL d   1     -48.917  13.584  22.917  0.00  0.00    -0.201 NA
ATOM      7  C   UNL d   1     -49.462  14.091  22.589  0.00  0.00     0.255 C 
ATOM      8  O   UNL d   1     -49.832  13.880  21.888  0.00  0.00    -0.270 OA
BRANCH   7   9
ATOM      9  C   UNL d   1     -49.632  14.795  22.957  0.00  0.00     0.073 C 
ATOM     10  C   UNL d   1     -50.254  14.832  23.499  0.00  0.00     0.009 C 
ATOM     11  C   UNL d   1     -49.182  15.472  22.789  0.00  0.00     0.009 C 
ATOM     12  C   UNL d   1     -49.848  15.562  23.385  0.00  0.00     0.009 C 
ENDBRANCH   7   9
ENDBRANCH   1   6
BRANCH   1  13
ATOM     13  C   UNL d   1     -48.208  12.858  21.914  0.00  0.00     0.142 C 
ATOM     14 CL   UNL d   1     -47.470  13.006  22.109  0.00  0.00    -0.068 Cl
ATOM     15 CL   UNL d   1     -48.497  12.699  21.108  0.00  0.00    -0.068 Cl
ENDBRANCH   1  13
TORSDOF 4
ENDMDL
