MODEL 1
REMARK VINA RESULT:      56.9      0.000      0.000
REMARK  5 active torsions:
REMARK  status: ('A' for Active; 'I' for Inactive)
REMARK    1  A    between atoms: C_3  and  C_1 
REMARK    2  A    between atoms: N_2  and  C_11 
REMARK    3  A    between atoms: N_6  and  C_3 
REMARK    4  A    between atoms: C_14  and  C_5 
REMARK    5  A    between atoms: C_10  and  N_7 
ROOT
ATOM      1  C   UNL d   1      14.494  12.851  -0.763  0.00  0.00     0.143 C 
ATOM      2  S   UNL d   1      14.378  12.257  -0.225  0.00  0.00    -0.057 SA
ENDROOT
BRANCH   1   3
ATOM      3  C   UNL d   1      14.883  13.527  -0.567  0.00  0.00     0.126 A 
ATOM      4  O   UNL d   1      14.722  14.317  -0.762  0.00  0.00    -0.305 OA
ATOM      5  C   UNL d   1      15.311  14.782  -0.405  0.00  0.00     0.100 A 
ATOM      6  C   UNL d   1      15.804  14.302  -0.015  0.00  0.00     0.027 A 
ATOM      7  C   UNL d   1      15.556  13.515  -0.102  0.00  0.00     0.029 A 
BRANCH   5   8
ATOM      8  C   UNL d   1      15.438  15.580  -0.402  0.00  0.00     0.023 A 
ATOM      9  C   UNL d   1      14.822  16.112  -0.583  0.00  0.00     0.004 A 
ATOM     10  C   UNL d   1      14.967  16.926  -0.576  0.00  0.00     0.024 A 
ATOM     11  C   UNL d   1      15.715  17.227  -0.393  0.00  0.00     0.127 A 
ATOM     12  C   UNL d   1      16.327  16.677  -0.213  0.00  0.00     0.024 A 
ATOM     13  C   UNL d   1      16.187  15.881  -0.219  0.00  0.00     0.004 A 
BRANCH  11  14
ATOM     14  N   UNL d   1      15.842  18.026  -0.390  0.00  0.00    -0.114 N 
ATOM     15  O   UNL d   1      15.268  18.597  -0.190  0.00  0.00    -0.532 OA
ATOM     16  O   UNL d   1      16.552  18.384  -0.584  0.00  0.00    -0.532 OA
ENDBRANCH  11  14
ENDBRANCH   5   8
ENDBRANCH   1   3
BRANCH   1  17
ATOM     17  N   UNL d   1      14.200  12.766  -1.559  0.00  0.00    -0.291 N 
ATOM     18  C   UNL d   1      13.929  13.435  -1.972  0.00  0.00     0.100 A 
ATOM     19  C   UNL d   1      13.644  13.363  -2.741  0.00  0.00     0.100 A 
ATOM     20  N   UNL d   1      13.629  12.615  -3.099  0.00  0.00    -0.301 N 
ATOM     21  C   UNL d   1      13.893  11.967  -2.694  0.00  0.00     0.100 A 
ATOM     22  C   UNL d   1      14.179  12.040  -1.922  0.00  0.00     0.100 A 
BRANCH  20  23
ATOM     23  C   UNL d   1      13.343  12.544  -3.868  0.00  0.00     0.064 A 
ATOM     24  C   UNL d   1      13.151  13.249  -4.261  0.00  0.00     0.016 A 
ATOM     25  C   UNL d   1      13.237  13.998  -3.912  0.00  0.00     0.002 C 
ATOM     26  C   UNL d   1      12.864  13.202  -5.029  0.00  0.00     0.001 A 
ATOM     27  C   UNL d   1      12.769  12.459  -5.403  0.00  0.00     0.000 A 
ATOM     28  C   UNL d   1      12.962  11.781  -5.001  0.00  0.00     0.002 A 
ATOM     29  C   UNL d   1      13.248  11.824  -4.236  0.00  0.00     0.018 A 
ENDBRANCH  20  23
ENDBRANCH   1  17
TORSDOF 5
ENDMDL
