MODEL 1
REMARK VINA RESULT:       1.8      0.000      0.000
REMARK  8 active torsions:
REMARK  status: ('A' for Active; 'I' for Inactive)
REMARK    1  A    between atoms: S_10  and  C_3 
REMARK    2  A    between atoms: C_12  and  C_7 
REMARK    3  A    between atoms: C_15  and  S_10 
REMARK    4  A    between atoms: C_11  and  C_15 
REMARK       I    between atoms: N_16  and  C_11 
REMARK    5  A    between atoms: C_23  and  N_16 
REMARK    6  A    between atoms: O_24  and  C_17 
REMARK    7  A    between atoms: C_18  and  C_29 
REMARK    8  A    between atoms: C_29  and  C_23 
ROOT
ATOM      1  N   UNL d   1     -42.810-122.504 -50.003  0.00  0.00    -0.186 N 
ATOM      2  N   UNL d   1     -42.392-122.769 -49.354  0.00  0.00    -0.162 NA
ATOM      3  C   UNL d   1     -42.572-122.314 -50.773  0.00  0.00     0.217 A 
ATOM      4  C   UNL d   1     -43.624-122.379 -49.959  0.00  0.00     0.187 A 
ATOM      5  N   UNL d   1     -43.238-122.077 -51.187  0.00  0.00    -0.120 NA
ATOM      6  N   UNL d   1     -43.890-122.117 -50.684  0.00  0.00    -0.127 NA
ATOM      7  C   UNL d   1     -42.791-122.914 -48.643  0.00  0.00     0.102 A 
ATOM      8  C   UNL d   1     -44.022-122.525 -49.245  0.00  0.00     0.042 A 
ATOM      9  C   UNL d   1     -43.607-122.790 -48.593  0.00  0.00     0.024 A 
ENDROOT
BRANCH   3  10
ATOM     10  S   UNL d   1     -41.810-122.350 -51.086  0.00  0.00    -0.041 SA
BRANCH  10  11
ATOM     11  C   UNL d   1     -41.691-122.580 -51.858  0.00  0.00     0.101 C 
BRANCH  11  12
ATOM     12  C   UNL d   1     -41.339-123.298 -52.022  0.00  0.00     0.286 C 
ATOM     13  O   UNL d   1     -41.124-123.817 -51.416  0.00  0.00    -0.265 OA
ATOM     14  N   UNL d   1     -41.192-123.520 -52.803  0.00  0.00    -0.206 NA
BRANCH  14  15
ATOM     15  C   UNL d   1     -41.404-123.007 -53.416  0.00  0.00     0.102 C 
BRANCH  15  16
ATOM     16  C   UNL d   1     -41.759-123.310 -54.099  0.00  0.00     0.021 C 
BRANCH  16  17
ATOM     17  C   UNL d   1     -41.913-122.807 -54.742  0.00  0.00     0.002 A 
ATOM     18  C   UNL d   1     -42.393-123.064 -55.368  0.00  0.00     0.002 A 
ATOM     19  C   UNL d   1     -42.547-122.560 -56.011  0.00  0.00     0.024 A 
ATOM     20  C   UNL d   1     -42.222-121.809 -56.023  0.00  0.00     0.094 A 
ATOM     21  C   UNL d   1     -41.743-121.546 -55.404  0.00  0.00     0.024 A 
ATOM     22  C   UNL d   1     -41.589-122.045 -54.764  0.00  0.00     0.002 A 
BRANCH  20  23
ATOM     23  O   UNL d   1     -42.363-121.288 -56.658  0.00  0.00    -0.328 OA
ATOM     24  C   UNL d   1     -41.838-120.681 -56.815  0.00  0.00     0.181 C 
ENDBRANCH  20  23
ENDBRANCH  16  17
ENDBRANCH  15  16
ENDBRANCH  14  15
ENDBRANCH  11  12
ENDBRANCH  10  11
ENDBRANCH   3  10
BRANCH   7  25
ATOM     25  C   UNL d   1     -42.374-123.181 -47.985  0.00  0.00     0.022 A 
ATOM     26  C   UNL d   1     -41.561-123.136 -47.976  0.00  0.00     0.022 A 
ATOM     27  C   UNL d   1     -41.141-123.399 -47.329  0.00  0.00     0.099 A 
ATOM     28  N   UNL d   1     -41.538-123.713 -46.677  0.00  0.00    -0.242 NA
ATOM     29  C   UNL d   1     -42.354-123.757 -46.689  0.00  0.00     0.099 A 
ATOM     30  C   UNL d   1     -42.774-123.489 -47.348  0.00  0.00     0.022 A 
ENDBRANCH   7  25
TORSDOF 8
ENDMDL
