MODEL 1
REMARK VINA RESULT:      72.1      0.000      0.000
REMARK  6 active torsions:
REMARK  status: ('A' for Active; 'I' for Inactive)
REMARK    1  A    between atoms: C_10  and  C_2 
REMARK    2  A    between atoms: C_11  and  C_4 
REMARK    3  A    between atoms: N_12  and  C_10 
REMARK    4  A    between atoms: O_17  and  C_11 
REMARK    5  A    between atoms: C_14  and  N_12 
REMARK    6  A    between atoms: C_23  and  O_17 
ROOT
ATOM      1  C   UNL d   1     -50.444  25.365  33.648  0.00  0.00     0.035 A 
ATOM      2  C   UNL d   1     -50.761  24.597  33.535  0.00  0.00     0.060 A 
ATOM      3  C   UNL d   1     -49.629  25.487  33.658  0.00  0.00     0.100 A 
ATOM      4  C   UNL d   1     -50.808  26.111  33.764  0.00  0.00     0.088 A 
ATOM      5  O   UNL d   1     -49.477  26.281  33.777  0.00  0.00    -0.307 OA
ATOM      6  C   UNL d   1     -50.201  26.669  33.843  0.00  0.00     0.105 A 
ATOM      7  C   UNL d   1     -50.256  23.968  33.434  0.00  0.00     0.197 A 
ATOM      8  C   UNL d   1     -49.128  24.836  33.555  0.00  0.00     0.026 A 
ATOM      9  C   UNL d   1     -49.445  24.068  33.441  0.00  0.00     0.041 A 
ATOM     10  O   UNL d   1     -50.574  23.197  33.321  0.00  0.00    -0.286 OA
ATOM     11  C   UNL d   1     -50.316  27.493  33.969  0.00  0.00     0.027 C 
ATOM     12  C   UNL d   1     -48.315  24.958  33.565  0.00  0.00     0.002 A 
ATOM     13  C   UNL d   1     -48.942  23.440  33.341  0.00  0.00     0.003 A 
ATOM     14  C   UNL d   1     -47.817  24.308  33.462  0.00  0.00     0.000 A 
ATOM     15  C   UNL d   1     -48.134  23.541  33.349  0.00  0.00     0.000 A 
ENDROOT
BRANCH   2  16
ATOM     16  C   UNL d   1     -51.594  24.483  33.526  0.00  0.00     0.104 C 
BRANCH  16  17
ATOM     17  N   UNL d   1     -51.910  23.710  33.551  0.00  0.00    -0.225 NA
BRANCH  17  18
ATOM     18  C   UNL d   1     -52.663  23.578  33.866  0.00  0.00     0.163 A 
ATOM     19  N   UNL d   1     -52.736  23.357  34.655  0.00  0.00    -0.225 NA
ATOM     20  C   UNL d   1     -53.485  23.227  34.963  0.00  0.00     0.101 A 
ATOM     21  C   UNL d   1     -54.151  23.316  34.493  0.00  0.00     0.021 A 
ATOM     22  C   UNL d   1     -54.083  23.537  33.704  0.00  0.00     0.005 A 
ATOM     23  C   UNL d   1     -53.329  23.668  33.396  0.00  0.00     0.039 A 
ENDBRANCH  17  18
ENDBRANCH  16  17
ENDBRANCH   2  16
BRANCH   4  24
ATOM     24  C   UNL d   1     -51.627  26.270  33.796  0.00  0.00     0.302 C 
ATOM     25  O   UNL d   1     -52.160  25.875  33.318  0.00  0.00    -0.259 OA
BRANCH  24  26
ATOM     26  O   UNL d   1     -51.898  26.843  34.329  0.00  0.00    -0.271 OA
BRANCH  26  27
ATOM     27  C   UNL d   1     -52.516  27.331  34.109  0.00  0.00     0.126 C 
ATOM     28  C   UNL d   1     -52.541  27.606  33.317  0.00  0.00     0.029 C 
ENDBRANCH  26  27
ENDBRANCH  24  26
ENDBRANCH   4  24
TORSDOF 6
ENDMDL
