MODEL 1
REMARK VINA RESULT:      -5.7      0.000      0.000
REMARK  6 active torsions:
REMARK  status: ('A' for Active; 'I' for Inactive)
REMARK    1  A    between atoms: C_8  and  C_3 
REMARK    2  A    between atoms: C_7  and  O_15 
REMARK    3  A    between atoms: S_9  and  C_8 
REMARK    4  A    between atoms: C_18  and  S_9 
REMARK    5  A    between atoms: O_15  and  C_19 
REMARK    6  A    between atoms: C_19  and  C_18 
ROOT
ATOM      1  S   UNL d   1     -41.504-122.527 -51.442  0.00  0.00    -0.081 SA
ENDROOT
BRANCH   1   2
ATOM      2  C   UNL d   1     -41.148-122.540 -52.183  0.00  0.00     0.074 C 
BRANCH   2   3
ATOM      3  C   UNL d   1     -41.548-122.234 -52.835  0.00  0.00     0.169 A 
ATOM      4  N   UNL d   1     -42.100-121.743 -53.227  0.00  0.00    -0.225 NA
ATOM      5  C   UNL d   1     -42.051-121.902 -54.048  0.00  0.00     0.101 A 
ATOM      6  C   UNL d   1     -41.470-122.490 -54.153  0.00  0.00     0.101 A 
ATOM      7  C   UNL d   1     -42.447-121.602 -54.713  0.00  0.00     0.021 A 
ATOM      8  N   UNL d   1     -41.154-122.700 -53.409  0.00  0.00    -0.225 NA
ATOM      9  C   UNL d   1     -41.296-122.765 -54.920  0.00  0.00     0.021 A 
ATOM     10  C   UNL d   1     -41.694-122.460 -55.564  0.00  0.00     0.002 A 
ATOM     11  C   UNL d   1     -42.269-121.878 -55.460  0.00  0.00     0.002 A 
ENDBRANCH   2   3
ENDBRANCH   1   2
BRANCH   1  12
ATOM     12  C   UNL d   1     -41.127-122.877 -50.799  0.00  0.00     0.062 C 
BRANCH  12  13
ATOM     13  C   UNL d   1     -41.549-123.034 -50.110  0.00  0.00     0.130 C 
BRANCH  13  14
ATOM     14  O   UNL d   1     -41.726-123.815 -49.913  0.00  0.00    -0.305 OA
BRANCH  14  15
ATOM     15  C   UNL d   1     -41.828-123.581 -49.128  0.00  0.00     0.100 A 
ATOM     16  C   UNL d   1     -42.560-123.321 -48.876  0.00  0.00     0.026 A 
ATOM     17  C   UNL d   1     -42.666-123.085 -48.093  0.00  0.00     0.013 A 
ATOM     18  C   UNL d   1     -42.030-123.113 -47.563  0.00  0.00     0.058 A 
ATOM     19  C   UNL d   1     -41.297-123.375 -47.823  0.00  0.00     0.013 A 
ATOM     20 CL   UNL d   1     -42.132-122.878 -46.779  0.00  0.00    -0.082 Cl
ATOM     21  C   UNL d   1     -41.199-123.609 -48.608  0.00  0.00     0.026 A 
ENDBRANCH  14  15
ENDBRANCH  13  14
ENDBRANCH  12  13
ENDBRANCH   1  12
TORSDOF 6
ENDMDL
MODEL 2
REMARK VINA RESULT:      -5.3      2.520      5.718
REMARK  6 active torsions:
REMARK  status: ('A' for Active; 'I' for Inactive)
REMARK    1  A    between atoms: C_8  and  C_3 
REMARK    2  A    between atoms: C_7  and  O_15 
REMARK    3  A    between atoms: S_9  and  C_8 
REMARK    4  A    between atoms: C_18  and  S_9 
REMARK    5  A    between atoms: O_15  and  C_19 
REMARK    6  A    between atoms: C_19  and  C_18 
ROOT
ATOM      1  S   UNL d   1     -41.577-122.765 -51.604  0.00  0.00    -0.081 SA
ENDROOT
BRANCH   1   2
ATOM      2  C   UNL d   1     -41.295-123.109 -50.912  0.00  0.00     0.074 C 
BRANCH   2   3
ATOM      3  C   UNL d   1     -41.750-123.086 -50.227  0.00  0.00     0.169 A 
ATOM      4  N   UNL d   1     -42.441-122.943 -49.777  0.00  0.00    -0.225 NA
ATOM      5  C   UNL d   1     -42.277-123.142 -48.980  0.00  0.00     0.101 A 
ATOM      6  C   UNL d   1     -41.487-123.404 -48.947  0.00  0.00     0.101 A 
ATOM      7  C   UNL d   1     -42.726-123.123 -48.282  0.00  0.00     0.021 A 
ATOM      8  N   UNL d   1     -41.155-123.373 -49.712  0.00  0.00    -0.225 NA
ATOM      9  C   UNL d   1     -41.162-123.643 -48.217  0.00  0.00     0.021 A 
ATOM     10  C   UNL d   1     -41.616-123.618 -47.540  0.00  0.00     0.002 A 
ATOM     11  C   UNL d   1     -42.398-123.358 -47.573  0.00  0.00     0.002 A 
ENDBRANCH   2   3
ENDBRANCH   1   2
BRANCH   1  12
ATOM     12  C   UNL d   1     -41.144-122.828 -52.301  0.00  0.00     0.062 C 
BRANCH  12  13
ATOM     13  C   UNL d   1     -41.441-122.511 -53.000  0.00  0.00     0.130 C 
BRANCH  13  14
ATOM     14  O   UNL d   1     -41.123-121.809 -53.295  0.00  0.00    -0.305 OA
BRANCH  14  15
ATOM     15  C   UNL d   1     -41.538-121.931 -53.997  0.00  0.00     0.100 A 
ATOM     16  C   UNL d   1     -42.207-121.490 -54.153  0.00  0.00     0.026 A 
ATOM     17  C   UNL d   1     -42.625-121.608 -54.854  0.00  0.00     0.013 A 
ATOM     18  C   UNL d   1     -42.365-122.175 -55.400  0.00  0.00     0.058 A 
ATOM     19  C   UNL d   1     -41.691-122.615 -55.237  0.00  0.00     0.013 A 
ATOM     20 CL   UNL d   1     -42.780-122.296 -56.102  0.00  0.00    -0.082 Cl
ATOM     21  C   UNL d   1     -41.279-122.490 -54.533  0.00  0.00     0.026 A 
ENDBRANCH  14  15
ENDBRANCH  13  14
ENDBRANCH  12  13
ENDBRANCH   1  12
TORSDOF 6
ENDMDL
