MODEL 1
REMARK VINA RESULT:      -7.3      0.000      0.000
REMARK  5 active torsions:
REMARK  status: ('A' for Active; 'I' for Inactive)
REMARK    1  A    between atoms: N_7  and  C_1 
REMARK    2  A    between atoms: O_17  and  C_5 
REMARK    3  A    between atoms: C_10  and  N_7 
REMARK    4  A    between atoms: O_18  and  C_8 
REMARK    5  A    between atoms: O_19  and  C_9 
ROOT
ATOM      1  C   UNL d   1     -46.551  13.173  22.981  0.00  0.00     0.139 A 
ATOM      2  C   UNL d   1     -46.936  13.892  22.854  0.00  0.00     0.120 A 
ATOM      3  C   UNL d   1     -46.996  12.500  23.201  0.00  0.00     0.120 A 
ATOM      4  C   UNL d   1     -48.186  13.276  23.160  0.00  0.00     0.087 A 
ATOM      5  C   UNL d   1     -47.815  12.556  23.289  0.00  0.00     0.045 A 
ATOM      6  C   UNL d   1     -47.765  13.951  22.942  0.00  0.00     0.045 A 
ENDROOT
BRANCH   4   7
ATOM      7  N   UNL d   1     -49.011  13.328  23.250  0.00  0.00    -0.226 NA
BRANCH   7   8
ATOM      8  C   UNL d   1     -49.494  13.388  22.588  0.00  0.00     0.169 A 
ATOM      9  C   UNL d   1     -50.014  13.965  22.523  0.00  0.00     0.094 A 
ATOM     10  C   UNL d   1     -50.476  14.022  21.889  0.00  0.00     0.190 A 
ATOM     11  C   UNL d   1     -50.598  15.082  23.045  0.00  0.00     0.128 A 
ATOM     12  N   UNL d   1     -50.993  14.605  21.838  0.00  0.00    -0.128 NA
ATOM     13  N   UNL d   1     -50.419  13.502  21.320  0.00  0.00    -0.203 NA
ATOM     14  N   UNL d   1     -51.058  15.129  22.402  0.00  0.00    -0.145 NA
ATOM     15  C   UNL d   1     -49.895  12.905  21.365  0.00  0.00     0.202 A 
ATOM     16  N   UNL d   1     -49.433  12.848  21.999  0.00  0.00    -0.205 NA
ENDBRANCH   7   8
ENDBRANCH   4   7
BRANCH   3  17
ATOM     17  O   UNL d   1     -46.612  11.772  23.331  0.00  0.00    -0.326 OA
ATOM     18  C   UNL d   1     -47.024  11.147  23.695  0.00  0.00     0.181 C 
ENDBRANCH   3  17
BRANCH   2  19
ATOM     19  O   UNL d   1     -46.499  14.565  22.635  0.00  0.00    -0.326 OA
ATOM     20  C   UNL d   1     -46.860  15.316  22.637  0.00  0.00     0.181 C 
ENDBRANCH   2  19
BRANCH   1  21
ATOM     21  O   UNL d   1     -45.729  13.110  22.894  0.00  0.00    -0.324 OA
ATOM     22  C   UNL d   1     -45.403  13.010  22.128  0.00  0.00     0.182 C 
ENDBRANCH   1  21
TORSDOF 5
ENDMDL
MODEL 2
REMARK VINA RESULT:      -7.2      2.159      4.194
REMARK  5 active torsions:
REMARK  status: ('A' for Active; 'I' for Inactive)
REMARK    1  A    between atoms: N_7  and  C_1 
REMARK    2  A    between atoms: O_17  and  C_5 
REMARK    3  A    between atoms: C_10  and  N_7 
REMARK    4  A    between atoms: O_18  and  C_8 
REMARK    5  A    between atoms: O_19  and  C_9 
ROOT
ATOM      1  C   UNL d   1     -50.089  14.014  22.442  0.00  0.00     0.139 A 
ATOM      2  C   UNL d   1     -49.727  13.274  22.395  0.00  0.00     0.120 A 
ATOM      3  C   UNL d   1     -49.743  14.613  22.913  0.00  0.00     0.120 A 
ATOM      4  C   UNL d   1     -48.694  13.723  23.272  0.00  0.00     0.087 A 
ATOM      5  C   UNL d   1     -49.045  14.463  23.326  0.00  0.00     0.045 A 
ATOM      6  C   UNL d   1     -49.020  13.119  22.813  0.00  0.00     0.045 A 
ENDROOT
BRANCH   4   7
ATOM      7  N   UNL d   1     -47.991  13.576  23.690  0.00  0.00    -0.226 NA
BRANCH   7   8
ATOM      8  C   UNL d   1     -47.266  13.634  23.308  0.00  0.00     0.169 A 
ATOM      9  C   UNL d   1     -46.764  13.038  23.312  0.00  0.00     0.094 A 
ATOM     10  C   UNL d   1     -46.069  13.093  22.947  0.00  0.00     0.190 A 
ATOM     11  C   UNL d   1     -46.455  11.766  23.698  0.00  0.00     0.128 A 
ATOM     12  N   UNL d   1     -45.576  12.488  22.959  0.00  0.00    -0.128 NA
ATOM     13  N   UNL d   1     -45.877  13.744  22.577  0.00  0.00    -0.203 NA
ATOM     14  N   UNL d   1     -45.759  11.834  23.326  0.00  0.00    -0.145 NA
ATOM     15  C   UNL d   1     -46.374  14.365  22.559  0.00  0.00     0.202 A 
ATOM     16  N   UNL d   1     -47.069  14.310  22.925  0.00  0.00    -0.205 NA
ENDBRANCH   7   8
ENDBRANCH   4   7
BRANCH   3  17
ATOM     17  O   UNL d   1     -50.104  15.362  22.963  0.00  0.00    -0.326 OA
ATOM     18  C   UNL d   1     -50.120  15.764  23.692  0.00  0.00     0.181 C 
ENDBRANCH   3  17
BRANCH   2  19
ATOM     19  O   UNL d   1     -50.066  12.674  21.929  0.00  0.00    -0.326 OA
ATOM     20  C   UNL d   1     -50.181  11.912  22.249  0.00  0.00     0.181 C 
ENDBRANCH   2  19
BRANCH   1  21
ATOM     21  O   UNL d   1     -50.790  14.171  22.030  0.00  0.00    -0.324 OA
ATOM     22  C   UNL d   1     -50.750  14.410  21.227  0.00  0.00     0.182 C 
ENDBRANCH   1  21
TORSDOF 5
ENDMDL
MODEL 3
REMARK VINA RESULT:      -7.2      0.538      1.757
REMARK  5 active torsions:
REMARK  status: ('A' for Active; 'I' for Inactive)
REMARK    1  A    between atoms: N_7  and  C_1 
REMARK    2  A    between atoms: O_17  and  C_5 
REMARK    3  A    between atoms: C_10  and  N_7 
REMARK    4  A    between atoms: O_18  and  C_8 
REMARK    5  A    between atoms: O_19  and  C_9 
ROOT
ATOM      1  C   UNL d   1     -46.273  13.159  23.034  0.00  0.00     0.139 A 
ATOM      2  C   UNL d   1     -46.583  12.440  23.296  0.00  0.00     0.120 A 
ATOM      3  C   UNL d   1     -46.789  13.797  22.872  0.00  0.00     0.120 A 
ATOM      4  C   UNL d   1     -47.900  12.988  23.234  0.00  0.00     0.087 A 
ATOM      5  C   UNL d   1     -47.603  13.707  22.973  0.00  0.00     0.045 A 
ATOM      6  C   UNL d   1     -47.408  12.347  23.399  0.00  0.00     0.045 A 
ENDROOT
BRANCH   4   7
ATOM      7  N   UNL d   1     -48.721  12.901  23.334  0.00  0.00    -0.226 NA
BRANCH   7   8
ATOM      8  C   UNL d   1     -49.212  12.852  22.678  0.00  0.00     0.169 A 
ATOM      9  C   UNL d   1     -49.819  13.335  22.596  0.00  0.00     0.094 A 
ATOM     10  C   UNL d   1     -50.290  13.288  21.967  0.00  0.00     0.190 A 
ATOM     11  C   UNL d   1     -50.571  14.366  23.077  0.00  0.00     0.128 A 
ATOM     12  N   UNL d   1     -50.894  13.778  21.899  0.00  0.00    -0.128 NA
ATOM     13  N   UNL d   1     -50.154  12.759  21.421  0.00  0.00    -0.203 NA
ATOM     14  N   UNL d   1     -51.037  14.309  22.440  0.00  0.00    -0.145 NA
ATOM     15  C   UNL d   1     -49.541  12.256  21.483  0.00  0.00     0.202 A 
ATOM     16  N   UNL d   1     -49.070  12.303  22.112  0.00  0.00    -0.205 NA
ENDBRANCH   7   8
ENDBRANCH   4   7
BRANCH   3  17
ATOM     17  O   UNL d   1     -46.480  14.524  22.608  0.00  0.00    -0.326 OA
ATOM     18  C   UNL d   1     -46.975  15.191  22.563  0.00  0.00     0.181 C 
ENDBRANCH   3  17
BRANCH   2  19
ATOM     19  O   UNL d   1     -46.076  11.802  23.459  0.00  0.00    -0.326 OA
ATOM     20  C   UNL d   1     -46.392  11.068  23.698  0.00  0.00     0.181 C 
ENDBRANCH   2  19
BRANCH   1  21
ATOM     21  O   UNL d   1     -45.457  13.256  22.931  0.00  0.00    -0.324 OA
ATOM     22  C   UNL d   1     -45.100  13.003  22.215  0.00  0.00     0.182 C 
ENDBRANCH   1  21
TORSDOF 5
ENDMDL
MODEL 4
REMARK VINA RESULT:      -7.2      2.183      3.913
REMARK  5 active torsions:
REMARK  status: ('A' for Active; 'I' for Inactive)
REMARK    1  A    between atoms: N_7  and  C_1 
REMARK    2  A    between atoms: O_17  and  C_5 
REMARK    3  A    between atoms: C_10  and  N_7 
REMARK    4  A    between atoms: O_18  and  C_8 
REMARK    5  A    between atoms: O_19  and  C_9 
ROOT
ATOM      1  C   UNL d   1     -49.934  14.037  22.517  0.00  0.00     0.139 A 
ATOM      2  C   UNL d   1     -49.506  14.633  22.894  0.00  0.00     0.120 A 
ATOM      3  C   UNL d   1     -49.648  13.250  22.532  0.00  0.00     0.120 A 
ATOM      4  C   UNL d   1     -48.525  13.676  23.292  0.00  0.00     0.087 A 
ATOM      5  C   UNL d   1     -48.942  13.074  22.921  0.00  0.00     0.045 A 
ATOM      6  C   UNL d   1     -48.790  14.457  23.289  0.00  0.00     0.045 A 
ENDROOT
BRANCH   4   7
ATOM      7  N   UNL d   1     -47.814  13.494  23.684  0.00  0.00    -0.226 NA
BRANCH   7   8
ATOM      8  C   UNL d   1     -47.101  13.527  23.277  0.00  0.00     0.169 A 
ATOM      9  C   UNL d   1     -46.609  12.923  23.283  0.00  0.00     0.094 A 
ATOM     10  C   UNL d   1     -45.926  12.954  22.894  0.00  0.00     0.190 A 
ATOM     11  C   UNL d   1     -46.310  11.658  23.698  0.00  0.00     0.128 A 
ATOM     12  N   UNL d   1     -45.443  12.341  22.909  0.00  0.00    -0.128 NA
ATOM     13  N   UNL d   1     -45.735  13.590  22.498  0.00  0.00    -0.203 NA
ATOM     14  N   UNL d   1     -45.625  11.702  23.302  0.00  0.00    -0.145 NA
ATOM     15  C   UNL d   1     -46.222  14.219  22.477  0.00  0.00     0.202 A 
ATOM     16  N   UNL d   1     -46.905  14.187  22.867  0.00  0.00    -0.205 NA
ENDBRANCH   7   8
ENDBRANCH   4   7
BRANCH   3  17
ATOM     17  O   UNL d   1     -50.076  12.645  22.152  0.00  0.00    -0.326 OA
ATOM     18  C   UNL d   1     -50.074  11.876  22.471  0.00  0.00     0.181 C 
ENDBRANCH   3  17
BRANCH   2  19
ATOM     19  O   UNL d   1     -49.785  15.416  22.883  0.00  0.00    -0.326 OA
ATOM     20  C   UNL d   1     -49.936  15.815  23.599  0.00  0.00     0.181 C 
ENDBRANCH   2  19
BRANCH   1  21
ATOM     21  O   UNL d   1     -50.643  14.206  22.124  0.00  0.00    -0.324 OA
ATOM     22  C   UNL d   1     -50.643  14.285  21.289  0.00  0.00     0.182 C 
ENDBRANCH   1  21
TORSDOF 5
ENDMDL
MODEL 5
REMARK VINA RESULT:      -7.1      2.112      4.171
REMARK  5 active torsions:
REMARK  status: ('A' for Active; 'I' for Inactive)
REMARK    1  A    between atoms: N_7  and  C_1 
REMARK    2  A    between atoms: O_17  and  C_5 
REMARK    3  A    between atoms: C_10  and  N_7 
REMARK    4  A    between atoms: O_18  and  C_8 
REMARK    5  A    between atoms: O_19  and  C_9 
ROOT
ATOM      1  C   UNL d   1     -50.108  14.303  22.418  0.00  0.00     0.139 A 
ATOM      2  C   UNL d   1     -50.139  13.533  22.124  0.00  0.00     0.120 A 
ATOM      3  C   UNL d   1     -49.365  14.667  22.545  0.00  0.00     0.120 A 
ATOM      4  C   UNL d   1     -48.713  13.490  22.084  0.00  0.00     0.087 A 
ATOM      5  C   UNL d   1     -48.669  14.256  22.376  0.00  0.00     0.045 A 
ATOM      6  C   UNL d   1     -49.436  13.114  21.952  0.00  0.00     0.045 A 
ENDROOT
BRANCH   4   7
ATOM      7  N   UNL d   1     -48.010  13.080  21.916  0.00  0.00    -0.226 NA
BRANCH   7   8
ATOM      8  C   UNL d   1     -47.574  12.745  22.526  0.00  0.00     0.169 A 
ATOM      9  C   UNL d   1     -46.803  12.853  22.572  0.00  0.00     0.094 A 
ATOM     10  C   UNL d   1     -46.385  12.532  23.157  0.00  0.00     0.190 A 
ATOM     11  C   UNL d   1     -45.663  13.403  22.064  0.00  0.00     0.128 A 
ATOM     12  N   UNL d   1     -45.614  12.649  23.190  0.00  0.00    -0.128 NA
ATOM     13  N   UNL d   1     -46.737  12.104  23.695  0.00  0.00    -0.203 NA
ATOM     14  N   UNL d   1     -45.253  13.075  22.657  0.00  0.00    -0.145 NA
ATOM     15  C   UNL d   1     -47.523  11.980  23.668  0.00  0.00     0.202 A 
ATOM     16  N   UNL d   1     -47.941  12.301  23.083  0.00  0.00    -0.205 NA
ENDBRANCH   7   8
ENDBRANCH   4   7
BRANCH   3  17
ATOM     17  O   UNL d   1     -49.328  15.444  22.841  0.00  0.00    -0.326 OA
ATOM     18  C   UNL d   1     -48.668  15.921  22.669  0.00  0.00     0.181 C 
ENDBRANCH   3  17
BRANCH   2  19
ATOM     19  O   UNL d   1     -50.874  13.166  21.995  0.00  0.00    -0.326 OA
ATOM     20  C   UNL d   1     -50.916  12.456  21.560  0.00  0.00     0.181 C 
ENDBRANCH   2  19
BRANCH   1  21
ATOM     21  O   UNL d   1     -50.802  14.721  22.589  0.00  0.00    -0.324 OA
ATOM     22  C   UNL d   1     -51.061  14.781  23.384  0.00  0.00     0.182 C 
ENDBRANCH   1  21
TORSDOF 5
ENDMDL
MODEL 6
REMARK VINA RESULT:      -6.1      2.493      4.551
REMARK  5 active torsions:
REMARK  status: ('A' for Active; 'I' for Inactive)
REMARK    1  A    between atoms: N_7  and  C_1 
REMARK    2  A    between atoms: O_17  and  C_5 
REMARK    3  A    between atoms: C_10  and  N_7 
REMARK    4  A    between atoms: O_18  and  C_8 
REMARK    5  A    between atoms: O_19  and  C_9 
ROOT
ATOM      1  C   UNL d   1     -48.535  13.092  22.382  0.00  0.00     0.139 A 
ATOM      2  C   UNL d   1     -48.247  12.362  22.637  0.00  0.00     0.120 A 
ATOM      3  C   UNL d   1     -48.062  13.776  22.468  0.00  0.00     0.120 A 
ATOM      4  C   UNL d   1     -47.035  12.988  23.055  0.00  0.00     0.087 A 
ATOM      5  C   UNL d   1     -47.311  13.720  22.805  0.00  0.00     0.045 A 
ATOM      6  C   UNL d   1     -47.486  12.302  22.979  0.00  0.00     0.045 A 
ENDROOT
BRANCH   4   7
ATOM      7  N   UNL d   1     -46.277  12.936  23.395  0.00  0.00    -0.226 NA
BRANCH   7   8
ATOM      8  C   UNL d   1     -45.621  12.810  22.918  0.00  0.00     0.169 A 
ATOM      9  C   UNL d   1     -45.168  12.184  23.019  0.00  0.00     0.094 A 
ATOM     10  C   UNL d   1     -44.539  12.063  22.562  0.00  0.00     0.190 A 
ATOM     11  C   UNL d   1     -44.892  11.033  23.697  0.00  0.00     0.128 A 
ATOM     12  N   UNL d   1     -44.094  11.431  22.675  0.00  0.00    -0.128 NA
ATOM     13  N   UNL d   1     -44.363  12.567  22.004  0.00  0.00    -0.203 NA
ATOM     14  N   UNL d   1     -44.261  10.922  23.230  0.00  0.00    -0.145 NA
ATOM     15  C   UNL d   1     -44.811  13.213  21.882  0.00  0.00     0.202 A 
ATOM     16  N   UNL d   1     -45.440  13.334  22.339  0.00  0.00    -0.205 NA
ENDBRANCH   7   8
ENDBRANCH   4   7
BRANCH   3  17
ATOM     17  O   UNL d   1     -48.349  14.515  22.212  0.00  0.00    -0.326 OA
ATOM     18  C   UNL d   1     -48.288  15.177  22.712  0.00  0.00     0.181 C 
ENDBRANCH   3  17
BRANCH   2  19
ATOM     19  O   UNL d   1     -48.713  11.678  22.554  0.00  0.00    -0.326 OA
ATOM     20  C   UNL d   1     -48.625  11.046  23.091  0.00  0.00     0.181 C 
ENDBRANCH   2  19
BRANCH   1  21
ATOM     21  O   UNL d   1     -49.288  13.156  22.042  0.00  0.00    -0.324 OA
ATOM     22  C   UNL d   1     -49.391  12.967  21.232  0.00  0.00     0.182 C 
ENDBRANCH   1  21
TORSDOF 5
ENDMDL
MODEL 7
REMARK VINA RESULT:      -5.2      8.764      9.953
REMARK  5 active torsions:
REMARK  status: ('A' for Active; 'I' for Inactive)
REMARK    1  A    between atoms: N_7  and  C_1 
REMARK    2  A    between atoms: O_17  and  C_5 
REMARK    3  A    between atoms: C_10  and  N_7 
REMARK    4  A    between atoms: O_18  and  C_8 
REMARK    5  A    between atoms: O_19  and  C_9 
ROOT
ATOM      1  C   UNL d   1     -39.505  14.864  17.021  0.00  0.00     0.139 A 
ATOM      2  C   UNL d   1     -39.105  14.355  17.532  0.00  0.00     0.120 A 
ATOM      3  C   UNL d   1     -40.259  15.157  17.237  0.00  0.00     0.120 A 
ATOM      4  C   UNL d   1     -40.189  14.431  18.457  0.00  0.00     0.087 A 
ATOM      5  C   UNL d   1     -40.598  14.938  17.956  0.00  0.00     0.045 A 
ATOM      6  C   UNL d   1     -39.446  14.131  18.262  0.00  0.00     0.045 A 
ENDROOT
BRANCH   4   7
ATOM      7  N   UNL d   1     -40.535  14.212  19.181  0.00  0.00    -0.226 NA
BRANCH   7   8
ATOM      8  C   UNL d   1     -40.487  14.716  19.827  0.00  0.00     0.169 A 
ATOM      9  C   UNL d   1     -40.103  14.505  20.471  0.00  0.00     0.094 A 
ATOM     10  C   UNL d   1     -40.057  14.988  21.091  0.00  0.00     0.190 A 
ATOM     11  C   UNL d   1     -39.365  13.577  21.146  0.00  0.00     0.128 A 
ATOM     12  N   UNL d   1     -39.668  14.763  21.729  0.00  0.00    -0.128 NA
ATOM     13  N   UNL d   1     -40.396  15.683  21.066  0.00  0.00    -0.203 NA
ATOM     14  N   UNL d   1     -39.326  14.072  21.763  0.00  0.00    -0.145 NA
ATOM     15  C   UNL d   1     -40.794  15.919  20.419  0.00  0.00     0.202 A 
ATOM     16  N   UNL d   1     -40.840  15.436  19.800  0.00  0.00    -0.205 NA
ENDBRANCH   7   8
ENDBRANCH   4   7
BRANCH   3  17
ATOM     17  O   UNL d   1     -40.667  15.671  16.723  0.00  0.00    -0.326 OA
ATOM     18  C   UNL d   1     -41.490  15.596  16.633  0.00  0.00     0.181 C 
ENDBRANCH   3  17
BRANCH   2  19
ATOM     19  O   UNL d   1     -38.356  14.060  17.324  0.00  0.00    -0.326 OA
ATOM     20  C   UNL d   1     -38.122  13.300  17.575  0.00  0.00     0.181 C 
ENDBRANCH   2  19
BRANCH   1  21
ATOM     21  O   UNL d   1     -39.171  15.088  16.297  0.00  0.00    -0.324 OA
ATOM     22  C   UNL d   1     -38.666  15.757  16.267  0.00  0.00     0.182 C 
ENDBRANCH   1  21
TORSDOF 5
ENDMDL
MODEL 8
REMARK VINA RESULT:      -4.3      9.145     10.394
REMARK  5 active torsions:
REMARK  status: ('A' for Active; 'I' for Inactive)
REMARK    1  A    between atoms: N_7  and  C_1 
REMARK    2  A    between atoms: O_17  and  C_5 
REMARK    3  A    between atoms: C_10  and  N_7 
REMARK    4  A    between atoms: O_18  and  C_8 
REMARK    5  A    between atoms: O_19  and  C_9 
ROOT
ATOM      1  C   UNL d   1     -40.120  14.295  18.475  0.00  0.00     0.139 A 
ATOM      2  C   UNL d   1     -39.408  13.898  18.349  0.00  0.00     0.120 A 
ATOM      3  C   UNL d   1     -40.190  14.822  19.122  0.00  0.00     0.120 A 
ATOM      4  C   UNL d   1     -38.846  14.540  19.492  0.00  0.00     0.087 A 
ATOM      5  C   UNL d   1     -39.550  14.941  19.629  0.00  0.00     0.045 A 
ATOM      6  C   UNL d   1     -38.758  14.017  18.861  0.00  0.00     0.045 A 
ENDROOT
BRANCH   4   7
ATOM      7  N   UNL d   1     -38.204  14.664  20.005  0.00  0.00    -0.226 NA
BRANCH   7   8
ATOM      8  C   UNL d   1     -38.185  14.293  20.738  0.00  0.00     0.169 A 
ATOM      9  C   UNL d   1     -38.105  14.706  21.394  0.00  0.00     0.094 A 
ATOM     10  C   UNL d   1     -38.087  14.350  22.095  0.00  0.00     0.190 A 
ATOM     11  C   UNL d   1     -37.958  15.915  22.008  0.00  0.00     0.128 A 
ATOM     12  N   UNL d   1     -38.005  14.777  22.744  0.00  0.00    -0.128 NA
ATOM     13  N   UNL d   1     -38.150  13.581  22.141  0.00  0.00    -0.203 NA
ATOM     14  N   UNL d   1     -37.941  15.545  22.708  0.00  0.00    -0.145 NA
ATOM     15  C   UNL d   1     -38.234  13.139  21.485  0.00  0.00     0.202 A 
ATOM     16  N   UNL d   1     -38.251  13.495  20.783  0.00  0.00    -0.205 NA
ENDBRANCH   7   8
ENDBRANCH   4   7
BRANCH   3  17
ATOM     17  O   UNL d   1     -40.907  15.225  19.254  0.00  0.00    -0.326 OA
ATOM     18  C   UNL d   1     -40.966  15.766  19.884  0.00  0.00     0.181 C 
ENDBRANCH   3  17
BRANCH   2  19
ATOM     19  O   UNL d   1     -39.333  13.373  17.708  0.00  0.00    -0.326 OA
ATOM     20  C   UNL d   1     -38.684  12.850  17.671  0.00  0.00     0.181 C 
ENDBRANCH   2  19
BRANCH   1  21
ATOM     21  O   UNL d   1     -40.767  14.180  17.971  0.00  0.00    -0.324 OA
ATOM     22  C   UNL d   1     -40.867  14.683  17.308  0.00  0.00     0.182 C 
ENDBRANCH   1  21
TORSDOF 5
ENDMDL
