MODEL 1
REMARK VINA RESULT:       9.7      0.000      0.000
REMARK  5 active torsions:
REMARK  status: ('A' for Active; 'I' for Inactive)
REMARK    1  A    between atoms: C_2  and  N_1 
REMARK    2  A    between atoms: C_5  and  N_1 
REMARK    3  A    between atoms: C_7  and  C_2 
REMARK    4  A    between atoms: C_4  and  O_6 
REMARK    5  A    between atoms: O_6  and  C_8 
ROOT
ATOM      1  C   UNL d   1      45.766 -15.960  44.801  0.00  0.00     0.020 A 
ATOM      2  C   UNL d   1      45.345 -14.364  44.751  0.00  0.00     0.105 A 
ATOM      3  C   UNL d   1      44.972 -15.743  44.882  0.00  0.00     0.004 A 
ATOM      4  C   UNL d   1      46.350 -15.397  44.696  0.00  0.00     0.004 A 
ATOM      5  C   UNL d   1      44.769 -14.950  44.856  0.00  0.00     0.025 A 
ATOM      6  C   UNL d   1      46.147 -14.604  44.670  0.00  0.00     0.025 A 
ENDROOT
BRANCH   1   7
ATOM      7  C   UNL d   1      45.974 -16.775  44.827  0.00  0.00     0.108 C 
BRANCH   7   8
ATOM      8  N   UNL d   1      45.935 -17.222  44.129  0.00  0.00    -0.184 N 
ATOM      9  O   UNL d   1      45.667 -16.886  43.426  0.00  0.00    -0.080 OA
BRANCH   8  10
ATOM     10  C   UNL d   1      46.169 -18.010  44.148  0.00  0.00     0.090 A 
ATOM     11  C   UNL d   1      46.412 -18.373  43.442  0.00  0.00     0.020 A 
ATOM     12  C   UNL d   1      46.647 -19.164  43.461  0.00  0.00     0.002 A 
ATOM     13  C   UNL d   1      46.639 -19.595  44.186  0.00  0.00     0.000 A 
ATOM     14  C   UNL d   1      46.390 -19.206  44.876  0.00  0.00     0.002 A 
ATOM     15  C   UNL d   1      46.156 -18.415  44.857  0.00  0.00     0.020 A 
ENDBRANCH   8  10
ENDBRANCH   7   8
ENDBRANCH   1   7
BRANCH   2  16
ATOM     16  O   UNL d   1      45.134 -13.575  44.726  0.00  0.00    -0.260 OA
BRANCH  16  17
ATOM     17  C   UNL d   1      45.332 -13.119  44.077  0.00  0.00     0.391 C 
ATOM     18  F   UNL d   1      45.905 -12.532  44.159  0.00  0.00    -0.145 F 
ATOM     19  F   UNL d   1      44.964 -13.247  43.356  0.00  0.00    -0.145 F 
ENDBRANCH  16  17
ENDBRANCH   2  16
TORSDOF 5
ENDMDL
MODEL 2
REMARK VINA RESULT:      11.5      2.644      4.638
REMARK  5 active torsions:
REMARK  status: ('A' for Active; 'I' for Inactive)
REMARK    1  A    between atoms: C_2  and  N_1 
REMARK    2  A    between atoms: C_5  and  N_1 
REMARK    3  A    between atoms: C_7  and  C_2 
REMARK    4  A    between atoms: C_4  and  O_6 
REMARK    5  A    between atoms: O_6  and  C_8 
ROOT
ATOM      1  C   UNL d   1      46.277 -17.485  44.078  0.00  0.00     0.020 A 
ATOM      2  C   UNL d   1      46.300 -19.101  43.739  0.00  0.00     0.105 A 
ATOM      3  C   UNL d   1      46.292 -18.033  44.697  0.00  0.00     0.004 A 
ATOM      4  C   UNL d   1      46.274 -17.728  43.297  0.00  0.00     0.004 A 
ATOM      5  C   UNL d   1      46.303 -18.833  44.523  0.00  0.00     0.025 A 
ATOM      6  C   UNL d   1      46.285 -18.529  43.123  0.00  0.00     0.025 A 
ENDROOT
BRANCH   1   7
ATOM      7  C   UNL d   1      46.265 -16.662  44.258  0.00  0.00     0.108 C 
BRANCH   7   8
ATOM      8  N   UNL d   1      45.595 -16.342  44.627  0.00  0.00    -0.184 N 
ATOM      9  O   UNL d   1      45.007 -16.831  44.934  0.00  0.00    -0.080 OA
BRANCH   8  10
ATOM     10  C   UNL d   1      45.524 -15.525  44.684  0.00  0.00     0.090 A 
ATOM     11  C   UNL d   1      46.188 -15.053  44.519  0.00  0.00     0.020 A 
ATOM     12  C   UNL d   1      46.117 -14.233  44.576  0.00  0.00     0.002 A 
ATOM     13  C   UNL d   1      45.383 -13.882  44.796  0.00  0.00     0.000 A 
ATOM     14  C   UNL d   1      44.737 -14.378  44.955  0.00  0.00     0.002 A 
ATOM     15  C   UNL d   1      44.807 -15.198  44.898  0.00  0.00     0.020 A 
ENDBRANCH   8  10
ENDBRANCH   7   8
ENDBRANCH   1   7
BRANCH   2  16
ATOM     16  O   UNL d   1      46.312 -19.902  43.574  0.00  0.00    -0.260 OA
BRANCH  16  17
ATOM     17  C   UNL d   1      46.077 -20.170  42.838  0.00  0.00     0.391 C 
ATOM     18  F   UNL d   1      46.646 -20.284  42.252  0.00  0.00    -0.145 F 
ATOM     19  F   UNL d   1      45.287 -20.323  42.688  0.00  0.00    -0.145 F 
ENDBRANCH  16  17
ENDBRANCH   2  16
TORSDOF 5
ENDMDL
