MODEL 1
REMARK VINA RESULT:      -5.0      0.000      0.000
REMARK  1 active torsions:
REMARK  status: ('A' for Active; 'I' for Inactive)
REMARK    1  A    between atoms: C_6  and  N_1 
ROOT
ATOM      1  N   UNL d   1     -41.684-122.389 -54.543  0.00  0.00    -0.204 N 
ATOM      2  C   UNL d   1     -41.726-121.950 -53.843  0.00  0.00     0.271 A 
ATOM      3  C   UNL d   1     -41.467-123.165 -54.350  0.00  0.00     0.270 A 
ATOM      4  C   UNL d   1     -41.536-122.454 -53.217  0.00  0.00     0.080 A 
ATOM      5  C   UNL d   1     -41.378-123.196 -53.526  0.00  0.00     0.064 A 
ATOM      6  O   UNL d   1     -41.926-121.178 -53.880  0.00  0.00    -0.266 OA
ATOM      7  O   UNL d   1     -41.361-123.789 -54.878  0.00  0.00    -0.266 OA
ATOM      8  N   UNL d   1     -41.283-122.936 -51.908  0.00  0.00    -0.242 NA
ATOM      9  C   UNL d   1     -41.491-122.314 -52.409  0.00  0.00     0.104 A 
ATOM     10  C   UNL d   1     -41.171-123.813 -53.023  0.00  0.00     0.026 A 
ATOM     11  C   UNL d   1     -41.123-123.685 -52.209  0.00  0.00     0.099 A 
ENDROOT
BRANCH   1  12
ATOM     12  C   UNL d   1     -41.831-122.108 -55.307  0.00  0.00     0.326 C 
ATOM     13  O   UNL d   1     -42.607-121.953 -55.544  0.00  0.00    -0.261 OA
ENDBRANCH   1  12
TORSDOF 1
ENDMDL
MODEL 2
REMARK VINA RESULT:      -4.5      1.173      2.440
REMARK  1 active torsions:
REMARK  status: ('A' for Active; 'I' for Inactive)
REMARK    1  A    between atoms: C_6  and  N_1 
ROOT
ATOM      1  N   UNL d   1     -41.397-122.648 -53.147  0.00  0.00    -0.204 N 
ATOM      2  C   UNL d   1     -41.716-121.894 -53.267  0.00  0.00     0.271 A 
ATOM      3  C   UNL d   1     -41.399-123.050 -53.871  0.00  0.00     0.270 A 
ATOM      4  C   UNL d   1     -41.914-121.829 -54.066  0.00  0.00     0.080 A 
ATOM      5  C   UNL d   1     -41.721-122.534 -54.435  0.00  0.00     0.064 A 
ATOM      6  O   UNL d   1     -41.775-121.394 -52.648  0.00  0.00    -0.266 OA
ATOM      7  O   UNL d   1     -41.130-123.817 -54.005  0.00  0.00    -0.266 OA
ATOM      8  N   UNL d   1     -42.384-121.304 -55.297  0.00  0.00    -0.242 NA
ATOM      9  C   UNL d   1     -42.246-121.208 -54.489  0.00  0.00     0.104 A 
ATOM     10  C   UNL d   1     -41.860-122.626 -55.241  0.00  0.00     0.026 A 
ATOM     11  C   UNL d   1     -42.193-122.010 -55.676  0.00  0.00     0.099 A 
ENDROOT
BRANCH   1  12
ATOM     12  C   UNL d   1     -41.123-122.954 -52.428  0.00  0.00     0.326 C 
ATOM     13  O   UNL d   1     -41.567-123.524 -52.029  0.00  0.00    -0.261 OA
ENDBRANCH   1  12
TORSDOF 1
ENDMDL
MODEL 3
REMARK VINA RESULT:      -4.5      0.353      1.479
REMARK  1 active torsions:
REMARK  status: ('A' for Active; 'I' for Inactive)
REMARK    1  A    between atoms: C_6  and  N_1 
ROOT
ATOM      1  N   UNL d   1     -41.476-122.368 -54.566  0.00  0.00    -0.204 N 
ATOM      2  C   UNL d   1     -41.321-123.147 -54.334  0.00  0.00     0.271 A 
ATOM      3  C   UNL d   1     -41.529-121.899 -53.886  0.00  0.00     0.270 A 
ATOM      4  C   UNL d   1     -41.277-123.159 -53.509  0.00  0.00     0.080 A 
ATOM      5  C   UNL d   1     -41.404-122.398 -53.236  0.00  0.00     0.064 A 
ATOM      6  O   UNL d   1     -41.245-123.712 -54.892  0.00  0.00    -0.266 OA
ATOM      7  O   UNL d   1     -41.677-121.089 -53.861  0.00  0.00    -0.266 OA
ATOM      8  N   UNL d   1     -41.125-123.622 -52.177  0.00  0.00    -0.242 NA
ATOM      9  C   UNL d   1     -41.137-123.778 -52.987  0.00  0.00     0.104 A 
ATOM     10  C   UNL d   1     -41.391-122.246 -52.427  0.00  0.00     0.026 A 
ATOM     11  C   UNL d   1     -41.251-122.859 -51.893  0.00  0.00     0.099 A 
ENDROOT
BRANCH   1  12
ATOM     12  C   UNL d   1     -41.565-122.098 -55.344  0.00  0.00     0.326 C 
ATOM     13  O   UNL d   1     -42.301-121.830 -55.603  0.00  0.00    -0.261 OA
ENDBRANCH   1  12
TORSDOF 1
ENDMDL
MODEL 4
REMARK VINA RESULT:      -4.4      1.385      1.943
REMARK  1 active torsions:
REMARK  status: ('A' for Active; 'I' for Inactive)
REMARK    1  A    between atoms: C_6  and  N_1 
ROOT
ATOM      1  N   UNL d   1     -41.260-122.342 -52.643  0.00  0.00    -0.204 N 
ATOM      2  C   UNL d   1     -41.183-121.895 -51.951  0.00  0.00     0.271 A 
ATOM      3  C   UNL d   1     -41.310-123.141 -52.432  0.00  0.00     0.270 A 
ATOM      4  C   UNL d   1     -41.184-122.418 -51.311  0.00  0.00     0.080 A 
ATOM      5  C   UNL d   1     -41.262-123.179 -51.605  0.00  0.00     0.064 A 
ATOM      6  O   UNL d   1     -41.124-121.101 -52.006  0.00  0.00    -0.266 OA
ATOM      7  O   UNL d   1     -41.392-123.779 -52.948  0.00  0.00    -0.266 OA
ATOM      8  N   UNL d   1     -41.142-122.923 -49.987  0.00  0.00    -0.242 NA
ATOM      9  C   UNL d   1     -41.123-122.280 -50.504  0.00  0.00     0.104 A 
ATOM     10  C   UNL d   1     -41.280-123.817 -51.086  0.00  0.00     0.026 A 
ATOM     11  C   UNL d   1     -41.220-123.691 -50.273  0.00  0.00     0.099 A 
ENDROOT
BRANCH   1  12
ATOM     12  C   UNL d   1     -41.285-122.047 -53.416  0.00  0.00     0.326 C 
ATOM     13  O   UNL d   1     -42.013-121.905 -53.778  0.00  0.00    -0.261 OA
ENDBRANCH   1  12
TORSDOF 1
ENDMDL
MODEL 5
REMARK VINA RESULT:      -4.4      1.519      2.853
REMARK  1 active torsions:
REMARK  status: ('A' for Active; 'I' for Inactive)
REMARK    1  A    between atoms: C_6  and  N_1 
ROOT
ATOM      1  N   UNL d   1     -41.323-122.425 -51.835  0.00  0.00    -0.204 N 
ATOM      2  C   UNL d   1     -41.217-123.205 -52.090  0.00  0.00     0.271 A 
ATOM      3  C   UNL d   1     -41.397-121.941 -52.503  0.00  0.00     0.270 A 
ATOM      4  C   UNL d   1     -41.224-123.204 -52.916  0.00  0.00     0.080 A 
ATOM      5  C   UNL d   1     -41.334-122.432 -53.168  0.00  0.00     0.064 A 
ATOM      6  O   UNL d   1     -41.131-123.783 -51.547  0.00  0.00    -0.266 OA
ATOM      7  O   UNL d   1     -41.511-121.125 -52.505  0.00  0.00    -0.266 OA
ATOM      8  N   UNL d   1     -41.175-123.646 -54.262  0.00  0.00    -0.242 NA
ATOM      9  C   UNL d   1     -41.143-123.818 -53.455  0.00  0.00     0.104 A 
ATOM     10  C   UNL d   1     -41.365-122.266 -53.973  0.00  0.00     0.026 A 
ATOM     11  C   UNL d   1     -41.285-122.874 -54.525  0.00  0.00     0.099 A 
ENDROOT
BRANCH   1  12
ATOM     12  C   UNL d   1     -41.352-122.166 -51.049  0.00  0.00     0.326 C 
ATOM     13  O   UNL d   1     -42.078-122.123 -50.659  0.00  0.00    -0.261 OA
ENDBRANCH   1  12
TORSDOF 1
ENDMDL
MODEL 6
REMARK VINA RESULT:      -4.1      1.691      2.714
REMARK  1 active torsions:
REMARK  status: ('A' for Active; 'I' for Inactive)
REMARK    1  A    between atoms: C_6  and  N_1 
ROOT
ATOM      1  N   UNL d   1     -41.281-122.447 -52.291  0.00  0.00    -0.204 N 
ATOM      2  C   UNL d   1     -41.411-123.224 -52.034  0.00  0.00     0.271 A 
ATOM      3  C   UNL d   1     -41.246-121.956 -51.625  0.00  0.00     0.270 A 
ATOM      4  C   UNL d   1     -41.457-123.211 -51.209  0.00  0.00     0.080 A 
ATOM      5  C   UNL d   1     -41.356-122.438 -50.960  0.00  0.00     0.064 A 
ATOM      6  O   UNL d   1     -41.467-123.808 -52.574  0.00  0.00    -0.266 OA
ATOM      7  O   UNL d   1     -41.125-121.140 -51.626  0.00  0.00    -0.266 OA
ATOM      8  N   UNL d   1     -41.597-123.636 -49.863  0.00  0.00    -0.242 NA
ATOM      9  C   UNL d   1     -41.578-123.817 -50.668  0.00  0.00     0.104 A 
ATOM     10  C   UNL d   1     -41.376-122.261 -50.156  0.00  0.00     0.026 A 
ATOM     11  C   UNL d   1     -41.497-122.861 -49.603  0.00  0.00     0.099 A 
ENDROOT
BRANCH   1  12
ATOM     12  C   UNL d   1     -41.199-122.200 -53.076  0.00  0.00     0.326 C 
ATOM     13  O   UNL d   1     -41.872-122.054 -53.532  0.00  0.00    -0.261 OA
ENDBRANCH   1  12
TORSDOF 1
ENDMDL
MODEL 7
REMARK VINA RESULT:      -3.2      3.030      4.054
REMARK  1 active torsions:
REMARK  status: ('A' for Active; 'I' for Inactive)
REMARK    1  A    between atoms: C_6  and  N_1 
ROOT
ATOM      1  N   UNL d   1     -42.050-122.739 -50.888  0.00  0.00    -0.204 N 
ATOM      2  C   UNL d   1     -41.694-123.343 -50.448  0.00  0.00     0.271 A 
ATOM      3  C   UNL d   1     -42.611-122.364 -50.408  0.00  0.00     0.270 A 
ATOM      4  C   UNL d   1     -42.036-123.341 -49.696  0.00  0.00     0.080 A 
ATOM      5  C   UNL d   1     -42.595-122.744 -49.671  0.00  0.00     0.064 A 
ATOM      6  O   UNL d   1     -41.129-123.791 -50.788  0.00  0.00    -0.266 OA
ATOM      7  O   UNL d   1     -43.094-121.732 -50.624  0.00  0.00    -0.266 OA
ATOM      8  N   UNL d   1     -42.330-123.683 -48.351  0.00  0.00    -0.242 NA
ATOM      9  C   UNL d   1     -41.896-123.816 -49.040  0.00  0.00     0.104 A 
ATOM     10  C   UNL d   1     -43.026-122.614 -48.982  0.00  0.00     0.026 A 
ATOM     11  C   UNL d   1     -42.894-123.085 -48.317  0.00  0.00     0.099 A 
ENDROOT
BRANCH   1  12
ATOM     12  C   UNL d   1     -41.878-122.539 -51.673  0.00  0.00     0.326 C 
ATOM     13  O   UNL d   1     -41.329-121.945 -51.834  0.00  0.00    -0.261 OA
ENDBRANCH   1  12
TORSDOF 1
ENDMDL
MODEL 8
REMARK VINA RESULT:      -2.7      3.212      4.475
REMARK  1 active torsions:
REMARK  status: ('A' for Active; 'I' for Inactive)
REMARK    1  A    between atoms: C_6  and  N_1 
ROOT
ATOM      1  N   UNL d   1     -42.593-123.011 -49.469  0.00  0.00    -0.204 N 
ATOM      2  C   UNL d   1     -41.872-123.283 -49.772  0.00  0.00     0.271 A 
ATOM      3  C   UNL d   1     -42.911-122.467 -50.007  0.00  0.00     0.270 A 
ATOM      4  C   UNL d   1     -41.746-122.908 -50.497  0.00  0.00     0.080 A 
ATOM      5  C   UNL d   1     -42.380-122.410 -50.640  0.00  0.00     0.064 A 
ATOM      6  O   UNL d   1     -41.452-123.817 -49.354  0.00  0.00    -0.266 OA
ATOM      7  O   UNL d   1     -43.624-122.060 -49.925  0.00  0.00    -0.266 OA
ATOM      8  N   UNL d   1     -41.151-122.517 -51.723  0.00  0.00    -0.242 NA
ATOM      9  C   UNL d   1     -41.126-122.968 -51.033  0.00  0.00     0.104 A 
ATOM     10  C   UNL d   1     -42.400-121.962 -51.330  0.00  0.00     0.026 A 
ATOM     11  C   UNL d   1     -41.784-122.014 -51.876  0.00  0.00     0.099 A 
ENDROOT
BRANCH   1  12
ATOM     12  C   UNL d   1     -42.940-123.239 -48.753  0.00  0.00     0.326 C 
ATOM     13  O   UNL d   1     -42.842-122.768 -48.082  0.00  0.00    -0.261 OA
ENDBRANCH   1  12
TORSDOF 1
ENDMDL
