MODEL 1
REMARK VINA RESULT:      93.0      0.000      0.000
REMARK  3 active torsions:
REMARK  status: ('A' for Active; 'I' for Inactive)
REMARK    1  A    between atoms: C_9  and  C_4 
REMARK    2  A    between atoms: C_10  and  C_7 
REMARK    3  A    between atoms: C_13  and  C_10 
ROOT
ATOM      1  C   UNL d   1      61.136  46.965  50.515  0.00  0.00     0.179 A 
ATOM      2  N   UNL d   1      61.652  47.236  49.923  0.00  0.00    -0.282 N 
ATOM      3  N   UNL d   1      61.136  46.144  50.503  0.00  0.00    -0.221 NA
ATOM      4  C   UNL d   1      61.656  45.899  49.897  0.00  0.00     0.101 A 
ATOM      5  S   UNL d   1      60.816  47.622  50.897  0.00  0.00    -0.048 SA
ATOM      6  C   UNL d   1      61.968  46.572  49.548  0.00  0.00     0.101 A 
ATOM      7  C   UNL d   1      61.134  48.298  50.539  0.00  0.00     0.050 A 
ATOM      8  C   UNL d   1      61.641  48.057  49.948  0.00  0.00     0.089 A 
ENDROOT
BRANCH   7   9
ATOM      9  C   UNL d   1      60.957  49.079  50.756  0.00  0.00     0.008 C 
BRANCH   9  10
ATOM     10  C   UNL d   1      60.522  49.235  51.431  0.00  0.00     0.001 A 
ATOM     11  C   UNL d   1      59.694  49.308  51.383  0.00  0.00     0.002 A 
ATOM     12  C   UNL d   1      59.256  49.466  52.069  0.00  0.00     0.030 A 
ATOM     13  C   UNL d   1      59.637  49.551  52.795  0.00  0.00     0.140 A 
ATOM     14  C   UNL d   1      60.458  49.478  52.844  0.00  0.00     0.030 A 
ATOM     15  F   UNL d   1      59.215  49.708  53.482  0.00  0.00    -0.204 F 
ATOM     16  C   UNL d   1      60.898  49.320  52.161  0.00  0.00     0.002 A 
ENDBRANCH   9  10
ENDBRANCH   7   9
BRANCH   4  17
ATOM     17  C   UNL d   1      61.821  45.122  49.695  0.00  0.00     0.019 A 
ATOM     18  C   UNL d   1      62.296  44.969  49.044  0.00  0.00     0.004 A 
ATOM     19  C   UNL d   1      62.470  44.188  48.828  0.00  0.00     0.030 A 
ATOM     20  C   UNL d   1      62.161  43.564  49.276  0.00  0.00     0.140 A 
ATOM     21  C   UNL d   1      61.686  43.717  49.928  0.00  0.00     0.030 A 
ATOM     22  F   UNL d   1      62.232  42.748  49.205  0.00  0.00    -0.204 F 
ATOM     23  C   UNL d   1      61.514  44.493  50.140  0.00  0.00     0.004 A 
ENDBRANCH   4  17
TORSDOF 3
ENDMDL
