MODEL 1
REMARK VINA RESULT:     109.0      0.000      0.000
REMARK  4 active torsions:
REMARK  status: ('A' for Active; 'I' for Inactive)
REMARK    1  A    between atoms: N_10  and  C_3 
REMARK    2  A    between atoms: C_15  and  C_5 
REMARK    3  A    between atoms: C_14  and  C_9 
REMARK       I    between atoms: C_11  and  N_12 
REMARK    4  A    between atoms: C_13  and  C_11 
ROOT
ATOM      1  N   UNL d   1     -50.709  26.654  33.828  0.00  0.00    -0.196 N 
ATOM      2  C   UNL d   1     -51.041  25.897  33.710  0.00  0.00     0.167 A 
ATOM      3  C   UNL d   1     -49.892  26.730  33.882  0.00  0.00     0.152 A 
ATOM      4  N   UNL d   1     -52.014  27.213  33.831  0.00  0.00    -0.163 NA
ATOM      5  C   UNL d   1     -51.849  25.803  33.654  0.00  0.00     0.055 A 
ATOM      6  N   UNL d   1     -50.549  25.233  33.650  0.00  0.00    -0.231 NA
ATOM      7  C   UNL d   1     -49.394  26.064  33.822  0.00  0.00     0.052 A 
ATOM      8  C   UNL d   1     -52.342  26.467  33.715  0.00  0.00     0.104 A 
ATOM      9  C   UNL d   1     -49.722  25.318  33.706  0.00  0.00     0.063 A 
ATOM     10  C   UNL d   1     -53.158  26.387  33.660  0.00  0.00     0.023 C 
ENDROOT
BRANCH   3  11
ATOM     11  N   UNL d   1     -49.549  27.511  34.004  0.00  0.00    -0.286 N 
ATOM     12  C   UNL d   1     -49.465  28.169  33.526  0.00  0.00     0.101 A 
ATOM     13  C   UNL d   1     -49.103  28.839  33.822  0.00  0.00     0.102 A 
ATOM     14  N   UNL d   1     -48.828  28.847  34.590  0.00  0.00    -0.267 N 
ATOM     15  C   UNL d   1     -48.471  29.511  34.877  0.00  0.00     0.288 C 
ATOM     16  C   UNL d   1     -48.915  28.195  35.051  0.00  0.00     0.102 A 
ATOM     17  O   UNL d   1     -48.195  29.526  35.641  0.00  0.00    -0.264 OA
ATOM     18  C   UNL d   1     -49.277  27.520  34.759  0.00  0.00     0.101 A 
BRANCH  15  19
ATOM     19  C   UNL d   1     -48.385  30.166  34.412  0.00  0.00     0.156 A 
ATOM     20  O   UNL d   1     -47.669  30.328  34.070  0.00  0.00    -0.300 OA
ATOM     21  C   UNL d   1     -47.574  30.983  33.602  0.00  0.00     0.123 A 
ATOM     22  C   UNL d   1     -48.198  31.478  33.474  0.00  0.00     0.029 A 
ATOM     23  C   UNL d   1     -49.007  30.662  34.282  0.00  0.00     0.032 A 
ENDBRANCH  15  19
ENDBRANCH   3  11
BRANCH   9  24
ATOM     24  C   UNL d   1     -49.211  24.627  33.642  0.00  0.00     0.036 C 
ATOM     25  C   UNL d   1     -48.704  23.949  33.578  0.00  0.00     0.006 C 
ATOM     26  C   UNL d   1     -49.494  23.860  33.915  0.00  0.00     0.006 C 
ATOM     27  C   UNL d   1     -48.427  24.715  33.308  0.00  0.00     0.006 C 
ENDBRANCH   9  24
BRANCH   5  28
ATOM     28  C   UNL d   1     -52.179  25.053  33.538  0.00  0.00     0.004 A 
ATOM     29  C   UNL d   1     -52.998  24.967  33.527  0.00  0.00     0.000 A 
ATOM     30  C   UNL d   1     -53.331  24.210  33.409  0.00  0.00     0.000 A 
ATOM     31  C   UNL d   1     -52.834  23.560  33.306  0.00  0.00     0.000 A 
ATOM     32  C   UNL d   1     -52.011  23.659  33.318  0.00  0.00     0.000 A 
ATOM     33  C   UNL d   1     -51.684  24.405  33.434  0.00  0.00     0.000 A 
ENDBRANCH   5  28
TORSDOF 4
ENDMDL
MODEL 2
REMARK VINA RESULT:     110.9      0.971      2.551
REMARK  4 active torsions:
REMARK  status: ('A' for Active; 'I' for Inactive)
REMARK    1  A    between atoms: N_10  and  C_3 
REMARK    2  A    between atoms: C_15  and  C_5 
REMARK    3  A    between atoms: C_14  and  C_9 
REMARK       I    between atoms: C_11  and  N_12 
REMARK    4  A    between atoms: C_13  and  C_11 
ROOT
ATOM      1  N   UNL d   1     -49.601  27.388  33.826  0.00  0.00    -0.196 N 
ATOM      2  C   UNL d   1     -50.041  26.689  33.696  0.00  0.00     0.167 A 
ATOM      3  C   UNL d   1     -49.989  28.113  33.825  0.00  0.00     0.152 A 
ATOM      4  N   UNL d   1     -48.422  26.606  33.948  0.00  0.00    -0.163 NA
ATOM      5  C   UNL d   1     -49.673  25.962  33.693  0.00  0.00     0.055 A 
ATOM      6  N   UNL d   1     -50.859  26.733  33.568  0.00  0.00    -0.231 NA
ATOM      7  C   UNL d   1     -50.811  28.159  33.697  0.00  0.00     0.052 A 
ATOM      8  C   UNL d   1     -48.855  25.918  33.820  0.00  0.00     0.104 A 
ATOM      9  C   UNL d   1     -51.245  27.472  33.569  0.00  0.00     0.063 A 
ATOM     10  C   UNL d   1     -48.471  25.191  33.820  0.00  0.00     0.023 C 
ENDROOT
BRANCH   3  11
ATOM     11  N   UNL d   1     -49.535  28.833  33.960  0.00  0.00    -0.286 N 
ATOM     12  C   UNL d   1     -49.521  29.564  33.596  0.00  0.00     0.101 A 
ATOM     13  C   UNL d   1     -49.010  30.140  33.869  0.00  0.00     0.102 A 
ATOM     14  N   UNL d   1     -48.518  29.983  34.500  0.00  0.00    -0.267 N 
ATOM     15  C   UNL d   1     -48.015  30.555  34.765  0.00  0.00     0.288 C 
ATOM     16  C   UNL d   1     -48.540  29.260  34.850  0.00  0.00     0.102 A 
ATOM     17  O   UNL d   1     -47.523  30.404  35.394  0.00  0.00    -0.264 OA
ATOM     18  C   UNL d   1     -49.051  28.678  34.581  0.00  0.00     0.101 A 
BRANCH  15  19
ATOM     19  C   UNL d   1     -47.995  31.281  34.412  0.00  0.00     0.156 A 
ATOM     20  O   UNL d   1     -47.326  31.735  34.457  0.00  0.00    -0.300 OA
ATOM     21  C   UNL d   1     -47.298  32.464  34.105  0.00  0.00     0.123 A 
ATOM     22  C   UNL d   1     -47.942  32.742  33.705  0.00  0.00     0.029 A 
ATOM     23  C   UNL d   1     -48.637  31.560  34.012  0.00  0.00     0.032 A 
ENDBRANCH  15  19
ENDBRANCH   3  11
BRANCH   9  24
ATOM     24  C   UNL d   1     -52.094  27.515  33.437  0.00  0.00     0.036 C 
ATOM     25  C   UNL d   1     -52.932  27.564  33.306  0.00  0.00     0.006 C 
ATOM     26  C   UNL d   1     -52.550  26.791  33.340  0.00  0.00     0.006 C 
ATOM     27  C   UNL d   1     -52.474  28.283  33.403  0.00  0.00     0.006 C 
ENDBRANCH   9  24
BRANCH   5  28
ATOM     28  C   UNL d   1     -50.109  25.270  33.564  0.00  0.00     0.004 A 
ATOM     29  C   UNL d   1     -50.933  25.306  33.556  0.00  0.00     0.000 A 
ATOM     30  C   UNL d   1     -51.373  24.608  33.426  0.00  0.00     0.000 A 
ATOM     31  C   UNL d   1     -50.976  23.895  33.307  0.00  0.00     0.000 A 
ATOM     32  C   UNL d   1     -50.149  23.871  33.316  0.00  0.00     0.000 A 
ATOM     33  C   UNL d   1     -49.715  24.559  33.445  0.00  0.00     0.000 A 
ENDBRANCH   5  28
TORSDOF 4
ENDMDL
