MODEL 1
REMARK VINA RESULT:      -4.4      0.000      0.000
REMARK  4 active torsions:
REMARK  status: ('A' for Active; 'I' for Inactive)
REMARK    1  A    between atoms: C_6  and  S_1 
REMARK    2  A    between atoms: N_8  and  S_1 
REMARK    3  A    between atoms: C_17  and  N_8 
REMARK    4  A    between atoms: N_16  and  C_15 
ROOT
ATOM      1  N   UNL d   1      56.241  -0.479  33.528  0.00  0.00    -0.273 N 
ATOM      2  C   UNL d   1      56.475   0.072  34.118  0.00  0.00     0.265 A 
ATOM      3  C   UNL d   1      56.654  -0.297  32.838  0.00  0.00     0.067 A 
ATOM      4  C   UNL d   1      57.179   0.330  32.832  0.00  0.00     0.022 A 
ATOM      5  C   UNL d   1      57.476   0.061  31.461  0.00  0.00     0.105 A 
ATOM      6  C   UNL d   1      56.538  -0.748  32.157  0.00  0.00     0.017 A 
ATOM      7  C   UNL d   1      57.182   0.682  33.593  0.00  0.00     0.063 A 
ATOM      8  C   UNL d   1      57.592   0.512  32.142  0.00  0.00     0.015 A 
ATOM      9  C   UNL d   1      56.946  -0.571  31.470  0.00  0.00     0.014 A 
ATOM     10  O   UNL d   1      56.147   0.024  34.877  0.00  0.00    -0.267 OA
ATOM     11  C   UNL d   1      55.710  -1.111  33.539  0.00  0.00     0.083 A 
ATOM     12  C   UNL d   1      56.010  -1.373  32.178  0.00  0.00     0.003 A 
ATOM     13  C   UNL d   1      55.594  -1.562  32.858  0.00  0.00     0.019 A 
ENDROOT
BRANCH   5  14
ATOM     14  S   UNL d   1      57.895   0.248  30.765  0.00  0.00     0.285 S 
ATOM     15  O   UNL d   1      58.566   0.390  31.226  0.00  0.00    -0.198 OA
ATOM     16  O   UNL d   1      57.211   0.101  30.314  0.00  0.00    -0.198 OA
BRANCH  14  17
ATOM     17  N   UNL d   1      58.310   0.432  30.078  0.00  0.00    -0.158 NA
BRANCH  17  18
ATOM     18  C   UNL d   1      58.831  -0.119  29.755  0.00  0.00     0.094 A 
ATOM     19  C   UNL d   1      58.548  -0.722  29.276  0.00  0.00     0.021 A 
ATOM     20  C   UNL d   1      59.070  -1.274  28.953  0.00  0.00     0.019 A 
ATOM     21  C   UNL d   1      59.874  -1.222  29.108  0.00  0.00     0.064 A 
ATOM     22  C   UNL d   1      60.161  -0.616  29.590  0.00  0.00     0.019 A 
ATOM     23  C   UNL d   1      59.639  -0.064  29.914  0.00  0.00     0.021 A 
BRANCH  21  24
ATOM     24  N   UNL d   1      60.396  -1.773  28.785  0.00  0.00    -0.301 N 
ATOM     25  C   UNL d   1      60.191  -2.573  28.767  0.00  0.00     0.100 C 
ATOM     26  C   UNL d   1      61.122  -1.525  28.481  0.00  0.00     0.100 C 
ENDBRANCH  21  24
ENDBRANCH  17  18
ENDBRANCH  14  17
ENDBRANCH   5  14
TORSDOF 4
ENDMDL
MODEL 2
REMARK VINA RESULT:      -3.0      1.373      5.012
REMARK  4 active torsions:
REMARK  status: ('A' for Active; 'I' for Inactive)
REMARK    1  A    between atoms: C_6  and  S_1 
REMARK    2  A    between atoms: N_8  and  S_1 
REMARK    3  A    between atoms: C_17  and  N_8 
REMARK    4  A    between atoms: N_16  and  C_15 
ROOT
ATOM      1  N   UNL d   1      59.956  -2.889  28.738  0.00  0.00    -0.273 N 
ATOM      2  C   UNL d   1      59.435  -3.546  28.797  0.00  0.00     0.265 A 
ATOM      3  C   UNL d   1      59.561  -2.228  29.034  0.00  0.00     0.067 A 
ATOM      4  C   UNL d   1      58.796  -2.304  29.313  0.00  0.00     0.022 A 
ATOM      5  C   UNL d   1      58.777  -0.909  29.623  0.00  0.00     0.105 A 
ATOM      6  C   UNL d   1      59.938  -1.495  29.048  0.00  0.00     0.017 A 
ATOM      7  C   UNL d   1      58.560  -3.104  29.231  0.00  0.00     0.063 A 
ATOM      8  C   UNL d   1      58.401  -1.643  29.610  0.00  0.00     0.015 A 
ATOM      9  C   UNL d   1      59.550  -0.837  29.341  0.00  0.00     0.014 A 
ATOM     10  O   UNL d   1      59.684  -4.292  28.539  0.00  0.00    -0.267 OA
ATOM     11  C   UNL d   1      60.728  -2.817  28.455  0.00  0.00     0.083 A 
ATOM     12  C   UNL d   1      60.704  -1.434  28.765  0.00  0.00     0.003 A 
ATOM     13  C   UNL d   1      61.105  -2.083  28.469  0.00  0.00     0.019 A 
ENDROOT
BRANCH   5  14
ATOM     14  S   UNL d   1      58.375  -0.244  29.923  0.00  0.00     0.285 S 
ATOM     15  O   UNL d   1      57.837  -0.753  30.288  0.00  0.00    -0.198 OA
ATOM     16  O   UNL d   1      58.926   0.257  29.549  0.00  0.00    -0.198 OA
BRANCH  14  17
ATOM     17  N   UNL d   1      57.978   0.413  30.219  0.00  0.00    -0.158 NA
BRANCH  17  18
ATOM     18  C   UNL d   1      57.701   0.408  30.997  0.00  0.00     0.094 A 
ATOM     19  C   UNL d   1      58.202   0.616  31.613  0.00  0.00     0.021 A 
ATOM     20  C   UNL d   1      57.926   0.611  32.391  0.00  0.00     0.019 A 
ATOM     21  C   UNL d   1      57.149   0.397  32.552  0.00  0.00     0.064 A 
ATOM     22  C   UNL d   1      56.644   0.188  31.933  0.00  0.00     0.019 A 
ATOM     23  C   UNL d   1      56.920   0.193  31.155  0.00  0.00     0.021 A 
BRANCH  21  24
ATOM     24  N   UNL d   1      56.873   0.392  33.329  0.00  0.00    -0.301 N 
ATOM     25  C   UNL d   1      56.115   0.111  33.495  0.00  0.00     0.100 C 
ATOM     26  C   UNL d   1      57.355   0.667  33.939  0.00  0.00     0.100 C 
ENDBRANCH  21  24
ENDBRANCH  17  18
ENDBRANCH  14  17
ENDBRANCH   5  14
TORSDOF 4
ENDMDL
