MODEL 1
REMARK VINA RESULT:      -9.2      0.000      0.000
REMARK  2 active torsions:
REMARK  status: ('A' for Active; 'I' for Inactive)
REMARK    1  A    between atoms: C_6  and  C_1 
REMARK    2  A    between atoms: O_16  and  C_13 
ROOT
ATOM      1  C   UNL d   1      52.825  32.926  53.352  0.00  0.00     0.148 A 
ATOM      2  N   UNL d   1      53.291  33.238  53.939  0.00  0.00    -0.289 N 
ATOM      3  N   UNL d   1      53.167  32.230  53.093  0.00  0.00    -0.225 NA
ATOM      4  C   UNL d   1      53.947  32.742  54.065  0.00  0.00     0.085 A 
ATOM      5  C   UNL d   1      53.860  32.108  53.526  0.00  0.00     0.118 A 
ATOM      6  C   UNL d   1      53.219  33.957  54.420  0.00  0.00     0.082 A 
ATOM      7  C   UNL d   1      54.511  32.917  54.624  0.00  0.00     0.019 A 
ATOM      8  C   UNL d   1      53.783  34.132  54.979  0.00  0.00     0.019 A 
ATOM      9  C   UNL d   1      54.460  33.600  55.095  0.00  0.00     0.003 A 
ENDROOT
BRANCH   1  10
ATOM     10  C   UNL d   1      52.122  33.319  53.114  0.00  0.00     0.035 A 
ATOM     11  C   UNL d   1      51.394  33.137  53.468  0.00  0.00     0.005 A 
ATOM     12  C   UNL d   1      50.712  33.524  53.230  0.00  0.00     0.024 A 
ATOM     13  C   UNL d   1      50.743  34.097  52.638  0.00  0.00     0.094 A 
ATOM     14  C   UNL d   1      51.454  34.277  52.290  0.00  0.00     0.024 A 
ATOM     15  C   UNL d   1      52.156  33.888  52.525  0.00  0.00     0.005 A 
BRANCH  13  16
ATOM     16  O   UNL d   1      50.052  34.511  52.375  0.00  0.00    -0.328 OA
ATOM     17  C   UNL d   1      49.549  34.878  52.916  0.00  0.00     0.181 C 
ENDBRANCH  13  16
ENDBRANCH   1  10
TORSDOF 2
ENDMDL
MODEL 2
REMARK VINA RESULT:      -8.7      2.427      3.696
REMARK  2 active torsions:
REMARK  status: ('A' for Active; 'I' for Inactive)
REMARK    1  A    between atoms: C_6  and  C_1 
REMARK    2  A    between atoms: O_16  and  C_13 
ROOT
ATOM      1  C   UNL d   1      53.274  32.046  53.372  0.00  0.00     0.148 A 
ATOM      2  N   UNL d   1      53.258  31.238  53.455  0.00  0.00    -0.289 N 
ATOM      3  N   UNL d   1      52.723  32.258  52.806  0.00  0.00    -0.225 NA
ATOM      4  C   UNL d   1      52.690  30.918  52.939  0.00  0.00     0.085 A 
ATOM      5  C   UNL d   1      52.358  31.569  52.533  0.00  0.00     0.118 A 
ATOM      6  C   UNL d   1      53.707  30.696  53.963  0.00  0.00     0.082 A 
ATOM      7  C   UNL d   1      52.553  30.117  52.902  0.00  0.00     0.019 A 
ATOM      8  C   UNL d   1      53.570  29.895  53.926  0.00  0.00     0.019 A 
ATOM      9  C   UNL d   1      52.973  29.581  53.380  0.00  0.00     0.003 A 
ENDROOT
BRANCH   1  10
ATOM     10  C   UNL d   1      53.802  32.510  53.831  0.00  0.00     0.035 A 
ATOM     11  C   UNL d   1      53.593  32.755  54.597  0.00  0.00     0.005 A 
ATOM     12  C   UNL d   1      54.113  33.208  55.040  0.00  0.00     0.024 A 
ATOM     13  C   UNL d   1      54.845  33.424  54.731  0.00  0.00     0.094 A 
ATOM     14  C   UNL d   1      55.052  33.186  53.982  0.00  0.00     0.024 A 
ATOM     15  C   UNL d   1      54.529  32.723  53.521  0.00  0.00     0.005 A 
BRANCH  13  16
ATOM     16  O   UNL d   1      55.400  33.892  55.170  0.00  0.00    -0.328 OA
ATOM     17  C   UNL d   1      55.249  34.097  55.954  0.00  0.00     0.181 C 
ENDBRANCH  13  16
ENDBRANCH   1  10
TORSDOF 2
ENDMDL
MODEL 3
REMARK VINA RESULT:      -8.2      2.067      3.566
REMARK  2 active torsions:
REMARK  status: ('A' for Active; 'I' for Inactive)
REMARK    1  A    between atoms: C_6  and  C_1 
REMARK    2  A    between atoms: O_16  and  C_13 
ROOT
ATOM      1  C   UNL d   1      53.365  32.535  53.393  0.00  0.00     0.148 A 
ATOM      2  N   UNL d   1      52.709  33.008  53.321  0.00  0.00    -0.289 N 
ATOM      3  N   UNL d   1      54.031  33.010  53.361  0.00  0.00    -0.225 NA
ATOM      4  C   UNL d   1      52.948  33.801  53.240  0.00  0.00     0.085 A 
ATOM      5  C   UNL d   1      53.784  33.792  53.266  0.00  0.00     0.118 A 
ATOM      6  C   UNL d   1      51.860  32.830  53.315  0.00  0.00     0.082 A 
ATOM      7  C   UNL d   1      52.406  34.402  53.157  0.00  0.00     0.019 A 
ATOM      8  C   UNL d   1      51.318  33.430  53.232  0.00  0.00     0.019 A 
ATOM      9  C   UNL d   1      51.588  34.251  53.149  0.00  0.00     0.003 A 
ENDROOT
BRANCH   1  10
ATOM     10  C   UNL d   1      53.282  31.705  53.483  0.00  0.00     0.035 A 
ATOM     11  C   UNL d   1      53.094  31.225  52.831  0.00  0.00     0.005 A 
ATOM     12  C   UNL d   1      53.014  30.415  52.926  0.00  0.00     0.024 A 
ATOM     13  C   UNL d   1      53.120  30.070  53.666  0.00  0.00     0.094 A 
ATOM     14  C   UNL d   1      53.305  30.536  54.305  0.00  0.00     0.024 A 
ATOM     15  C   UNL d   1      53.388  31.364  54.220  0.00  0.00     0.005 A 
BRANCH  13  16
ATOM     16  O   UNL d   1      53.043  29.234  53.790  0.00  0.00    -0.328 OA
ATOM     17  C   UNL d   1      53.315  28.885  54.485  0.00  0.00     0.181 C 
ENDBRANCH  13  16
ENDBRANCH   1  10
TORSDOF 2
ENDMDL
MODEL 4
REMARK VINA RESULT:      -7.4      1.721      3.577
REMARK  2 active torsions:
REMARK  status: ('A' for Active; 'I' for Inactive)
REMARK    1  A    between atoms: C_6  and  C_1 
REMARK    2  A    between atoms: O_16  and  C_13 
ROOT
ATOM      1  C   UNL d   1      52.782  32.727  53.461  0.00  0.00     0.148 A 
ATOM      2  N   UNL d   1      52.250  33.304  53.251  0.00  0.00    -0.289 N 
ATOM      3  N   UNL d   1      52.513  32.011  53.170  0.00  0.00    -0.225 NA
ATOM      4  C   UNL d   1      51.627  32.963  52.819  0.00  0.00     0.085 A 
ATOM      5  C   UNL d   1      51.802  32.146  52.773  0.00  0.00     0.118 A 
ATOM      6  C   UNL d   1      52.231  34.159  53.397  0.00  0.00     0.082 A 
ATOM      7  C   UNL d   1      51.011  33.411  52.535  0.00  0.00     0.019 A 
ATOM      8  C   UNL d   1      51.615  34.608  53.114  0.00  0.00     0.019 A 
ATOM      9  C   UNL d   1      50.975  34.232  52.665  0.00  0.00     0.003 A 
ENDROOT
BRANCH   1  10
ATOM     10  C   UNL d   1      53.468  32.922  53.903  0.00  0.00     0.035 A 
ATOM     11  C   UNL d   1      54.194  33.054  53.523  0.00  0.00     0.005 A 
ATOM     12  C   UNL d   1      54.860  33.244  53.961  0.00  0.00     0.024 A 
ATOM     13  C   UNL d   1      54.815  33.305  54.782  0.00  0.00     0.094 A 
ATOM     14  C   UNL d   1      54.106  33.176  55.157  0.00  0.00     0.024 A 
ATOM     15  C   UNL d   1      53.420  32.982  54.719  0.00  0.00     0.005 A 
BRANCH  13  16
ATOM     16  O   UNL d   1      55.490  33.500  55.257  0.00  0.00    -0.328 OA
ATOM     17  C   UNL d   1      55.833  34.248  55.213  0.00  0.00     0.181 C 
ENDBRANCH  13  16
ENDBRANCH   1  10
TORSDOF 2
ENDMDL
MODEL 5
REMARK VINA RESULT:      -7.1      1.715      2.566
REMARK  2 active torsions:
REMARK  status: ('A' for Active; 'I' for Inactive)
REMARK    1  A    between atoms: C_6  and  C_1 
REMARK    2  A    between atoms: O_16  and  C_13 
ROOT
ATOM      1  C   UNL d   1      53.771  32.777  53.651  0.00  0.00     0.148 A 
ATOM      2  N   UNL d   1      53.260  32.182  53.439  0.00  0.00    -0.289 N 
ATOM      3  N   UNL d   1      54.533  32.479  53.639  0.00  0.00    -0.225 NA
ATOM      4  C   UNL d   1      53.692  31.487  53.287  0.00  0.00     0.085 A 
ATOM      5  C   UNL d   1      54.495  31.685  53.416  0.00  0.00     0.118 A 
ATOM      6  C   UNL d   1      52.397  32.158  53.353  0.00  0.00     0.082 A 
ATOM      7  C   UNL d   1      53.324  30.798  53.062  0.00  0.00     0.019 A 
ATOM      8  C   UNL d   1      52.029  31.469  53.128  0.00  0.00     0.019 A 
ATOM      9  C   UNL d   1      52.498  30.755  52.974  0.00  0.00     0.003 A 
ENDROOT
BRANCH   1  10
ATOM     10  C   UNL d   1      53.479  33.541  53.836  0.00  0.00     0.035 A 
ATOM     11  C   UNL d   1      53.421  33.794  54.625  0.00  0.00     0.005 A 
ATOM     12  C   UNL d   1      53.135  34.541  54.799  0.00  0.00     0.024 A 
ATOM     13  C   UNL d   1      52.902  35.049  54.193  0.00  0.00     0.094 A 
ATOM     14  C   UNL d   1      52.958  34.806  53.420  0.00  0.00     0.024 A 
ATOM     15  C   UNL d   1      53.248  34.045  53.232  0.00  0.00     0.005 A 
BRANCH  13  16
ATOM     16  O   UNL d   1      52.603  35.828  54.347  0.00  0.00    -0.328 OA
ATOM     17  C   UNL d   1      52.981  36.325  54.886  0.00  0.00     0.181 C 
ENDBRANCH  13  16
ENDBRANCH   1  10
TORSDOF 2
ENDMDL
