MODEL 1
REMARK VINA RESULT:      -4.8      0.000      0.000
REMARK  4 active torsions:
REMARK  status: ('A' for Active; 'I' for Inactive)
REMARK    1  A    between atoms: N_2  and  S_1 
REMARK    2  A    between atoms: C_5  and  S_1 
REMARK    3  A    between atoms: C_4  and  C_3 
REMARK    4  A    between atoms: C_12  and  C_3 
ROOT
ATOM      1  N   UNL d   1      57.745  -0.010  30.419  0.00  0.00    -0.230 N 
ATOM      2  C   UNL d   1      56.985  -0.019  31.883  0.00  0.00     0.137 A 
ATOM      3  C   UNL d   1      57.287   0.676  31.574  0.00  0.00     0.011 A 
ATOM      4  C   UNL d   1      57.066  -0.718  31.451  0.00  0.00     0.011 A 
ATOM      5  C   UNL d   1      57.446  -0.714  30.719  0.00  0.00     0.088 A 
ATOM      6  C   UNL d   1      57.667   0.681  30.842  0.00  0.00     0.088 A 
ENDROOT
BRANCH   1   7
ATOM      7  S   UNL d   1      58.125  -0.006  29.686  0.00  0.00     0.271 S 
ATOM      8  O   UNL d   1      57.754   0.328  29.032  0.00  0.00    -0.200 OA
ATOM      9  O   UNL d   1      57.400   0.362  29.561  0.00  0.00    -0.200 OA
BRANCH   7  10
ATOM     10  C   UNL d   1      58.875  -0.335  29.609  0.00  0.00     0.104 A 
ATOM     11  C   UNL d   1      59.532   0.080  29.863  0.00  0.00     0.013 A 
ATOM     12  C   UNL d   1      60.289  -0.244  29.789  0.00  0.00     0.001 A 
ATOM     13  C   UNL d   1      60.375  -1.003  29.452  0.00  0.00     0.000 A 
ATOM     14  C   UNL d   1      59.708  -1.416  29.198  0.00  0.00     0.001 A 
ATOM     15  C   UNL d   1      61.133  -1.328  29.378  0.00  0.00     0.000 C 
ATOM     16  C   UNL d   1      58.964  -1.083  29.277  0.00  0.00     0.013 A 
ENDBRANCH   7  10
ENDBRANCH   1   7
BRANCH   2  17
ATOM     17  C   UNL d   1      56.790  -0.827  31.942  0.00  0.00     0.196 C 
ATOM     18  O   UNL d   1      56.066  -1.101  31.677  0.00  0.00    -0.647 OA
ATOM     19  O   UNL d   1      57.335  -1.353  32.270  0.00  0.00    -0.647 OA
ENDBRANCH   2  17
BRANCH   2  20
ATOM     20  C   UNL d   1      56.649   0.178  32.611  0.00  0.00    -0.005 A 
ATOM     21  C   UNL d   1      57.144   0.374  33.239  0.00  0.00    -0.003 A 
ATOM     22  C   UNL d   1      56.814   0.572  33.971  0.00  0.00    -0.000 A 
ATOM     23  C   UNL d   1      55.992   0.574  34.074  0.00  0.00    -0.000 A 
ATOM     24  C   UNL d   1      55.502   0.374  33.434  0.00  0.00    -0.000 A 
ATOM     25  C   UNL d   1      55.834   0.179  32.712  0.00  0.00    -0.003 A 
ENDBRANCH   2  20
TORSDOF 4
ENDMDL
MODEL 2
REMARK VINA RESULT:      -3.0      1.226      4.447
REMARK  4 active torsions:
REMARK  status: ('A' for Active; 'I' for Inactive)
REMARK    1  A    between atoms: N_2  and  S_1 
REMARK    2  A    between atoms: C_5  and  S_1 
REMARK    3  A    between atoms: C_4  and  C_3 
REMARK    4  A    between atoms: C_12  and  C_3 
ROOT
ATOM      1  N   UNL d   1      58.254  -0.347  30.050  0.00  0.00    -0.230 N 
ATOM      2  C   UNL d   1      59.359  -1.412  29.445  0.00  0.00     0.137 A 
ATOM      3  C   UNL d   1      58.644  -1.677  29.742  0.00  0.00     0.011 A 
ATOM      4  C   UNL d   1      59.521  -0.602  29.452  0.00  0.00     0.011 A 
ATOM      5  C   UNL d   1      58.968  -0.070  29.754  0.00  0.00     0.088 A 
ATOM      6  C   UNL d   1      58.092  -1.145  30.045  0.00  0.00     0.088 A 
ENDROOT
BRANCH   1   7
ATOM      7  S   UNL d   1      57.701   0.185  30.353  0.00  0.00     0.271 S 
ATOM      8  O   UNL d   1      57.287   0.682  29.845  0.00  0.00    -0.200 OA
ATOM      9  O   UNL d   1      57.695   0.299  29.538  0.00  0.00    -0.200 OA
BRANCH   7  10
ATOM     10  C   UNL d   1      57.564   0.220  31.164  0.00  0.00     0.104 A 
ATOM     11  C   UNL d   1      56.920  -0.166  31.486  0.00  0.00     0.013 A 
ATOM     12  C   UNL d   1      56.775  -0.136  32.300  0.00  0.00     0.001 A 
ATOM     13  C   UNL d   1      57.296   0.295  32.790  0.00  0.00     0.000 A 
ATOM     14  C   UNL d   1      57.944   0.682  32.457  0.00  0.00     0.001 A 
ATOM     15  C   UNL d   1      57.152   0.325  33.605  0.00  0.00     0.000 C 
ATOM     16  C   UNL d   1      58.075   0.643  31.649  0.00  0.00     0.013 A 
ENDBRANCH   7  10
ENDBRANCH   1   7
BRANCH   2  17
ATOM     17  C   UNL d   1      59.965  -0.884  29.223  0.00  0.00     0.196 C 
ATOM     18  O   UNL d   1      59.978  -0.555  28.474  0.00  0.00    -0.647 OA
ATOM     19  O   UNL d   1      60.556  -0.693  29.768  0.00  0.00    -0.647 OA
ENDBRANCH   2  17
BRANCH   2  20
ATOM     20  C   UNL d   1      59.769  -2.083  29.193  0.00  0.00    -0.005 A 
ATOM     21  C   UNL d   1      60.546  -2.192  29.441  0.00  0.00    -0.003 A 
ATOM     22  C   UNL d   1      60.963  -2.862  29.192  0.00  0.00    -0.000 A 
ATOM     23  C   UNL d   1      60.603  -3.421  28.699  0.00  0.00    -0.000 A 
ATOM     24  C   UNL d   1      59.818  -3.302  28.455  0.00  0.00    -0.000 A 
ATOM     25  C   UNL d   1      59.411  -2.637  28.703  0.00  0.00    -0.003 A 
ENDBRANCH   2  20
TORSDOF 4
ENDMDL
MODEL 3
REMARK VINA RESULT:      -2.7      0.980      1.345
REMARK  4 active torsions:
REMARK  status: ('A' for Active; 'I' for Inactive)
REMARK    1  A    between atoms: N_2  and  S_1 
REMARK    2  A    between atoms: C_5  and  S_1 
REMARK    3  A    between atoms: C_4  and  C_3 
REMARK    4  A    between atoms: C_12  and  C_3 
ROOT
ATOM      1  N   UNL d   1      58.055  -0.627  29.989  0.00  0.00    -0.230 N 
ATOM      2  C   UNL d   1      57.181  -0.552  31.386  0.00  0.00     0.137 A 
ATOM      3  C   UNL d   1      57.387  -1.275  31.062  0.00  0.00     0.011 A 
ATOM      4  C   UNL d   1      57.416   0.141  31.004  0.00  0.00     0.011 A 
ATOM      5  C   UNL d   1      57.853   0.104  30.306  0.00  0.00     0.088 A 
ATOM      6  C   UNL d   1      57.824  -1.312  30.363  0.00  0.00     0.088 A 
ENDROOT
BRANCH   1   7
ATOM      7  S   UNL d   1      58.492  -0.664  29.290  0.00  0.00     0.271 S 
ATOM      8  O   UNL d   1      58.272  -0.208  28.642  0.00  0.00    -0.200 OA
ATOM      9  O   UNL d   1      57.887  -0.126  29.144  0.00  0.00    -0.200 OA
BRANCH   7  10
ATOM     10  C   UNL d   1      59.149  -1.158  29.241  0.00  0.00     0.104 A 
ATOM     11  C   UNL d   1      59.861  -0.924  29.566  0.00  0.00     0.013 A 
ATOM     12  C   UNL d   1      60.526  -1.414  29.521  0.00  0.00     0.001 A 
ATOM     13  C   UNL d   1      60.460  -2.153  29.138  0.00  0.00     0.000 A 
ATOM     14  C   UNL d   1      59.738  -2.383  28.812  0.00  0.00     0.001 A 
ATOM     15  C   UNL d   1      61.125  -2.645  29.093  0.00  0.00     0.000 C 
ATOM     16  C   UNL d   1      59.088  -1.887  28.864  0.00  0.00     0.013 A 
ENDBRANCH   7  10
ENDBRANCH   1   7
BRANCH   2  17
ATOM     17  C   UNL d   1      57.120   0.274  31.477  0.00  0.00     0.196 C 
ATOM     18  O   UNL d   1      56.482   0.682  31.168  0.00  0.00    -0.647 OA
ATOM     19  O   UNL d   1      57.713   0.682  31.883  0.00  0.00    -0.647 OA
ENDBRANCH   2  17
BRANCH   2  20
ATOM     20  C   UNL d   1      56.753  -0.720  32.072  0.00  0.00    -0.005 A 
ATOM     21  C   UNL d   1      56.854  -0.240  32.732  0.00  0.00    -0.003 A 
ATOM     22  C   UNL d   1      56.428  -0.402  33.423  0.00  0.00    -0.000 A 
ATOM     23  C   UNL d   1      55.904  -1.042  33.452  0.00  0.00    -0.000 A 
ATOM     24  C   UNL d   1      55.809  -1.520  32.780  0.00  0.00    -0.000 A 
ATOM     25  C   UNL d   1      56.232  -1.355  32.100  0.00  0.00    -0.003 A 
ENDBRANCH   2  20
TORSDOF 4
ENDMDL
