MODEL 1
REMARK VINA RESULT:      43.6      0.000      0.000
REMARK  3 active torsions:
REMARK  status: ('A' for Active; 'I' for Inactive)
REMARK    1  A    between atoms: C_8  and  N_1 
REMARK    2  A    between atoms: O_16  and  C_11 
REMARK    3  A    between atoms: C_19  and  O_16 
ROOT
ATOM      1  N   UNL d   1      46.098 -16.992  43.604  0.00  0.00    -0.240 N 
ATOM      2  C   UNL d   1      46.274 -17.527  44.193  0.00  0.00     0.267 A 
ATOM      3  C   UNL d   1      45.958 -17.143  42.804  0.00  0.00     0.267 A 
ATOM      4  C   UNL d   1      45.961 -17.864  42.401  0.00  0.00     0.057 A 
ATOM      5  C   UNL d   1      46.357 -18.344  44.141  0.00  0.00     0.057 A 
ATOM      6  C   UNL d   1      46.106 -18.611  42.706  0.00  0.00     0.005 A 
ATOM      7  C   UNL d   1      46.283 -18.831  43.481  0.00  0.00     0.005 A 
ATOM      8  O   UNL d   1      46.386 -17.202  44.950  0.00  0.00    -0.267 OA
ATOM      9  O   UNL d   1      45.793 -16.476  42.346  0.00  0.00    -0.267 OA
ATOM     10  C   UNL d   1      45.794 -17.767  41.606  0.00  0.00     0.005 A 
ATOM     11  C   UNL d   1      46.536 -18.667  44.867  0.00  0.00     0.005 A 
ATOM     12  C   UNL d   1      46.389 -19.640  43.551  0.00  0.00     0.000 A 
ATOM     13  C   UNL d   1      46.084 -19.273  42.207  0.00  0.00     0.000 A 
ATOM     14  C   UNL d   1      45.915 -19.176  41.404  0.00  0.00     0.000 A 
ATOM     15  C   UNL d   1      46.570 -19.972  44.282  0.00  0.00     0.000 A 
ATOM     16  C   UNL d   1      46.644 -19.481  44.946  0.00  0.00     0.000 A 
ATOM     17  C   UNL d   1      45.772 -18.429  41.107  0.00  0.00     0.000 A 
ENDROOT
BRANCH   1  18
ATOM     18  C   UNL d   1      46.054 -16.198  43.839  0.00  0.00     0.092 A 
ATOM     19  C   UNL d   1      45.445 -15.949  44.338  0.00  0.00     0.116 A 
ATOM     20  C   UNL d   1      45.401 -15.156  44.573  0.00  0.00     0.026 A 
ATOM     21  C   UNL d   1      45.971 -14.607  44.305  0.00  0.00     0.002 A 
ATOM     22  C   UNL d   1      46.586 -14.865  43.801  0.00  0.00     0.002 A 
ATOM     23  C   UNL d   1      46.626 -15.657  43.569  0.00  0.00     0.020 A 
BRANCH  19  24
ATOM     24  O   UNL d   1      44.881 -16.493  44.601  0.00  0.00    -0.304 OA
BRANCH  24  25
ATOM     25  C   UNL d   1      44.188 -16.221  44.943  0.00  0.00     0.123 C 
ATOM     26  C   UNL d   1      43.954 -15.443  44.812  0.00  0.00     0.029 C 
ENDBRANCH  24  25
ENDBRANCH  19  24
ENDBRANCH   1  18
TORSDOF 3
ENDMDL
