MODEL 1
REMARK VINA RESULT:      -0.5      0.000      0.000
REMARK  6 active torsions:
REMARK  status: ('A' for Active; 'I' for Inactive)
REMARK       I    between atoms: C_4  and  N_1 
REMARK    1  A    between atoms: C_8  and  C_3 
REMARK    2  A    between atoms: C_16  and  C_4 
REMARK    3  A    between atoms: C_13  and  C_5 
REMARK    4  A    between atoms: N_6  and  C_9 
REMARK    5  A    between atoms: O_24  and  C_11 
REMARK    6  A    between atoms: O_25  and  C_17 
ROOT
ATOM      1  N   UNL d   1      57.616  -1.354  30.843  0.00  0.00    -0.195 N 
ATOM      2  N   UNL d   1      57.042  -1.367  31.456  0.00  0.00    -0.163 NA
ATOM      3  C   UNL d   1      57.964  -0.600  30.859  0.00  0.00     0.088 A 
ATOM      4  C   UNL d   1      57.805  -1.996  30.305  0.00  0.00     0.280 C 
ATOM      5  C   UNL d   1      57.056  -0.621  31.828  0.00  0.00     0.103 A 
ATOM      6  C   UNL d   1      57.614  -0.163  31.464  0.00  0.00     0.040 A 
ATOM      7  O   UNL d   1      57.415  -2.709  30.355  0.00  0.00    -0.265 OA
ENDROOT
BRANCH   3   8
ATOM      8  C   UNL d   1      58.563  -0.385  30.325  0.00  0.00     0.020 A 
ATOM      9  C   UNL d   1      59.127  -0.003  30.774  0.00  0.00     0.028 A 
ATOM     10  C   UNL d   1      59.807   0.289  30.423  0.00  0.00     0.116 A 
ATOM     11  C   UNL d   1      59.926   0.199  29.610  0.00  0.00     0.116 A 
ATOM     12  C   UNL d   1      59.328  -0.200  29.164  0.00  0.00     0.026 A 
ATOM     13  C   UNL d   1      58.650  -0.492  29.515  0.00  0.00     0.004 A 
BRANCH  10  14
ATOM     14  O   UNL d   1      60.384   0.682  30.889  0.00  0.00    -0.326 OA
ATOM     15  C   UNL d   1      60.592   0.395  31.659  0.00  0.00     0.181 C 
ENDBRANCH  10  14
BRANCH  11  16
ATOM     16  O   UNL d   1      60.621   0.497  29.243  0.00  0.00    -0.326 OA
ATOM     17  C   UNL d   1      60.616   0.679  28.459  0.00  0.00     0.181 C 
ENDBRANCH  11  16
ENDBRANCH   3   8
BRANCH   4  18
ATOM     18  C   UNL d   1      58.411  -1.874  29.715  0.00  0.00     0.058 A 
ATOM     19  C   UNL d   1      59.165  -2.189  29.820  0.00  0.00     0.005 A 
ATOM     20  C   UNL d   1      59.759  -2.078  29.257  0.00  0.00     0.000 A 
ATOM     21  C   UNL d   1      59.591  -1.643  28.577  0.00  0.00     0.000 A 
ATOM     22  C   UNL d   1      58.837  -1.328  28.474  0.00  0.00     0.000 A 
ATOM     23  C   UNL d   1      58.238  -1.439  29.040  0.00  0.00     0.005 A 
ENDBRANCH   4  18
BRANCH   5  24
ATOM     24  C   UNL d   1      56.607  -0.344  32.457  0.00  0.00     0.019 A 
ATOM     25  C   UNL d   1      55.778  -0.389  32.380  0.00  0.00     0.003 A 
ATOM     26  C   UNL d   1      55.298  -0.125  32.982  0.00  0.00     0.024 A 
ATOM     27  C   UNL d   1      55.637   0.192  33.677  0.00  0.00     0.127 A 
ATOM     28  C   UNL d   1      56.466   0.237  33.754  0.00  0.00     0.024 A 
ATOM     29  C   UNL d   1      56.944  -0.040  33.125  0.00  0.00     0.003 A 
BRANCH  27  30
ATOM     30  N   UNL d   1      55.133   0.466  34.301  0.00  0.00    -0.114 N 
ATOM     31  O   UNL d   1      55.440   0.591  35.065  0.00  0.00    -0.532 OA
ATOM     32  O   UNL d   1      54.325   0.609  34.146  0.00  0.00    -0.532 OA
ENDBRANCH  27  30
ENDBRANCH   5  24
TORSDOF 6
ENDMDL
