MODEL 1
REMARK VINA RESULT:      -8.8      0.000      0.000
REMARK  3 active torsions:
REMARK  status: ('A' for Active; 'I' for Inactive)
REMARK    1  A    between atoms: C_7  and  C_1 
REMARK    2  A    between atoms: O_20  and  C_12 
REMARK    3  A    between atoms: O_22  and  C_16 
ROOT
ATOM      1  C   UNL d   1      51.964  33.776  53.275  0.00  0.00     0.062 A 
ATOM      2  C   UNL d   1      52.436  34.348  53.657  0.00  0.00     0.202 A 
ATOM      3  C   UNL d   1      53.081  34.118  54.121  0.00  0.00     0.101 A 
ATOM      4  C   UNL d   1      52.146  32.963  53.364  0.00  0.00     0.103 A 
ATOM      5  C   UNL d   1      53.260  33.304  54.207  0.00  0.00     0.109 A 
ATOM      6  O   UNL d   1      52.798  32.731  53.833  0.00  0.00    -0.307 OA
ATOM      7  C   UNL d   1      53.545  34.683  54.496  0.00  0.00     0.204 A 
ATOM      8  C   UNL d   1      53.905  33.074  54.672  0.00  0.00     0.067 A 
ATOM      9  C   UNL d   1      54.186  34.451  54.957  0.00  0.00     0.084 A 
ATOM     10  O   UNL d   1      52.258  35.149  53.569  0.00  0.00    -0.286 OA
ATOM     11  C   UNL d   1      54.365  33.651  55.045  0.00  0.00     0.201 A 
ATOM     12  O   UNL d   1      53.366  35.484  54.409  0.00  0.00    -0.286 OA
ATOM     13  C   UNL d   1      51.682  32.402  52.989  0.00  0.00     0.027 C 
ATOM     14  O   UNL d   1      55.006  33.419  55.506  0.00  0.00    -0.286 OA
ENDROOT
BRANCH   1  15
ATOM     15  C   UNL d   1      51.327  34.009  52.816  0.00  0.00     0.007 A 
ATOM     16  C   UNL d   1      50.622  34.227  53.181  0.00  0.00     0.026 A 
ATOM     17  C   UNL d   1      49.979  34.462  52.721  0.00  0.00     0.116 A 
ATOM     18  C   UNL d   1      50.043  34.477  51.891  0.00  0.00     0.116 A 
ATOM     19  C   UNL d   1      50.756  34.256  51.536  0.00  0.00     0.026 A 
ATOM     20  C   UNL d   1      51.397  34.021  51.995  0.00  0.00     0.002 A 
BRANCH  17  21
ATOM     21  O   UNL d   1      49.269  34.682  53.085  0.00  0.00    -0.326 OA
ATOM     22  C   UNL d   1      49.248  35.353  53.565  0.00  0.00     0.181 C 
ENDBRANCH  17  21
BRANCH  18  23
ATOM     23  O   UNL d   1      49.400  34.712  51.433  0.00  0.00    -0.326 OA
ATOM     24  C   UNL d   1      49.298  34.402  50.674  0.00  0.00     0.181 C 
ENDBRANCH  18  23
ENDBRANCH   1  15
TORSDOF 3
ENDMDL
MODEL 2
REMARK VINA RESULT:      -7.9      2.288      4.126
REMARK  3 active torsions:
REMARK  status: ('A' for Active; 'I' for Inactive)
REMARK    1  A    between atoms: C_7  and  C_1 
REMARK    2  A    between atoms: O_20  and  C_12 
REMARK    3  A    between atoms: O_22  and  C_16 
ROOT
ATOM      1  C   UNL d   1      53.093  32.380  53.684  0.00  0.00     0.062 A 
ATOM      2  C   UNL d   1      53.229  31.702  54.152  0.00  0.00     0.202 A 
ATOM      3  C   UNL d   1      53.117  30.946  53.835  0.00  0.00     0.101 A 
ATOM      4  C   UNL d   1      52.843  32.292  52.890  0.00  0.00     0.103 A 
ATOM      5  C   UNL d   1      52.867  30.862  53.041  0.00  0.00     0.109 A 
ATOM      6  O   UNL d   1      52.730  31.527  52.571  0.00  0.00    -0.307 OA
ATOM      7  C   UNL d   1      53.251  30.280  54.298  0.00  0.00     0.204 A 
ATOM      8  C   UNL d   1      52.755  30.106  52.725  0.00  0.00     0.067 A 
ATOM      9  C   UNL d   1      53.139  29.529  53.981  0.00  0.00     0.084 A 
ATOM     10  O   UNL d   1      53.475  31.789  54.934  0.00  0.00    -0.286 OA
ATOM     11  C   UNL d   1      52.893  29.442  53.199  0.00  0.00     0.201 A 
ATOM     12  O   UNL d   1      53.498  30.367  55.081  0.00  0.00    -0.286 OA
ATOM     13  C   UNL d   1      52.711  32.958  52.431  0.00  0.00     0.027 C 
ATOM     14  O   UNL d   1      52.781  28.691  52.882  0.00  0.00    -0.286 OA
ENDROOT
BRANCH   1  15
ATOM     15  C   UNL d   1      53.205  33.127  54.002  0.00  0.00     0.007 A 
ATOM     16  C   UNL d   1      53.965  33.377  54.197  0.00  0.00     0.026 A 
ATOM     17  C   UNL d   1      54.080  34.128  54.516  0.00  0.00     0.116 A 
ATOM     18  C   UNL d   1      53.429  34.633  54.641  0.00  0.00     0.116 A 
ATOM     19  C   UNL d   1      52.671  34.371  54.441  0.00  0.00     0.026 A 
ATOM     20  C   UNL d   1      52.556  33.622  54.122  0.00  0.00     0.002 A 
BRANCH  17  21
ATOM     21  O   UNL d   1      54.843  34.381  54.713  0.00  0.00    -0.326 OA
ATOM     22  C   UNL d   1      55.380  33.845  55.038  0.00  0.00     0.181 C 
ENDBRANCH  17  21
BRANCH  18  23
ATOM     23  O   UNL d   1      53.545  35.383  54.960  0.00  0.00    -0.326 OA
ATOM     24  C   UNL d   1      52.981  35.974  54.842  0.00  0.00     0.181 C 
ENDBRANCH  18  23
ENDBRANCH   1  15
TORSDOF 3
ENDMDL
MODEL 3
REMARK VINA RESULT:      -7.9      1.819      3.641
REMARK  3 active torsions:
REMARK  status: ('A' for Active; 'I' for Inactive)
REMARK    1  A    between atoms: C_7  and  C_1 
REMARK    2  A    between atoms: O_20  and  C_12 
REMARK    3  A    between atoms: O_22  and  C_16 
ROOT
ATOM      1  C   UNL d   1      53.302  32.504  53.717  0.00  0.00     0.062 A 
ATOM      2  C   UNL d   1      52.657  31.984  53.622  0.00  0.00     0.202 A 
ATOM      3  C   UNL d   1      52.784  31.172  53.526  0.00  0.00     0.101 A 
ATOM      4  C   UNL d   1      54.082  32.201  53.715  0.00  0.00     0.103 A 
ATOM      5  C   UNL d   1      53.566  30.873  53.524  0.00  0.00     0.109 A 
ATOM      6  O   UNL d   1      54.211  31.381  53.618  0.00  0.00    -0.307 OA
ATOM      7  C   UNL d   1      52.147  30.662  53.433  0.00  0.00     0.204 A 
ATOM      8  C   UNL d   1      53.693  30.061  53.428  0.00  0.00     0.067 A 
ATOM      9  C   UNL d   1      52.276  29.855  53.337  0.00  0.00     0.084 A 
ATOM     10  O   UNL d   1      51.888  32.283  53.625  0.00  0.00    -0.286 OA
ATOM     11  C   UNL d   1      53.045  29.556  53.335  0.00  0.00     0.201 A 
ATOM     12  O   UNL d   1      51.378  30.961  53.435  0.00  0.00    -0.286 OA
ATOM     13  C   UNL d   1      54.716  32.712  53.808  0.00  0.00     0.027 C 
ATOM     14  O   UNL d   1      53.174  28.749  53.239  0.00  0.00    -0.286 OA
ENDROOT
BRANCH   1  15
ATOM     15  C   UNL d   1      53.172  33.308  53.813  0.00  0.00     0.007 A 
ATOM     16  C   UNL d   1      52.921  33.758  53.171  0.00  0.00     0.026 A 
ATOM     17  C   UNL d   1      52.789  34.566  53.264  0.00  0.00     0.116 A 
ATOM     18  C   UNL d   1      52.909  34.926  54.006  0.00  0.00     0.116 A 
ATOM     19  C   UNL d   1      53.161  34.464  54.643  0.00  0.00     0.026 A 
ATOM     20  C   UNL d   1      53.293  33.657  54.550  0.00  0.00     0.002 A 
BRANCH  17  21
ATOM     21  O   UNL d   1      52.537  35.021  52.620  0.00  0.00    -0.326 OA
ATOM     22  C   UNL d   1      52.086  34.671  52.024  0.00  0.00     0.181 C 
ENDBRANCH  17  21
BRANCH  18  23
ATOM     23  O   UNL d   1      52.777  35.734  54.098  0.00  0.00    -0.326 OA
ATOM     24  C   UNL d   1      52.984  36.109  54.804  0.00  0.00     0.181 C 
ENDBRANCH  18  23
ENDBRANCH   1  15
TORSDOF 3
ENDMDL
MODEL 4
REMARK VINA RESULT:      -7.3      1.318      2.302
REMARK  3 active torsions:
REMARK  status: ('A' for Active; 'I' for Inactive)
REMARK    1  A    between atoms: C_7  and  C_1 
REMARK    2  A    between atoms: O_20  and  C_12 
REMARK    3  A    between atoms: O_22  and  C_16 
ROOT
ATOM      1  C   UNL d   1      51.690  33.729  53.039  0.00  0.00     0.062 A 
ATOM      2  C   UNL d   1      51.716  32.897  53.093  0.00  0.00     0.202 A 
ATOM      3  C   UNL d   1      52.440  32.506  53.183  0.00  0.00     0.101 A 
ATOM      4  C   UNL d   1      52.400  34.169  53.077  0.00  0.00     0.103 A 
ATOM      5  C   UNL d   1      53.148  32.950  53.221  0.00  0.00     0.109 A 
ATOM      6  O   UNL d   1      53.131  33.774  53.169  0.00  0.00    -0.307 OA
ATOM      7  C   UNL d   1      52.463  31.686  53.236  0.00  0.00     0.204 A 
ATOM      8  C   UNL d   1      53.872  32.559  53.312  0.00  0.00     0.067 A 
ATOM      9  C   UNL d   1      53.185  31.299  53.326  0.00  0.00     0.084 A 
ATOM     10  O   UNL d   1      51.016  32.462  53.055  0.00  0.00    -0.286 OA
ATOM     11  C   UNL d   1      53.885  31.734  53.364  0.00  0.00     0.201 A 
ATOM     12  O   UNL d   1      51.763  31.252  53.198  0.00  0.00    -0.286 OA
ATOM     13  C   UNL d   1      52.374  34.986  53.025  0.00  0.00     0.027 C 
ATOM     14  O   UNL d   1      54.606  31.347  53.454  0.00  0.00    -0.286 OA
ENDROOT
BRANCH   1  15
ATOM     15  C   UNL d   1      50.971  34.112  52.949  0.00  0.00     0.007 A 
ATOM     16  C   UNL d   1      50.585  34.089  52.223  0.00  0.00     0.026 A 
ATOM     17  C   UNL d   1      49.862  34.473  52.130  0.00  0.00     0.116 A 
ATOM     18  C   UNL d   1      49.523  34.884  52.770  0.00  0.00     0.116 A 
ATOM     19  C   UNL d   1      49.919  34.901  53.495  0.00  0.00     0.026 A 
ATOM     20  C   UNL d   1      50.641  34.517  53.588  0.00  0.00     0.002 A 
BRANCH  17  21
ATOM     21  O   UNL d   1      49.473  34.451  51.400  0.00  0.00    -0.326 OA
ATOM     22  C   UNL d   1      49.913  34.409  50.704  0.00  0.00     0.181 C 
ENDBRANCH  17  21
BRANCH  18  23
ATOM     23  O   UNL d   1      48.800  35.268  52.677  0.00  0.00    -0.326 OA
ATOM     24  C   UNL d   1      48.484  35.711  53.298  0.00  0.00     0.181 C 
ENDBRANCH  18  23
ENDBRANCH   1  15
TORSDOF 3
ENDMDL
MODEL 5
REMARK VINA RESULT:      -7.1      1.973      3.876
REMARK  3 active torsions:
REMARK  status: ('A' for Active; 'I' for Inactive)
REMARK    1  A    between atoms: C_7  and  C_1 
REMARK    2  A    between atoms: O_20  and  C_12 
REMARK    3  A    between atoms: O_22  and  C_16 
ROOT
ATOM      1  C   UNL d   1      53.345  32.447  53.659  0.00  0.00     0.062 A 
ATOM      2  C   UNL d   1      52.688  32.952  53.750  0.00  0.00     0.202 A 
ATOM      3  C   UNL d   1      52.797  33.758  53.904  0.00  0.00     0.101 A 
ATOM      4  C   UNL d   1      54.119  32.759  53.723  0.00  0.00     0.103 A 
ATOM      5  C   UNL d   1      53.572  34.066  53.967  0.00  0.00     0.109 A 
ATOM      6  O   UNL d   1      54.229  33.573  53.878  0.00  0.00    -0.307 OA
ATOM      7  C   UNL d   1      52.147  34.254  53.994  0.00  0.00     0.204 A 
ATOM      8  C   UNL d   1      53.682  34.872  54.121  0.00  0.00     0.067 A 
ATOM      9  C   UNL d   1      52.259  35.055  54.146  0.00  0.00     0.084 A 
ATOM     10  O   UNL d   1      51.925  32.645  53.687  0.00  0.00    -0.286 OA
ATOM     11  C   UNL d   1      53.021  35.362  54.210  0.00  0.00     0.201 A 
ATOM     12  O   UNL d   1      51.384  33.946  53.930  0.00  0.00    -0.286 OA
ATOM     13  C   UNL d   1      54.765  32.263  53.633  0.00  0.00     0.027 C 
ATOM     14  O   UNL d   1      53.133  36.163  54.363  0.00  0.00    -0.286 OA
ENDROOT
BRANCH   1  15
ATOM     15  C   UNL d   1      53.233  31.649  53.506  0.00  0.00     0.007 A 
ATOM     16  C   UNL d   1      53.387  31.097  54.097  0.00  0.00     0.026 A 
ATOM     17  C   UNL d   1      53.274  30.295  53.946  0.00  0.00     0.116 A 
ATOM     18  C   UNL d   1      53.006  30.044  53.199  0.00  0.00     0.116 A 
ATOM     19  C   UNL d   1      52.854  30.608  52.614  0.00  0.00     0.026 A 
ATOM     20  C   UNL d   1      52.967  31.409  52.764  0.00  0.00     0.002 A 
BRANCH  17  21
ATOM     21  O   UNL d   1      53.428  29.737  54.538  0.00  0.00    -0.326 OA
ATOM     22  C   UNL d   1      53.064  29.812  55.274  0.00  0.00     0.181 C 
ENDBRANCH  17  21
BRANCH  18  23
ATOM     23  O   UNL d   1      52.893  29.242  53.049  0.00  0.00    -0.326 OA
ATOM     24  C   UNL d   1      52.467  29.001  52.384  0.00  0.00     0.181 C 
ENDBRANCH  18  23
ENDBRANCH   1  15
TORSDOF 3
ENDMDL
MODEL 6
REMARK VINA RESULT:      -6.8      1.059      4.403
REMARK  3 active torsions:
REMARK  status: ('A' for Active; 'I' for Inactive)
REMARK    1  A    between atoms: C_7  and  C_1 
REMARK    2  A    between atoms: O_20  and  C_12 
REMARK    3  A    between atoms: O_22  and  C_16 
ROOT
ATOM      1  C   UNL d   1      52.314  33.958  53.126  0.00  0.00     0.062 A 
ATOM      2  C   UNL d   1      51.512  33.848  53.327  0.00  0.00     0.202 A 
ATOM      3  C   UNL d   1      50.914  34.049  52.791  0.00  0.00     0.101 A 
ATOM      4  C   UNL d   1      52.514  34.273  52.377  0.00  0.00     0.103 A 
ATOM      5  C   UNL d   1      51.118  34.364  52.043  0.00  0.00     0.109 A 
ATOM      6  O   UNL d   1      51.910  34.476  51.835  0.00  0.00    -0.307 OA
ATOM      7  C   UNL d   1      50.125  33.940  52.992  0.00  0.00     0.204 A 
ATOM      8  C   UNL d   1      50.521  34.565  51.507  0.00  0.00     0.067 A 
ATOM      9  C   UNL d   1      49.532  34.140  52.457  0.00  0.00     0.084 A 
ATOM     10  O   UNL d   1      51.315  33.537  54.066  0.00  0.00    -0.286 OA
ATOM     11  C   UNL d   1      49.729  34.451  51.718  0.00  0.00     0.201 A 
ATOM     12  O   UNL d   1      49.928  33.629  53.730  0.00  0.00    -0.286 OA
ATOM     13  C   UNL d   1      53.301  34.381  52.179  0.00  0.00     0.027 C 
ATOM     14  O   UNL d   1      49.137  34.651  51.183  0.00  0.00    -0.286 OA
ENDROOT
BRANCH   1  15
ATOM     15  C   UNL d   1      52.903  33.758  53.660  0.00  0.00     0.007 A 
ATOM     16  C   UNL d   1      53.198  32.990  53.671  0.00  0.00     0.026 A 
ATOM     17  C   UNL d   1      53.790  32.786  54.207  0.00  0.00     0.116 A 
ATOM     18  C   UNL d   1      54.088  33.357  54.736  0.00  0.00     0.116 A 
ATOM     19  C   UNL d   1      53.784  34.125  54.716  0.00  0.00     0.026 A 
ATOM     20  C   UNL d   1      53.193  34.328  54.181  0.00  0.00     0.002 A 
BRANCH  17  21
ATOM     21  O   UNL d   1      54.088  32.015  54.220  0.00  0.00    -0.326 OA
ATOM     22  C   UNL d   1      53.723  31.428  53.770  0.00  0.00     0.181 C 
ENDBRANCH  17  21
BRANCH  18  23
ATOM     23  O   UNL d   1      54.680  33.152  55.271  0.00  0.00    -0.326 OA
ATOM     24  C   UNL d   1      55.183  33.734  55.573  0.00  0.00     0.181 C 
ENDBRANCH  18  23
ENDBRANCH   1  15
TORSDOF 3
ENDMDL
MODEL 7
REMARK VINA RESULT:      -6.6      1.266      4.627
REMARK  3 active torsions:
REMARK  status: ('A' for Active; 'I' for Inactive)
REMARK    1  A    between atoms: C_7  and  C_1 
REMARK    2  A    between atoms: O_20  and  C_12 
REMARK    3  A    between atoms: O_22  and  C_16 
ROOT
ATOM      1  C   UNL d   1      49.976  34.539  52.522  0.00  0.00     0.062 A 
ATOM      2  C   UNL d   1      49.478  34.979  53.027  0.00  0.00     0.202 A 
ATOM      3  C   UNL d   1      48.790  35.332  52.732  0.00  0.00     0.101 A 
ATOM      4  C   UNL d   1      49.777  34.455  51.714  0.00  0.00     0.103 A 
ATOM      5  C   UNL d   1      48.594  35.246  51.923  0.00  0.00     0.109 A 
ATOM      6  O   UNL d   1      49.081  34.812  51.416  0.00  0.00    -0.307 OA
ATOM      7  C   UNL d   1      48.301  35.766  53.230  0.00  0.00     0.204 A 
ATOM      8  C   UNL d   1      47.907  35.599  51.628  0.00  0.00     0.067 A 
ATOM      9  C   UNL d   1      47.618  36.116  52.935  0.00  0.00     0.084 A 
ATOM     10  O   UNL d   1      49.674  35.062  53.824  0.00  0.00    -0.286 OA
ATOM     11  C   UNL d   1      47.421  36.034  52.138  0.00  0.00     0.201 A 
ATOM     12  O   UNL d   1      48.498  35.849  54.027  0.00  0.00    -0.286 OA
ATOM     13  C   UNL d   1      50.266  34.022  51.219  0.00  0.00     0.027 C 
ATOM     14  O   UNL d   1      46.738  36.384  51.842  0.00  0.00    -0.286 OA
ENDROOT
BRANCH   1  15
ATOM     15  C   UNL d   1      50.656  34.191  52.818  0.00  0.00     0.007 A 
ATOM     16  C   UNL d   1      51.350  34.631  52.868  0.00  0.00     0.026 A 
ATOM     17  C   UNL d   1      52.035  34.283  53.165  0.00  0.00     0.116 A 
ATOM     18  C   UNL d   1      52.026  33.488  53.415  0.00  0.00     0.116 A 
ATOM     19  C   UNL d   1      51.323  33.056  53.361  0.00  0.00     0.026 A 
ATOM     20  C   UNL d   1      50.639  33.403  53.064  0.00  0.00     0.002 A 
BRANCH  17  21
ATOM     21  O   UNL d   1      52.734  34.723  53.215  0.00  0.00    -0.326 OA
ATOM     22  C   UNL d   1      52.785  35.348  53.752  0.00  0.00     0.181 C 
ENDBRANCH  17  21
BRANCH  18  23
ATOM     23  O   UNL d   1      52.711  33.141  53.712  0.00  0.00    -0.326 OA
ATOM     24  C   UNL d   1      52.836  32.329  53.622  0.00  0.00     0.181 C 
ENDBRANCH  18  23
ENDBRANCH   1  15
TORSDOF 3
ENDMDL
