MODEL 1
REMARK VINA RESULT:      -0.8      0.000      0.000
REMARK  3 active torsions:
REMARK  status: ('A' for Active; 'I' for Inactive)
REMARK    1  A    between atoms: S_12  and  C_7 
REMARK    2  A    between atoms: C_10  and  C_13 
REMARK    3  A    between atoms: C_13  and  S_12 
ROOT
ATOM      1  N   UNL d   1      32.650  20.755 -21.379  0.00  0.00    -0.224 N 
ATOM      2  N   UNL d   1      32.926  21.859 -22.255  0.00  0.00    -0.241 N 
ATOM      3  C   UNL d   1      32.784  21.569 -21.497  0.00  0.00     0.343 A 
ATOM      4  C   UNL d   1      32.936  21.333 -22.902  0.00  0.00     0.160 A 
ATOM      5  C   UNL d   1      32.660  20.239 -22.021  0.00  0.00     0.273 A 
ATOM      6  C   UNL d   1      32.803  20.527 -22.786  0.00  0.00     0.115 A 
ATOM      7  C   UNL d   1      32.812  20.012 -23.419  0.00  0.00     0.120 A 
ATOM      8  N   UNL d   1      33.078  21.622 -23.664  0.00  0.00    -0.209 NA
ATOM      9  N   UNL d   1      32.955  20.296 -24.184  0.00  0.00    -0.220 NA
ATOM     10  C   UNL d   1      33.088  21.105 -24.305  0.00  0.00     0.165 A 
ATOM     11  O   UNL d   1      32.774  22.086 -20.856  0.00  0.00    -0.245 OA
ATOM     12  O   UNL d   1      32.528  19.433 -21.904  0.00  0.00    -0.266 OA
ATOM     13  C   UNL d   1      32.509  20.474 -20.623  0.00  0.00     0.107 C 
ATOM     14  C   UNL d   1      33.060  22.663 -22.379  0.00  0.00     0.105 C 
ATOM     15  C   UNL d   1      33.230  21.390 -25.062  0.00  0.00     0.042 C 
ENDROOT
BRANCH   7  16
ATOM     16  S   UNL d   1      32.680  19.206 -23.303  0.00  0.00    -0.067 SA
BRANCH  16  17
ATOM     17  C   UNL d   1      32.711  18.682 -23.939  0.00  0.00     0.040 C 
BRANCH  17  18
ATOM     18  C   UNL d   1      32.258  17.992 -23.934  0.00  0.00     0.045 A 
ATOM     19  C   UNL d   1      32.523  17.334 -23.507  0.00  0.00     0.060 A 
ATOM     20 CL   UNL d   1      33.237  17.372 -23.091  0.00  0.00    -0.082 Cl
ATOM     21  C   UNL d   1      32.081  16.637 -23.493  0.00  0.00     0.012 A 
ATOM     22  C   UNL d   1      31.370  16.603 -23.909  0.00  0.00     0.003 A 
ATOM     23  C   UNL d   1      31.093  17.249 -24.338  0.00  0.00     0.030 A 
ATOM     24  C   UNL d   1      31.538  17.944 -24.350  0.00  0.00     0.141 A 
ATOM     25  F   UNL d   1      31.274  18.593 -24.772  0.00  0.00    -0.204 F 
ENDBRANCH  17  18
ENDBRANCH  16  17
ENDBRANCH   7  16
TORSDOF 3
ENDMDL
