MODEL 1
REMARK VINA RESULT:      -3.6      0.000      0.000
REMARK  3 active torsions:
REMARK  status: ('A' for Active; 'I' for Inactive)
REMARK    1  A    between atoms: C_9  and  C_1 
REMARK       I    between atoms: C_4  and  N_8 
REMARK    2  A    between atoms: C_5  and  C_4 
REMARK    3  A    between atoms: N_8  and  C_17 
ROOT
ATOM      1  C   UNL d   1      33.000  19.447 -22.737  0.00  0.00     0.036 A 
ATOM      2  C   UNL d   1      33.160  19.358 -21.944  0.00  0.00     0.005 A 
ATOM      3  C   UNL d   1      32.918  20.183 -23.070  0.00  0.00     0.005 A 
ATOM      4  C   UNL d   1      33.160  20.774 -21.802  0.00  0.00     0.085 A 
ATOM      5  C   UNL d   1      33.241  20.038 -21.469  0.00  0.00     0.019 A 
ATOM      6  C   UNL d   1      32.993  20.861 -22.627  0.00  0.00     0.019 A 
ENDROOT
BRANCH   1   7
ATOM      7  C   UNL d   1      32.918  18.768 -23.211  0.00  0.00     0.162 A 
ATOM      8  N   UNL d   1      33.241  18.591 -23.961  0.00  0.00    -0.225 NA
ATOM      9  C   UNL d   1      32.977  17.851 -24.158  0.00  0.00     0.101 A 
ATOM     10  C   UNL d   1      33.101  17.367 -24.827  0.00  0.00     0.021 A 
ATOM     11  C   UNL d   1      32.501  17.579 -23.537  0.00  0.00     0.101 A 
ATOM     12  C   UNL d   1      32.750  16.622 -24.869  0.00  0.00     0.002 A 
ATOM     13  C   UNL d   1      32.274  16.350 -24.249  0.00  0.00     0.002 A 
ATOM     14  C   UNL d   1      32.148  16.824 -23.585  0.00  0.00     0.021 A 
ATOM     15  N   UNL d   1      32.476  18.155 -22.965  0.00  0.00    -0.225 NA
ENDBRANCH   1   7
BRANCH   4  16
ATOM     16  N   UNL d   1      33.241  21.454 -21.328  0.00  0.00    -0.206 NA
ATOM     17  C   UNL d   1      32.594  21.767 -20.912  0.00  0.00     0.302 C 
ATOM     18  O   UNL d   1      31.873  21.400 -20.972  0.00  0.00    -0.263 OA
BRANCH  17  19
ATOM     19  C   UNL d   1      32.657  22.431 -20.446  0.00  0.00     0.158 A 
ATOM     20  O   UNL d   1      33.028  22.493 -19.723  0.00  0.00    -0.300 OA
ATOM     21  C   UNL d   1      32.947  23.285 -19.458  0.00  0.00     0.123 A 
ATOM     22  C   UNL d   1      32.543  23.692 -19.997  0.00  0.00     0.029 A 
ATOM     23  C   UNL d   1      32.352  23.199 -20.611  0.00  0.00     0.032 A 
ENDBRANCH  17  19
ENDBRANCH   4  16
TORSDOF 3
ENDMDL
MODEL 2
REMARK VINA RESULT:      -3.2      1.661      5.460
REMARK  3 active torsions:
REMARK  status: ('A' for Active; 'I' for Inactive)
REMARK    1  A    between atoms: C_9  and  C_1 
REMARK       I    between atoms: C_4  and  N_8 
REMARK    2  A    between atoms: C_5  and  C_4 
REMARK    3  A    between atoms: N_8  and  C_17 
ROOT
ATOM      1  C   UNL d   1      33.052  20.220 -22.227  0.00  0.00     0.036 A 
ATOM      2  C   UNL d   1      33.178  19.566 -21.759  0.00  0.00     0.005 A 
ATOM      3  C   UNL d   1      32.988  20.155 -23.034  0.00  0.00     0.005 A 
ATOM      4  C   UNL d   1      33.177  18.752 -22.926  0.00  0.00     0.085 A 
ATOM      5  C   UNL d   1      33.241  18.818 -22.120  0.00  0.00     0.019 A 
ATOM      6  C   UNL d   1      33.047  19.436 -23.408  0.00  0.00     0.019 A 
ENDROOT
BRANCH   1   7
ATOM      7  C   UNL d   1      32.989  20.968 -21.867  0.00  0.00     0.162 A 
ATOM      8  N   UNL d   1      33.235  21.721 -22.136  0.00  0.00    -0.225 NA
ATOM      9  C   UNL d   1      33.032  22.250 -21.558  0.00  0.00     0.101 A 
ATOM     10  C   UNL d   1      33.126  23.078 -21.493  0.00  0.00     0.021 A 
ATOM     11  C   UNL d   1      32.668  21.829 -20.945  0.00  0.00     0.101 A 
ATOM     12  C   UNL d   1      32.857  23.473 -20.822  0.00  0.00     0.002 A 
ATOM     13  C   UNL d   1      32.493  23.052 -20.209  0.00  0.00     0.002 A 
ATOM     14  C   UNL d   1      32.397  22.234 -20.267  0.00  0.00     0.021 A 
ATOM     15  N   UNL d   1      32.651  21.044 -21.152  0.00  0.00    -0.225 NA
ENDBRANCH   1   7
BRANCH   4  16
ATOM     16  N   UNL d   1      33.240  18.005 -23.287  0.00  0.00    -0.206 NA
ATOM     17  C   UNL d   1      32.566  17.549 -23.450  0.00  0.00     0.302 C 
ATOM     18  O   UNL d   1      31.836  17.841 -23.252  0.00  0.00    -0.263 OA
BRANCH  17  19
ATOM     19  C   UNL d   1      32.612  16.817 -23.803  0.00  0.00     0.158 A 
ATOM     20  O   UNL d   1      32.646  16.654 -24.601  0.00  0.00    -0.300 OA
ATOM     21  C   UNL d   1      32.687  15.821 -24.693  0.00  0.00     0.123 A 
ATOM     22  C   UNL d   1      32.679  15.487 -23.981  0.00  0.00     0.029 A 
ATOM     23  C   UNL d   1      32.633  16.067 -23.417  0.00  0.00     0.032 A 
ENDBRANCH  17  19
ENDBRANCH   4  16
TORSDOF 3
ENDMDL
MODEL 3
REMARK VINA RESULT:      -2.4      3.378      6.055
REMARK  3 active torsions:
REMARK  status: ('A' for Active; 'I' for Inactive)
REMARK    1  A    between atoms: C_9  and  C_1 
REMARK       I    between atoms: C_4  and  N_8 
REMARK    2  A    between atoms: C_5  and  C_4 
REMARK    3  A    between atoms: N_8  and  C_17 
ROOT
ATOM      1  C   UNL d   1      32.791  23.137 -19.882  0.00  0.00     0.036 A 
ATOM      2  C   UNL d   1      33.241  23.687 -20.278  0.00  0.00     0.005 A 
ATOM      3  C   UNL d   1      32.325  22.606 -20.283  0.00  0.00     0.005 A 
ATOM      4  C   UNL d   1      32.755  23.172 -21.512  0.00  0.00     0.085 A 
ATOM      5  C   UNL d   1      33.220  23.702 -21.111  0.00  0.00     0.019 A 
ATOM      6  C   UNL d   1      32.288  22.602 -21.095  0.00  0.00     0.019 A 
ENDROOT
BRANCH   1   7
ATOM      7  C   UNL d   1      32.812  23.122 -19.050  0.00  0.00     0.162 A 
ATOM      8  N   UNL d   1      32.585  23.702 -18.493  0.00  0.00    -0.225 NA
ATOM      9  C   UNL d   1      32.726  23.388 -17.760  0.00  0.00     0.101 A 
ATOM     10  C   UNL d   1      32.619  23.686 -16.988  0.00  0.00     0.021 A 
ATOM     11  C   UNL d   1      33.035  22.627 -17.867  0.00  0.00     0.101 A 
ATOM     12  C   UNL d   1      32.819  23.224 -16.334  0.00  0.00     0.002 A 
ATOM     13  C   UNL d   1      33.127  22.463 -16.442  0.00  0.00     0.002 A 
ATOM     14  C   UNL d   1      33.236  22.163 -17.202  0.00  0.00     0.021 A 
ATOM     15  N   UNL d   1      33.080  22.481 -18.665  0.00  0.00    -0.225 NA
ENDBRANCH   1   7
BRANCH   4  16
ATOM     16  N   UNL d   1      32.733  23.187 -22.344  0.00  0.00    -0.206 NA
ATOM     17  C   UNL d   1      32.935  22.516 -22.790  0.00  0.00     0.302 C 
ATOM     18  O   UNL d   1      33.157  21.838 -22.404  0.00  0.00    -0.263 OA
BRANCH  17  19
ATOM     19  C   UNL d   1      32.919  22.515 -23.604  0.00  0.00     0.158 A 
ATOM     20  O   UNL d   1      32.591  23.079 -24.092  0.00  0.00    -0.300 OA
ATOM     21  C   UNL d   1      32.712  22.834 -24.886  0.00  0.00     0.123 A 
ATOM     22  C   UNL d   1      33.098  22.149 -24.884  0.00  0.00     0.029 A 
ATOM     23  C   UNL d   1      33.239  21.927 -24.118  0.00  0.00     0.032 A 
ENDBRANCH  17  19
ENDBRANCH   4  16
TORSDOF 3
ENDMDL
MODEL 4
REMARK VINA RESULT:      -1.9      1.439      5.613
REMARK  3 active torsions:
REMARK  status: ('A' for Active; 'I' for Inactive)
REMARK    1  A    between atoms: C_9  and  C_1 
REMARK       I    between atoms: C_4  and  N_8 
REMARK    2  A    between atoms: C_5  and  C_4 
REMARK    3  A    between atoms: N_8  and  C_17 
ROOT
ATOM      1  C   UNL d   1      33.147  21.320 -20.936  0.00  0.00     0.036 A 
ATOM      2  C   UNL d   1      33.172  21.617 -21.693  0.00  0.00     0.005 A 
ATOM      3  C   UNL d   1      33.151  20.520 -20.797  0.00  0.00     0.005 A 
ATOM      4  C   UNL d   1      33.209  20.287 -22.196  0.00  0.00     0.085 A 
ATOM      5  C   UNL d   1      33.204  21.086 -22.335  0.00  0.00     0.019 A 
ATOM      6  C   UNL d   1      33.182  19.983 -21.407  0.00  0.00     0.019 A 
ENDROOT
BRANCH   1   7
ATOM      7  C   UNL d   1      33.115  21.851 -20.296  0.00  0.00     0.162 A 
ATOM      8  N   UNL d   1      32.969  22.674 -20.282  0.00  0.00    -0.225 NA
ATOM      9  C   UNL d   1      33.005  22.902 -19.506  0.00  0.00     0.101 A 
ATOM     10  C   UNL d   1      32.910  23.642 -19.130  0.00  0.00     0.021 A 
ATOM     11  C   UNL d   1      33.171  22.230 -19.052  0.00  0.00     0.101 A 
ATOM     12  C   UNL d   1      32.980  23.702 -18.311  0.00  0.00     0.002 A 
ATOM     13  C   UNL d   1      33.146  23.030 -17.857  0.00  0.00     0.002 A 
ATOM     14  C   UNL d   1      33.241  22.296 -18.222  0.00  0.00     0.021 A 
ATOM     15  N   UNL d   1      33.235  21.594 -19.553  0.00  0.00    -0.225 NA
ENDBRANCH   1   7
BRANCH   4  16
ATOM     16  N   UNL d   1      33.240  19.755 -22.836  0.00  0.00    -0.206 NA
ATOM     17  C   UNL d   1      32.612  19.235 -22.994  0.00  0.00     0.302 C 
ATOM     18  O   UNL d   1      31.959  19.249 -22.513  0.00  0.00    -0.263 OA
BRANCH  17  19
ATOM     19  C   UNL d   1      32.629  18.710 -23.616  0.00  0.00     0.158 A 
ATOM     20  O   UNL d   1      32.884  18.853 -24.376  0.00  0.00    -0.300 OA
ATOM     21  C   UNL d   1      32.794  18.144 -24.816  0.00  0.00     0.123 A 
ATOM     22  C   UNL d   1      32.496  17.590 -24.344  0.00  0.00     0.029 A 
ATOM     23  C   UNL d   1      32.383  17.903 -23.606  0.00  0.00     0.032 A 
ENDBRANCH  17  19
ENDBRANCH   4  16
TORSDOF 3
ENDMDL
