MODEL 1
REMARK VINA RESULT:      38.8      0.000      0.000
REMARK  2 active torsions:
REMARK  status: ('A' for Active; 'I' for Inactive)
REMARK    1  A    between atoms: C_3  and  C_1 
REMARK       I    between atoms: N_7  and  C_3 
REMARK    2  A    between atoms: C_11  and  N_7 
ROOT
ATOM      1  C   UNL d   1      58.781  49.498  50.601  0.00  0.00     0.121 A 
ATOM      2  C   UNL d   1      58.275  49.591  51.243  0.00  0.00     0.305 A 
ATOM      3  C   UNL d   1      58.475  49.463  49.835  0.00  0.00     0.012 A 
ATOM      4  O   UNL d   1      57.466  49.649  51.116  0.00  0.00    -0.273 OA
ATOM      5  C   UNL d   1      57.661  49.522  49.715  0.00  0.00     0.023 A 
ATOM      6  C   UNL d   1      57.155  49.615  50.357  0.00  0.00     0.103 A 
ATOM      7  O   UNL d   1      58.592  49.625  52.007  0.00  0.00    -0.259 OA
ATOM      8  C   UNL d   1      57.361  49.487  48.955  0.00  0.00     0.002 A 
ATOM      9  C   UNL d   1      56.352  49.672  50.236  0.00  0.00     0.025 A 
ATOM     10  C   UNL d   1      56.541  49.545  48.830  0.00  0.00     0.000 A 
ATOM     11  C   UNL d   1      56.035  49.639  49.472  0.00  0.00     0.002 A 
ENDROOT
BRANCH   1  12
ATOM     12  C   UNL d   1      59.601  49.440  50.726  0.00  0.00     0.284 C 
ATOM     13  N   UNL d   1      59.927  49.708  51.427  0.00  0.00    -0.208 NA
ATOM     14  O   UNL d   1      60.090  49.109  50.140  0.00  0.00    -0.265 OA
BRANCH  13  15
ATOM     15  C   UNL d   1      60.741  49.648  51.547  0.00  0.00     0.085 A 
ATOM     16  C   UNL d   1      61.255  49.596  50.897  0.00  0.00     0.019 A 
ATOM     17  C   UNL d   1      62.073  49.536  51.026  0.00  0.00     0.002 A 
ATOM     18  C   UNL d   1      62.381  49.527  51.792  0.00  0.00     0.000 A 
ATOM     19  C   UNL d   1      61.866  49.579  52.443  0.00  0.00     0.002 A 
ATOM     20  C   UNL d   1      61.059  49.638  52.328  0.00  0.00     0.019 A 
ENDBRANCH  13  15
ENDBRANCH   1  12
TORSDOF 2
ENDMDL
