MODEL 1
REMARK VINA RESULT:      79.7      0.000      0.000
REMARK  7 active torsions:
REMARK  status: ('A' for Active; 'I' for Inactive)
REMARK    1  A    between atoms: C_19  and  N_1 
REMARK    2  A    between atoms: C_6  and  C_3 
REMARK    3  A    between atoms: C_9  and  C_6 
REMARK    4  A    between atoms: C_7  and  N_8 
REMARK       I    between atoms: N_8  and  C_11 
REMARK    5  A    between atoms: C_11  and  C_23 
REMARK    6  A    between atoms: C_22  and  C_19 
REMARK    7  A    between atoms: C_23  and  C_22 
ROOT
ATOM      1  C   UNL d   1     -56.426-100.315 -42.755  0.00  0.00     0.024 C 
ENDROOT
BRANCH   1   2
ATOM      2  C   UNL d   1     -55.634-100.448 -42.654  0.00  0.00     0.084 C 
BRANCH   2   3
ATOM      3  N   UNL d   1     -55.318-100.753 -41.954  0.00  0.00    -0.259 N 
ATOM      4  C   UNL d   1     -54.948-100.295 -41.365  0.00  0.00     0.153 A 
ATOM      5  S   UNL d   1     -54.719-100.817 -40.771  0.00  0.00    -0.053 SA
ATOM      6  S   UNL d   1     -54.836 -99.469 -41.383  0.00  0.00    -0.052 SA
ATOM      7  C   UNL d   1     -54.926-101.584 -40.953  0.00  0.00     0.090 A 
ATOM      8  C   UNL d   1     -55.295-101.541 -41.684  0.00  0.00     0.272 A 
ATOM      9  O   UNL d   1     -55.606-102.214 -42.096  0.00  0.00    -0.266 OA
BRANCH   7  10
ATOM     10  C   UNL d   1     -54.787-102.270 -40.489  0.00  0.00     0.036 C 
BRANCH  10  11
ATOM     11  C   UNL d   1     -54.922-102.270 -39.681  0.00  0.00     0.101 A 
ATOM     12  O   UNL d   1     -54.932-102.862 -39.087  0.00  0.00    -0.305 OA
ATOM     13  C   UNL d   1     -55.109-102.484 -38.364  0.00  0.00     0.123 A 
ATOM     14  C   UNL d   1     -55.205-101.707 -38.490  0.00  0.00     0.029 A 
ATOM     15  C   UNL d   1     -55.093-101.564 -39.291  0.00  0.00     0.027 A 
ENDBRANCH  10  11
ENDBRANCH   7  10
ENDBRANCH   2   3
ENDBRANCH   1   2
BRANCH   1  16
ATOM     16  C   UNL d   1     -56.725 -99.605 -43.099  0.00  0.00     0.064 C 
BRANCH  16  17
ATOM     17  C   UNL d   1     -56.545 -99.381 -43.856  0.00  0.00     0.279 C 
ATOM     18  N   UNL d   1     -57.119 -99.057 -44.352  0.00  0.00    -0.208 NA
ATOM     19  O   UNL d   1     -55.769 -99.478 -44.141  0.00  0.00    -0.265 OA
BRANCH  18  20
ATOM     20  C   UNL d   1     -57.906 -98.958 -44.066  0.00  0.00     0.085 A 
ATOM     21  C   UNL d   1     -58.519 -98.906 -44.607  0.00  0.00     0.018 A 
ATOM     22  C   UNL d   1     -59.300 -98.808 -44.338  0.00  0.00     0.002 A 
ATOM     23  C   UNL d   1     -58.360 -98.952 -45.415  0.00  0.00     0.002 A 
ATOM     24  C   UNL d   1     -59.915 -98.756 -44.874  0.00  0.00     0.000 A 
ATOM     25  C   UNL d   1     -59.455 -98.762 -43.518  0.00  0.00     0.000 A 
ATOM     26  C   UNL d   1     -59.770 -98.801 -45.690  0.00  0.00     0.000 A 
ATOM     27  C   UNL d   1     -58.983 -98.900 -45.962  0.00  0.00     0.000 A 
ATOM     28  C   UNL d   1     -58.846 -98.814 -42.985  0.00  0.00     0.002 A 
ATOM     29  C   UNL d   1     -58.067 -98.912 -43.258  0.00  0.00     0.019 A 
ENDBRANCH  18  20
ENDBRANCH  16  17
ENDBRANCH   1  16
TORSDOF 7
ENDMDL
