MODEL 1
REMARK VINA RESULT:      -8.7      0.000      0.000
REMARK  3 active torsions:
REMARK  status: ('A' for Active; 'I' for Inactive)
REMARK    1  A    between atoms: C_2  and  C_1 
REMARK    2  A    between atoms: C_14  and  O_17 
REMARK    3  A    between atoms: O_17  and  C_16 
ROOT
ATOM      1  C   UNL d   1      50.796  34.016  52.917  0.00  0.00     0.087 A 
ATOM      2  C   UNL d   1      51.479  34.463  53.060  0.00  0.00     0.201 A 
ATOM      3  C   UNL d   1      52.176  34.110  53.326  0.00  0.00     0.062 A 
ATOM      4  C   UNL d   1      50.820  33.198  53.045  0.00  0.00     0.128 A 
ATOM      5  C   UNL d   1      52.200  33.287  53.455  0.00  0.00     0.105 A 
ATOM      6  O   UNL d   1      51.527  32.832  53.315  0.00  0.00    -0.305 OA
ATOM      7  C   UNL d   1      52.896  32.935  53.720  0.00  0.00     0.050 A 
ATOM      8  C   UNL d   1      52.854  34.552  53.469  0.00  0.00     0.007 A 
ATOM      9  O   UNL d   1      51.469  35.282  52.936  0.00  0.00    -0.286 OA
ATOM     10  C   UNL d   1      53.561  33.390  53.857  0.00  0.00     0.105 A 
ATOM     11  C   UNL d   1      53.537  34.212  53.728  0.00  0.00     0.025 A 
ENDROOT
BRANCH   1  12
ATOM     12  C   UNL d   1      50.108  34.369  52.654  0.00  0.00     0.116 A 
ATOM     13  N   UNL d   1      49.612  34.856  53.099  0.00  0.00    -0.238 NA
ATOM     14  C   UNL d   1      48.987  35.085  52.611  0.00  0.00     0.088 A 
ATOM     15  C   UNL d   1      48.336  35.562  52.752  0.00  0.00     0.020 A 
ATOM     16  C   UNL d   1      49.093  34.745  51.872  0.00  0.00     0.049 A 
ATOM     17  C   UNL d   1      47.780  35.707  52.156  0.00  0.00     0.002 A 
ATOM     18  C   UNL d   1      47.896  35.357  51.409  0.00  0.00     0.001 A 
ATOM     19  C   UNL d   1      48.546  34.881  51.268  0.00  0.00     0.008 A 
ATOM     20  S   UNL d   1      49.793  34.292  51.883  0.00  0.00    -0.066 SA
ENDBRANCH   1  12
BRANCH  10  21
ATOM     21  O   UNL d   1      54.258  33.023  54.125  0.00  0.00    -0.273 OA
BRANCH  21  22
ATOM     22  C   UNL d   1      54.484  33.077  54.914  0.00  0.00     0.300 C 
ATOM     23  O   UNL d   1      54.126  32.602  55.487  0.00  0.00    -0.259 OA
ATOM     24  C   UNL d   1      55.079  33.615  55.145  0.00  0.00     0.074 C 
ENDBRANCH  21  22
ENDBRANCH  10  21
TORSDOF 3
ENDMDL
MODEL 2
REMARK VINA RESULT:      -7.9      1.627      5.122
REMARK  3 active torsions:
REMARK  status: ('A' for Active; 'I' for Inactive)
REMARK    1  A    between atoms: C_2  and  C_1 
REMARK    2  A    between atoms: C_14  and  O_17 
REMARK    3  A    between atoms: O_17  and  C_16 
ROOT
ATOM      1  C   UNL d   1      51.618  34.012  52.809  0.00  0.00     0.087 A 
ATOM      2  C   UNL d   1      50.886  34.219  53.140  0.00  0.00     0.201 A 
ATOM      3  C   UNL d   1      50.241  34.418  52.666  0.00  0.00     0.062 A 
ATOM      4  C   UNL d   1      51.696  34.006  51.985  0.00  0.00     0.128 A 
ATOM      5  C   UNL d   1      50.320  34.412  51.836  0.00  0.00     0.105 A 
ATOM      6  O   UNL d   1      51.043  34.208  51.496  0.00  0.00    -0.305 OA
ATOM      7  C   UNL d   1      49.675  34.611  51.363  0.00  0.00     0.050 A 
ATOM      8  C   UNL d   1      49.516  34.624  52.992  0.00  0.00     0.007 A 
ATOM      9  O   UNL d   1      50.795  34.228  53.963  0.00  0.00    -0.286 OA
ATOM     10  C   UNL d   1      48.961  34.813  51.705  0.00  0.00     0.105 A 
ATOM     11  C   UNL d   1      48.882  34.819  52.534  0.00  0.00     0.025 A 
ENDROOT
BRANCH   1  12
ATOM     12  C   UNL d   1      52.254  33.815  53.282  0.00  0.00     0.116 A 
ATOM     13  N   UNL d   1      52.702  34.341  53.736  0.00  0.00    -0.238 NA
ATOM     14  C   UNL d   1      53.284  33.901  54.121  0.00  0.00     0.088 A 
ATOM     15  C   UNL d   1      53.879  34.124  54.638  0.00  0.00     0.020 A 
ATOM     16  C   UNL d   1      53.201  33.113  53.909  0.00  0.00     0.049 A 
ATOM     17  C   UNL d   1      54.401  33.563  54.951  0.00  0.00     0.002 A 
ATOM     18  C   UNL d   1      54.308  32.765  54.731  0.00  0.00     0.001 A 
ATOM     19  C   UNL d   1      53.713  32.542  54.214  0.00  0.00     0.008 A 
ATOM     20  S   UNL d   1      52.557  33.042  53.382  0.00  0.00    -0.066 SA
ENDBRANCH   1  12
BRANCH  10  21
ATOM     21  O   UNL d   1      48.318  35.012  51.216  0.00  0.00    -0.273 OA
BRANCH  21  22
ATOM     22  C   UNL d   1      47.743  35.541  51.475  0.00  0.00     0.300 C 
ATOM     23  O   UNL d   1      47.936  36.330  51.627  0.00  0.00    -0.259 OA
ATOM     24  C   UNL d   1      46.956  35.286  51.586  0.00  0.00     0.074 C 
ENDBRANCH  21  22
ENDBRANCH  10  21
TORSDOF 3
ENDMDL
MODEL 3
REMARK VINA RESULT:      -7.6      1.974      5.387
REMARK  3 active torsions:
REMARK  status: ('A' for Active; 'I' for Inactive)
REMARK    1  A    between atoms: C_2  and  C_1 
REMARK    2  A    between atoms: C_14  and  O_17 
REMARK    3  A    between atoms: O_17  and  C_16 
ROOT
ATOM      1  C   UNL d   1      50.248  34.443  52.795  0.00  0.00     0.087 A 
ATOM      2  C   UNL d   1      49.871  34.413  52.058  0.00  0.00     0.201 A 
ATOM      3  C   UNL d   1      49.154  34.799  51.926  0.00  0.00     0.062 A 
ATOM      4  C   UNL d   1      49.893  34.872  53.408  0.00  0.00     0.128 A 
ATOM      5  C   UNL d   1      48.796  35.229  52.543  0.00  0.00     0.105 A 
ATOM      6  O   UNL d   1      49.162  35.267  53.281  0.00  0.00    -0.305 OA
ATOM      7  C   UNL d   1      48.079  35.615  52.410  0.00  0.00     0.050 A 
ATOM      8  C   UNL d   1      48.778  34.769  51.195  0.00  0.00     0.007 A 
ATOM      9  O   UNL d   1      50.216  33.988  51.436  0.00  0.00    -0.286 OA
ATOM     10  C   UNL d   1      47.720  35.575  51.678  0.00  0.00     0.105 A 
ATOM     11  C   UNL d   1      48.078  35.144  51.061  0.00  0.00     0.025 A 
ENDROOT
BRANCH   1  12
ATOM     12  C   UNL d   1      50.958  34.060  52.922  0.00  0.00     0.116 A 
ATOM     13  N   UNL d   1      51.059  33.247  53.024  0.00  0.00    -0.238 NA
ATOM     14  C   UNL d   1      51.866  33.109  53.135  0.00  0.00     0.088 A 
ATOM     15  C   UNL d   1      52.285  32.418  53.262  0.00  0.00     0.020 A 
ATOM     16  C   UNL d   1      52.261  33.827  53.103  0.00  0.00     0.049 A 
ATOM     17  C   UNL d   1      53.107  32.432  53.358  0.00  0.00     0.002 A 
ATOM     18  C   UNL d   1      53.500  33.166  53.324  0.00  0.00     0.001 A 
ATOM     19  C   UNL d   1      53.080  33.858  53.198  0.00  0.00     0.008 A 
ATOM     20  S   UNL d   1      51.704  34.435  52.970  0.00  0.00    -0.066 SA
ENDBRANCH   1  12
BRANCH  10  21
ATOM     21  O   UNL d   1      46.997  35.968  51.556  0.00  0.00    -0.273 OA
BRANCH  21  22
ATOM     22  C   UNL d   1      46.283  35.565  51.633  0.00  0.00     0.300 C 
ATOM     23  O   UNL d   1      46.037  35.033  51.051  0.00  0.00    -0.259 OA
ATOM     24  C   UNL d   1      45.799  35.691  52.301  0.00  0.00     0.074 C 
ENDBRANCH  21  22
ENDBRANCH  10  21
TORSDOF 3
ENDMDL
