MODEL 1
REMARK VINA RESULT:      -9.8      0.000      0.000
REMARK  3 active torsions:
REMARK  status: ('A' for Active; 'I' for Inactive)
REMARK    1  A    between atoms: C_9  and  C_1 
REMARK    2  A    between atoms: C_4  and  C_5 
REMARK       I    between atoms: C_5  and  N_8 
REMARK    3  A    between atoms: N_8  and  C_16 
ROOT
ATOM      1  C   UNL d   1      51.753  33.905  53.127  0.00  0.00     0.024 A 
ATOM      2  C   UNL d   1      51.067  33.635  53.471  0.00  0.00     0.004 A 
ATOM      3  C   UNL d   1      51.737  34.346  52.436  0.00  0.00     0.004 A 
ATOM      4  C   UNL d   1      50.320  34.248  52.426  0.00  0.00     0.085 A 
ATOM      5  C   UNL d   1      51.021  34.519  52.084  0.00  0.00     0.019 A 
ATOM      6  C   UNL d   1      50.344  33.805  53.121  0.00  0.00     0.019 A 
ENDROOT
BRANCH   1   7
ATOM      7  C   UNL d   1      52.475  33.731  53.481  0.00  0.00     0.111 A 
ATOM      8  N   UNL d   1      53.016  33.154  53.226  0.00  0.00    -0.239 NA
ATOM      9  C   UNL d   1      53.667  33.167  53.743  0.00  0.00     0.088 A 
ATOM     10  C   UNL d   1      54.358  32.731  53.768  0.00  0.00     0.020 A 
ATOM     11  C   UNL d   1      53.526  33.753  54.316  0.00  0.00     0.049 A 
ATOM     12  C   UNL d   1      54.917  32.869  54.360  0.00  0.00     0.002 A 
ATOM     13  C   UNL d   1      54.781  33.450  54.930  0.00  0.00     0.001 A 
ATOM     14  C   UNL d   1      54.083  33.894  54.909  0.00  0.00     0.008 A 
ATOM     15  S   UNL d   1      52.795  34.097  54.153  0.00  0.00    -0.066 SA
ENDBRANCH   1   7
BRANCH   4  16
ATOM     16  N   UNL d   1      49.596  34.423  52.069  0.00  0.00    -0.206 NA
ATOM     17  C   UNL d   1      49.119  35.017  52.385  0.00  0.00     0.304 C 
ATOM     18  O   UNL d   1      49.354  35.433  53.048  0.00  0.00    -0.263 OA
BRANCH  17  19
ATOM     19  C   UNL d   1      48.391  35.186  52.018  0.00  0.00     0.182 A 
ATOM     20  O   UNL d   1      47.874  35.723  52.378  0.00  0.00    -0.296 OA
ATOM     21  C   UNL d   1      47.154  35.889  52.011  0.00  0.00     0.150 A 
ATOM     22  C   UNL d   1      46.951  35.525  51.298  0.00  0.00     0.149 A 
ATOM     23  O   UNL d   1      47.469  34.996  50.951  0.00  0.00    -0.299 OA
ATOM     24  C   UNL d   1      48.188  34.822  51.305  0.00  0.00     0.152 A 
ENDBRANCH  17  19
ENDBRANCH   4  16
TORSDOF 3
ENDMDL
MODEL 2
REMARK VINA RESULT:      -8.1      2.036      5.712
REMARK  3 active torsions:
REMARK  status: ('A' for Active; 'I' for Inactive)
REMARK    1  A    between atoms: C_9  and  C_1 
REMARK    2  A    between atoms: C_4  and  C_5 
REMARK       I    between atoms: C_5  and  N_8 
REMARK    3  A    between atoms: N_8  and  C_16 
ROOT
ATOM      1  C   UNL d   1      50.069  34.472  52.597  0.00  0.00     0.024 A 
ATOM      2  C   UNL d   1      50.130  34.114  53.325  0.00  0.00     0.004 A 
ATOM      3  C   UNL d   1      50.706  34.502  52.082  0.00  0.00     0.004 A 
ATOM      4  C   UNL d   1      51.488  33.800  53.039  0.00  0.00     0.085 A 
ATOM      5  C   UNL d   1      51.418  34.166  52.301  0.00  0.00     0.019 A 
ATOM      6  C   UNL d   1      50.843  33.774  53.550  0.00  0.00     0.019 A 
ENDROOT
BRANCH   1   7
ATOM      7  C   UNL d   1      49.353  34.811  52.376  0.00  0.00     0.111 A 
ATOM      8  N   UNL d   1      48.919  35.366  52.818  0.00  0.00    -0.239 NA
ATOM      9  C   UNL d   1      48.234  35.557  52.387  0.00  0.00     0.088 A 
ATOM     10  C   UNL d   1      47.611  36.062  52.542  0.00  0.00     0.020 A 
ATOM     11  C   UNL d   1      48.246  35.119  51.680  0.00  0.00     0.049 A 
ATOM     12  C   UNL d   1      46.993  36.141  52.000  0.00  0.00     0.002 A 
ATOM     13  C   UNL d   1      47.002  35.709  51.298  0.00  0.00     0.001 A 
ATOM     14  C   UNL d   1      47.630  35.196  51.135  0.00  0.00     0.008 A 
ATOM     15  S   UNL d   1      48.933  34.663  51.676  0.00  0.00    -0.066 SA
ENDBRANCH   1   7
BRANCH   4  16
ATOM     16  N   UNL d   1      52.208  33.460  53.259  0.00  0.00    -0.206 NA
ATOM     17  C   UNL d   1      52.754  33.904  53.690  0.00  0.00     0.304 C 
ATOM     18  O   UNL d   1      52.589  34.677  53.901  0.00  0.00    -0.263 OA
BRANCH  17  19
ATOM     19  C   UNL d   1      53.476  33.553  53.908  0.00  0.00     0.182 A 
ATOM     20  O   UNL d   1      53.927  33.170  53.329  0.00  0.00    -0.296 OA
ATOM     21  C   UNL d   1      54.643  32.823  53.549  0.00  0.00     0.150 A 
ATOM     22  C   UNL d   1      54.906  32.858  54.331  0.00  0.00     0.149 A 
ATOM     23  O   UNL d   1      54.452  33.239  54.894  0.00  0.00    -0.299 OA
ATOM     24  C   UNL d   1      53.739  33.588  54.690  0.00  0.00     0.152 A 
ENDBRANCH  17  19
ENDBRANCH   4  16
TORSDOF 3
ENDMDL
