MODEL 1
REMARK VINA RESULT:      43.7      0.000      0.000
REMARK  3 active torsions:
REMARK  status: ('A' for Active; 'I' for Inactive)
REMARK    1  A    between atoms: C_8  and  C_2 
REMARK    2  A    between atoms: C_7  and  C_5 
REMARK    3  A    between atoms: C_10  and  C_8 
ROOT
ATOM      1  C   UNL d   1     -51.666  25.361  33.479  0.00  0.00     0.101 A 
ATOM      2  O   UNL d   1     -50.877  25.466  33.308  0.00  0.00    -0.307 OA
ATOM      3  C   UNL d   1     -50.716  26.276  33.413  0.00  0.00     0.101 A 
ATOM      4  C   UNL d   1     -51.959  26.092  33.679  0.00  0.00     0.027 A 
ATOM      5  C   UNL d   1     -51.354  26.629  33.629  0.00  0.00     0.027 A 
ENDROOT
BRANCH   1   6
ATOM      6  C   UNL d   1     -52.059  24.633  33.444  0.00  0.00     0.034 A 
ATOM      7  C   UNL d   1     -52.907  24.633  33.391  0.00  0.00     0.070 A 
ATOM      8  C   UNL d   1     -53.320  23.895  33.355  0.00  0.00     0.068 A 
ATOM      9 CL   UNL d   1     -53.440  25.342  33.366  0.00  0.00    -0.081 Cl
ATOM     10 CL   UNL d   1     -54.121  24.040  33.306  0.00  0.00    -0.082 Cl
ATOM     11  C   UNL d   1     -52.876  23.193  33.373  0.00  0.00     0.012 A 
ATOM     12  C   UNL d   1     -52.039  23.213  33.427  0.00  0.00     0.001 A 
ATOM     13  C   UNL d   1     -51.648  23.922  33.461  0.00  0.00     0.003 A 
ENDBRANCH   1   6
BRANCH   3  14
ATOM     14  C   UNL d   1     -49.981  26.669  33.307  0.00  0.00     0.036 C 
BRANCH  14  15
ATOM     15  C   UNL d   1     -49.691  27.146  33.913  0.00  0.00     0.094 A 
ATOM     16  C   UNL d   1     -49.832  27.953  33.922  0.00  0.00     0.288 A 
ATOM     17  N   UNL d   1     -49.469  28.284  34.601  0.00  0.00    -0.163 NA
ATOM     18  O   UNL d   1     -50.282  28.395  33.328  0.00  0.00    -0.265 OA
ATOM     19  C   UNL d   1     -49.132  27.696  34.972  0.00  0.00     0.313 A 
ATOM     20  S   UNL d   1     -49.247  26.968  34.574  0.00  0.00    -0.021 SA
ATOM     21  O   UNL d   1     -48.720  27.856  35.681  0.00  0.00    -0.258 OA
ENDBRANCH  14  15
ENDBRANCH   3  14
TORSDOF 3
ENDMDL
