MODEL 1
REMARK VINA RESULT:      56.5      0.000      0.000
REMARK  3 active torsions:
REMARK  status: ('A' for Active; 'I' for Inactive)
REMARK    1  A    between atoms: C_10  and  C_5 
REMARK    2  A    between atoms: C_16  and  C_10 
REMARK    3  A    between atoms: C_17  and  C_16 
ROOT
ATOM      1  C   UNL d   1      59.294  49.707  51.878  0.00  0.00     0.111 A 
ATOM      2  C   UNL d   1      58.505  49.707  50.673  0.00  0.00     0.062 A 
ATOM      3  C   UNL d   1      58.532  49.707  52.323  0.00  0.00     0.213 A 
ATOM      4  C   UNL d   1      57.826  49.707  51.092  0.00  0.00     0.101 A 
ATOM      5  C   UNL d   1      59.241  49.707  51.067  0.00  0.00     0.018 A 
ATOM      6  O   UNL d   1      57.840  49.707  51.915  0.00  0.00    -0.288 OA
ATOM      7  C   UNL d   1      58.496  49.707  49.840  0.00  0.00     0.194 A 
ATOM      8  C   UNL d   1      60.020  49.707  52.267  0.00  0.00     0.105 C 
ATOM      9  N   UNL d   1      60.763  49.708  52.639  0.00  0.00    -0.191 NA
ATOM     10  C   UNL d   1      57.099  49.706  50.703  0.00  0.00     0.002 A 
ATOM     11  C   UNL d   1      57.047  49.706  49.892  0.00  0.00     0.042 A 
ATOM     12  C   UNL d   1      57.800  49.706  49.442  0.00  0.00     0.019 A 
ATOM     13  O   UNL d   1      59.229  49.707  49.392  0.00  0.00    -0.287 OA
ATOM     14  N   UNL d   1      58.503  49.707  53.180  0.00  0.00    -0.120 N 
ATOM     15  C   UNL d   1      56.214  49.706  49.926  0.00  0.00     0.009 C 
ATOM     16  C   UNL d   1      56.837  49.706  49.104  0.00  0.00     0.009 C 
ENDROOT
BRANCH   5  17
ATOM     17  C   UNL d   1      59.985  49.707  50.637  0.00  0.00     0.001 C 
BRANCH  17  18
ATOM     18  C   UNL d   1      60.666  49.443  51.017  0.00  0.00     0.000 C 
BRANCH  18  19
ATOM     19  C   UNL d   1      61.096  48.840  50.654  0.00  0.00     0.000 A 
ATOM     20  C   UNL d   1      61.081  48.084  51.005  0.00  0.00     0.000 A 
ATOM     21  C   UNL d   1      61.501  47.478  50.657  0.00  0.00     0.000 A 
ATOM     22  C   UNL d   1      61.938  47.610  49.964  0.00  0.00     0.000 A 
ATOM     23  C   UNL d   1      61.953  48.364  49.613  0.00  0.00     0.000 A 
ATOM     24  C   UNL d   1      61.535  48.972  49.956  0.00  0.00     0.000 A 
ENDBRANCH  18  19
ENDBRANCH  17  18
ENDBRANCH   5  17
TORSDOF 3
ENDMDL
