MODEL 1
REMARK VINA RESULT:      -6.6      0.000      0.000
REMARK  7 active torsions:
REMARK  status: ('A' for Active; 'I' for Inactive)
REMARK    1  A    between atoms: C_11  and  C_1 
REMARK    2  A    between atoms: C_15  and  N_3 
REMARK    3  A    between atoms: C_7  and  S_12 
REMARK    4  A    between atoms: C_13  and  C_11 
REMARK    5  A    between atoms: S_12  and  C_13 
REMARK    6  A    between atoms: C_20  and  C_15 
REMARK    7  A    between atoms: O_19  and  C_20 
ROOT
ATOM      1  C   UNL d   1      51.866  33.579  52.762  0.00  0.00     0.057 A 
ATOM      2  C   UNL d   1      52.572  33.856  53.063  0.00  0.00     0.067 A 
ATOM      3  N   UNL d   1      53.013  33.195  53.261  0.00  0.00    -0.303 N 
ATOM      4  C   UNL d   1      51.879  32.770  52.777  0.00  0.00     0.022 A 
ATOM      5  C   UNL d   1      52.581  32.544  53.082  0.00  0.00     0.064 A 
ATOM      6  C   UNL d   1      52.794  34.645  53.150  0.00  0.00     0.019 C 
ATOM      7  C   UNL d   1      52.826  31.744  53.198  0.00  0.00     0.019 C 
ENDROOT
BRANCH   1   8
ATOM      8  C   UNL d   1      51.241  34.060  52.486  0.00  0.00     0.203 C 
ATOM      9  O   UNL d   1      51.307  34.420  51.750  0.00  0.00    -0.286 OA
BRANCH   8  10
ATOM     10  C   UNL d   1      50.568  34.174  52.944  0.00  0.00     0.079 C 
BRANCH  10  11
ATOM     11  S   UNL d   1      49.935  34.620  52.654  0.00  0.00    -0.056 SA
BRANCH  11  12
ATOM     12  C   UNL d   1      49.249  35.082  52.746  0.00  0.00     0.164 A 
ATOM     13  S   UNL d   1      48.651  35.153  52.177  0.00  0.00    -0.039 SA
ATOM     14  C   UNL d   1      48.066  35.667  52.491  0.00  0.00     0.134 A 
ATOM     15  C   UNL d   1      47.362  35.898  52.108  0.00  0.00     0.030 C 
ATOM     16  N   UNL d   1      48.314  35.907  53.253  0.00  0.00    -0.140 NA
ATOM     17  N   UNL d   1      49.050  35.538  53.403  0.00  0.00    -0.134 NA
ENDBRANCH  11  12
ENDBRANCH  10  11
ENDBRANCH   8  10
ENDBRANCH   1   8
BRANCH   3  18
ATOM     18  C   UNL d   1      53.784  33.170  53.594  0.00  0.00     0.107 C 
BRANCH  18  19
ATOM     19  C   UNL d   1      53.868  33.234  54.422  0.00  0.00     0.135 C 
BRANCH  19  20
ATOM     20  O   UNL d   1      54.598  33.233  54.770  0.00  0.00    -0.325 OA
ATOM     21  C   UNL d   1      54.650  33.326  55.450  0.00  0.00     0.182 C 
ENDBRANCH  19  20
ENDBRANCH  18  19
ENDBRANCH   3  18
TORSDOF 7
ENDMDL
MODEL 2
REMARK VINA RESULT:      -6.6      2.755      4.906
REMARK  7 active torsions:
REMARK  status: ('A' for Active; 'I' for Inactive)
REMARK    1  A    between atoms: C_11  and  C_1 
REMARK    2  A    between atoms: C_15  and  N_3 
REMARK    3  A    between atoms: C_7  and  S_12 
REMARK    4  A    between atoms: C_13  and  C_11 
REMARK    5  A    between atoms: S_12  and  C_13 
REMARK    6  A    between atoms: C_20  and  C_15 
REMARK    7  A    between atoms: O_19  and  C_20 
ROOT
ATOM      1  C   UNL d   1      52.498  32.845  53.018  0.00  0.00     0.057 A 
ATOM      2  C   UNL d   1      52.976  33.483  53.193  0.00  0.00     0.067 A 
ATOM      3  N   UNL d   1      52.483  34.136  53.225  0.00  0.00    -0.303 N 
ATOM      4  C   UNL d   1      51.736  33.105  52.946  0.00  0.00     0.022 A 
ATOM      5  C   UNL d   1      51.735  33.893  53.073  0.00  0.00     0.064 A 
ATOM      6  C   UNL d   1      53.791  33.468  53.314  0.00  0.00     0.019 C 
ATOM      7  C   UNL d   1      51.052  34.389  53.051  0.00  0.00     0.019 C 
ENDROOT
BRANCH   1   8
ATOM      8  C   UNL d   1      52.764  32.057  52.931  0.00  0.00     0.203 C 
ATOM      9  O   UNL d   1      52.971  31.785  52.183  0.00  0.00    -0.286 OA
BRANCH   8  10
ATOM     10  C   UNL d   1      52.818  31.559  53.583  0.00  0.00     0.079 C 
BRANCH  10  11
ATOM     11  S   UNL d   1      52.938  30.748  53.480  0.00  0.00    -0.056 SA
BRANCH  11  12
ATOM     12  C   UNL d   1      52.984  29.964  53.755  0.00  0.00     0.164 A 
ATOM     13  S   UNL d   1      53.371  29.731  54.451  0.00  0.00    -0.039 SA
ATOM     14  C   UNL d   1      53.284  28.899  54.520  0.00  0.00     0.134 A 
ATOM     15  C   UNL d   1      53.586  28.426  55.137  0.00  0.00     0.030 C 
ATOM     16  N   UNL d   1      52.842  28.629  53.863  0.00  0.00    -0.140 NA
ATOM     17  N   UNL d   1      52.660  29.298  53.394  0.00  0.00    -0.134 NA
ENDBRANCH  11  12
ENDBRANCH  10  11
ENDBRANCH   8  10
ENDBRANCH   1   8
BRANCH   3  18
ATOM     18  C   UNL d   1      52.695  34.934  53.386  0.00  0.00     0.107 C 
BRANCH  18  19
ATOM     19  C   UNL d   1      52.829  35.164  54.177  0.00  0.00     0.135 C 
BRANCH  19  20
ATOM     20  O   UNL d   1      53.073  35.913  54.360  0.00  0.00    -0.325 OA
ATOM     21  C   UNL d   1      53.046  36.129  55.012  0.00  0.00     0.182 C 
ENDBRANCH  19  20
ENDBRANCH  18  19
ENDBRANCH   3  18
TORSDOF 7
ENDMDL
MODEL 3
REMARK VINA RESULT:      -6.2      1.127      1.577
REMARK  7 active torsions:
REMARK  status: ('A' for Active; 'I' for Inactive)
REMARK    1  A    between atoms: C_11  and  C_1 
REMARK    2  A    between atoms: C_15  and  N_3 
REMARK    3  A    between atoms: C_7  and  S_12 
REMARK    4  A    between atoms: C_13  and  C_11 
REMARK    5  A    between atoms: S_12  and  C_13 
REMARK    6  A    between atoms: C_20  and  C_15 
REMARK    7  A    between atoms: O_19  and  C_20 
ROOT
ATOM      1  C   UNL d   1      51.548  34.137  53.189  0.00  0.00     0.057 A 
ATOM      2  C   UNL d   1      52.145  33.586  53.260  0.00  0.00     0.067 A 
ATOM      3  N   UNL d   1      52.796  33.988  53.554  0.00  0.00    -0.303 N 
ATOM      4  C   UNL d   1      51.830  34.855  53.433  0.00  0.00     0.022 A 
ATOM      5  C   UNL d   1      52.591  34.755  53.654  0.00  0.00     0.064 A 
ATOM      6  C   UNL d   1      52.099  32.784  53.073  0.00  0.00     0.019 C 
ATOM      7  C   UNL d   1      53.096  35.366  53.947  0.00  0.00     0.019 C 
ENDROOT
BRANCH   1   8
ATOM      8  C   UNL d   1      50.778  33.976  52.908  0.00  0.00     0.203 C 
ATOM      9  O   UNL d   1      50.346  33.367  53.252  0.00  0.00    -0.286 OA
BRANCH   8  10
ATOM     10  C   UNL d   1      50.454  34.420  52.297  0.00  0.00     0.079 C 
BRANCH  10  11
ATOM     11  S   UNL d   1      49.635  34.441  52.184  0.00  0.00    -0.056 SA
BRANCH  11  12
ATOM     12  C   UNL d   1      48.948  34.682  51.782  0.00  0.00     0.164 A 
ATOM     13  S   UNL d   1      48.389  35.215  52.083  0.00  0.00    -0.039 SA
ATOM     14  C   UNL d   1      47.789  35.304  51.504  0.00  0.00     0.134 A 
ATOM     15  C   UNL d   1      47.113  35.789  51.571  0.00  0.00     0.030 C 
ATOM     16  N   UNL d   1      47.986  34.821  50.850  0.00  0.00    -0.140 NA
ATOM     17  N   UNL d   1      48.708  34.439  51.032  0.00  0.00    -0.134 NA
ENDBRANCH  11  12
ENDBRANCH  10  11
ENDBRANCH   8  10
ENDBRANCH   1   8
BRANCH   3  18
ATOM     18  C   UNL d   1      53.557  33.677  53.730  0.00  0.00     0.107 C 
BRANCH  18  19
ATOM     19  C   UNL d   1      53.704  33.380  54.495  0.00  0.00     0.135 C 
BRANCH  19  20
ATOM     20  O   UNL d   1      54.422  33.063  54.690  0.00  0.00    -0.325 OA
ATOM     21  C   UNL d   1      54.618  33.045  55.350  0.00  0.00     0.182 C 
ENDBRANCH  19  20
ENDBRANCH  18  19
ENDBRANCH   3  18
TORSDOF 7
ENDMDL
MODEL 4
REMARK VINA RESULT:      -6.1      1.268      1.913
REMARK  7 active torsions:
REMARK  status: ('A' for Active; 'I' for Inactive)
REMARK    1  A    between atoms: C_11  and  C_1 
REMARK    2  A    between atoms: C_15  and  N_3 
REMARK    3  A    between atoms: C_7  and  S_12 
REMARK    4  A    between atoms: C_13  and  C_11 
REMARK    5  A    between atoms: S_12  and  C_13 
REMARK    6  A    between atoms: C_20  and  C_15 
REMARK    7  A    between atoms: O_19  and  C_20 
ROOT
ATOM      1  C   UNL d   1      52.726  33.283  53.504  0.00  0.00     0.057 A 
ATOM      2  C   UNL d   1      52.920  32.541  53.225  0.00  0.00     0.067 A 
ATOM      3  N   UNL d   1      53.443  32.221  53.767  0.00  0.00    -0.303 N 
ATOM      4  C   UNL d   1      53.123  33.409  54.198  0.00  0.00     0.022 A 
ATOM      5  C   UNL d   1      53.558  32.757  54.351  0.00  0.00     0.064 A 
ATOM      6  C   UNL d   1      52.641  32.188  52.534  0.00  0.00     0.019 C 
ATOM      7  C   UNL d   1      54.058  32.652  55.024  0.00  0.00     0.019 C 
ENDROOT
BRANCH   1   8
ATOM      8  C   UNL d   1      52.204  33.816  53.128  0.00  0.00     0.203 C 
ATOM      9  O   UNL d   1      52.511  34.388  52.623  0.00  0.00    -0.286 OA
BRANCH   8  10
ATOM     10  C   UNL d   1      51.394  33.772  53.260  0.00  0.00     0.079 C 
BRANCH  10  11
ATOM     11  S   UNL d   1      50.878  34.287  52.870  0.00  0.00    -0.056 SA
BRANCH  11  12
ATOM     12  C   UNL d   1      50.123  34.594  52.702  0.00  0.00     0.164 A 
ATOM     13  S   UNL d   1      49.709  34.464  51.996  0.00  0.00    -0.039 SA
ATOM     14  C   UNL d   1      48.978  34.870  52.055  0.00  0.00     0.134 A 
ATOM     15  C   UNL d   1      48.382  34.893  51.472  0.00  0.00     0.030 C 
ATOM     16  N   UNL d   1      48.951  35.248  52.801  0.00  0.00    -0.140 NA
ATOM     17  N   UNL d   1      49.667  35.070  53.196  0.00  0.00    -0.134 NA
ENDBRANCH  11  12
ENDBRANCH  10  11
ENDBRANCH   8  10
ENDBRANCH   1   8
BRANCH   3  18
ATOM     18  C   UNL d   1      53.812  31.466  53.742  0.00  0.00     0.107 C 
BRANCH  18  19
ATOM     19  C   UNL d   1      53.356  30.788  53.913  0.00  0.00     0.135 C 
BRANCH  19  20
ATOM     20  O   UNL d   1      53.642  30.045  53.774  0.00  0.00    -0.325 OA
ATOM     21  C   UNL d   1      53.378  29.509  54.115  0.00  0.00     0.182 C 
ENDBRANCH  19  20
ENDBRANCH  18  19
ENDBRANCH   3  18
TORSDOF 7
ENDMDL
MODEL 5
REMARK VINA RESULT:      -5.3      1.761      5.607
REMARK  7 active torsions:
REMARK  status: ('A' for Active; 'I' for Inactive)
REMARK    1  A    between atoms: C_11  and  C_1 
REMARK    2  A    between atoms: C_15  and  N_3 
REMARK    3  A    between atoms: C_7  and  S_12 
REMARK    4  A    between atoms: C_13  and  C_11 
REMARK    5  A    between atoms: S_12  and  C_13 
REMARK    6  A    between atoms: C_20  and  C_15 
REMARK    7  A    between atoms: O_19  and  C_20 
ROOT
ATOM      1  C   UNL d   1      48.939  35.136  52.442  0.00  0.00     0.057 A 
ATOM      2  C   UNL d   1      48.374  35.267  51.869  0.00  0.00     0.067 A 
ATOM      3  N   UNL d   1      47.820  35.770  52.202  0.00  0.00    -0.303 N 
ATOM      4  C   UNL d   1      48.734  35.549  53.106  0.00  0.00     0.022 A 
ATOM      5  C   UNL d   1      48.051  35.933  52.952  0.00  0.00     0.064 A 
ATOM      6  C   UNL d   1      48.365  34.953  51.106  0.00  0.00     0.019 C 
ATOM      7  C   UNL d   1      47.639  36.431  53.496  0.00  0.00     0.019 C 
ENDROOT
BRANCH   1   8
ATOM      8  C   UNL d   1      49.615  34.653  52.348  0.00  0.00     0.203 C 
ATOM      9  O   UNL d   1      49.731  34.262  51.634  0.00  0.00    -0.286 OA
BRANCH   8  10
ATOM     10  C   UNL d   1      50.157  34.570  52.960  0.00  0.00     0.079 C 
BRANCH  10  11
ATOM     11  S   UNL d   1      50.894  34.221  52.820  0.00  0.00    -0.056 SA
BRANCH  11  12
ATOM     12  C   UNL d   1      51.675  34.026  53.032  0.00  0.00     0.164 A 
ATOM     13  S   UNL d   1      51.962  33.252  53.108  0.00  0.00    -0.039 SA
ATOM     14  C   UNL d   1      52.770  33.306  53.329  0.00  0.00     0.134 A 
ATOM     15  C   UNL d   1      53.283  32.662  53.466  0.00  0.00     0.030 C 
ATOM     16  N   UNL d   1      52.971  34.116  53.386  0.00  0.00    -0.140 NA
ATOM     17  N   UNL d   1      52.283  34.556  53.200  0.00  0.00    -0.134 NA
ENDBRANCH  11  12
ENDBRANCH  10  11
ENDBRANCH   8  10
ENDBRANCH   1   8
BRANCH   3  18
ATOM     18  C   UNL d   1      47.124  36.078  51.847  0.00  0.00     0.107 C 
BRANCH  18  19
ATOM     19  C   UNL d   1      46.426  35.621  51.863  0.00  0.00     0.135 C 
BRANCH  19  20
ATOM     20  O   UNL d   1      45.766  35.849  51.456  0.00  0.00    -0.325 OA
ATOM     21  C   UNL d   1      45.161  35.552  51.595  0.00  0.00     0.182 C 
ENDBRANCH  19  20
ENDBRANCH  18  19
ENDBRANCH   3  18
TORSDOF 7
ENDMDL
MODEL 6
REMARK VINA RESULT:      -5.3      1.817      5.047
REMARK  7 active torsions:
REMARK  status: ('A' for Active; 'I' for Inactive)
REMARK    1  A    between atoms: C_11  and  C_1 
REMARK    2  A    between atoms: C_15  and  N_3 
REMARK    3  A    between atoms: C_7  and  S_12 
REMARK    4  A    between atoms: C_13  and  C_11 
REMARK    5  A    between atoms: S_12  and  C_13 
REMARK    6  A    between atoms: C_20  and  C_15 
REMARK    7  A    between atoms: O_19  and  C_20 
ROOT
ATOM      1  C   UNL d   1      50.550  34.267  52.378  0.00  0.00     0.057 A 
ATOM      2  C   UNL d   1      49.955  34.594  52.829  0.00  0.00     0.067 A 
ATOM      3  N   UNL d   1      49.315  34.694  52.328  0.00  0.00    -0.303 N 
ATOM      4  C   UNL d   1      50.278  34.171  51.622  0.00  0.00     0.022 A 
ATOM      5  C   UNL d   1      49.524  34.434  51.600  0.00  0.00     0.064 A 
ATOM      6  C   UNL d   1      49.993  34.784  53.631  0.00  0.00     0.019 C 
ATOM      7  C   UNL d   1      49.029  34.436  50.916  0.00  0.00     0.019 C 
ENDROOT
BRANCH   1   8
ATOM      8  C   UNL d   1      51.311  34.068  52.659  0.00  0.00     0.203 C 
ATOM      9  O   UNL d   1      51.925  34.607  52.570  0.00  0.00    -0.286 OA
BRANCH   8  10
ATOM     10  C   UNL d   1      51.446  33.342  53.021  0.00  0.00     0.079 C 
BRANCH  10  11
ATOM     11  S   UNL d   1      52.203  33.009  53.021  0.00  0.00    -0.056 SA
BRANCH  11  12
ATOM     12  C   UNL d   1      52.760  32.432  53.242  0.00  0.00     0.164 A 
ATOM     13  S   UNL d   1      52.709  31.628  53.044  0.00  0.00    -0.039 SA
ATOM     14  C   UNL d   1      53.378  31.245  53.375  0.00  0.00     0.134 A 
ATOM     15  C   UNL d   1      53.555  30.432  53.315  0.00  0.00     0.030 C 
ATOM     16  N   UNL d   1      53.835  31.821  53.775  0.00  0.00    -0.140 NA
ATOM     17  N   UNL d   1      53.442  32.555  53.687  0.00  0.00    -0.134 NA
ENDBRANCH  11  12
ENDBRANCH  10  11
ENDBRANCH   8  10
ENDBRANCH   1   8
BRANCH   3  18
ATOM     18  C   UNL d   1      48.558  35.011  52.515  0.00  0.00     0.107 C 
BRANCH  18  19
ATOM     19  C   UNL d   1      48.470  35.838  52.568  0.00  0.00     0.135 C 
BRANCH  19  20
ATOM     20  O   UNL d   1      47.738  36.182  52.579  0.00  0.00    -0.325 OA
ATOM     21  C   UNL d   1      47.615  36.707  53.006  0.00  0.00     0.182 C 
ENDBRANCH  19  20
ENDBRANCH  18  19
ENDBRANCH   3  18
TORSDOF 7
ENDMDL
MODEL 7
REMARK VINA RESULT:      -4.8     10.204     10.910
REMARK  7 active torsions:
REMARK  status: ('A' for Active; 'I' for Inactive)
REMARK    1  A    between atoms: C_11  and  C_1 
REMARK    2  A    between atoms: C_15  and  N_3 
REMARK    3  A    between atoms: C_7  and  S_12 
REMARK    4  A    between atoms: C_13  and  C_11 
REMARK    5  A    between atoms: S_12  and  C_13 
REMARK    6  A    between atoms: C_20  and  C_15 
REMARK    7  A    between atoms: O_19  and  C_20 
ROOT
ATOM      1  C   UNL d   1      44.982  28.463  57.967  0.00  0.00     0.057 A 
ATOM      2  C   UNL d   1      44.706  28.643  58.713  0.00  0.00     0.067 A 
ATOM      3  N   UNL d   1      44.614  29.456  58.734  0.00  0.00    -0.303 N 
ATOM      4  C   UNL d   1      45.055  29.149  57.546  0.00  0.00     0.022 A 
ATOM      5  C   UNL d   1      44.829  29.750  58.020  0.00  0.00     0.064 A 
ATOM      6  C   UNL d   1      44.552  28.110  59.323  0.00  0.00     0.019 C 
ATOM      7  C   UNL d   1      44.819  30.566  57.801  0.00  0.00     0.019 C 
ENDROOT
BRANCH   1   8
ATOM      8  C   UNL d   1      45.157  27.692  57.694  0.00  0.00     0.203 C 
ATOM      9  O   UNL d   1      45.867  27.341  57.913  0.00  0.00    -0.286 OA
BRANCH   8  10
ATOM     10  C   UNL d   1      44.627  27.290  57.211  0.00  0.00     0.079 C 
BRANCH  10  11
ATOM     11  S   UNL d   1      44.868  26.616  56.797  0.00  0.00    -0.056 SA
BRANCH  11  12
ATOM     12  C   UNL d   1      44.740  25.981  56.274  0.00  0.00     0.164 A 
ATOM     13  S   UNL d   1      45.030  25.213  56.388  0.00  0.00    -0.039 SA
ATOM     14  C   UNL d   1      44.776  24.750  55.735  0.00  0.00     0.134 A 
ATOM     15  C   UNL d   1      44.939  23.941  55.617  0.00  0.00     0.030 C 
ATOM     16  N   UNL d   1      44.331  25.242  55.226  0.00  0.00    -0.140 NA
ATOM     17  N   UNL d   1      44.314  26.006  55.570  0.00  0.00    -0.134 NA
ENDBRANCH  11  12
ENDBRANCH  10  11
ENDBRANCH   8  10
ENDBRANCH   1   8
BRANCH   3  18
ATOM     18  C   UNL d   1      44.344  29.928  59.375  0.00  0.00     0.107 C 
BRANCH  18  19
ATOM     19  C   UNL d   1      44.892  30.177  59.952  0.00  0.00     0.135 C 
BRANCH  19  20
ATOM     20  O   UNL d   1      44.690  30.719  60.517  0.00  0.00    -0.325 OA
ATOM     21  C   UNL d   1      44.950  30.663  61.151  0.00  0.00     0.182 C 
ENDBRANCH  19  20
ENDBRANCH  18  19
ENDBRANCH   3  18
TORSDOF 7
ENDMDL
MODEL 8
REMARK VINA RESULT:      -4.1     11.263     11.984
REMARK  7 active torsions:
REMARK  status: ('A' for Active; 'I' for Inactive)
REMARK    1  A    between atoms: C_11  and  C_1 
REMARK    2  A    between atoms: C_15  and  N_3 
REMARK    3  A    between atoms: C_7  and  S_12 
REMARK    4  A    between atoms: C_13  and  C_11 
REMARK    5  A    between atoms: S_12  and  C_13 
REMARK    6  A    between atoms: C_20  and  C_15 
REMARK    7  A    between atoms: O_19  and  C_20 
ROOT
ATOM      1  C   UNL d   1      44.946  27.199  58.193  0.00  0.00     0.057 A 
ATOM      2  C   UNL d   1      44.698  27.807  58.677  0.00  0.00     0.067 A 
ATOM      3  N   UNL d   1      44.718  28.487  58.221  0.00  0.00    -0.303 N 
ATOM      4  C   UNL d   1      45.112  27.503  57.462  0.00  0.00     0.022 A 
ATOM      5  C   UNL d   1      44.971  28.289  57.488  0.00  0.00     0.064 A 
ATOM      6  C   UNL d   1      44.472  27.745  59.468  0.00  0.00     0.019 C 
ATOM      7  C   UNL d   1      45.073  28.823  56.841  0.00  0.00     0.019 C 
ENDROOT
BRANCH   1   8
ATOM      8  C   UNL d   1      45.013  26.399  58.424  0.00  0.00     0.203 C 
ATOM      9  O   UNL d   1      45.598  26.185  58.960  0.00  0.00    -0.286 OA
BRANCH   8  10
ATOM     10  C   UNL d   1      44.501  25.832  58.120  0.00  0.00     0.079 C 
BRANCH  10  11
ATOM     11  S   UNL d   1      44.637  25.028  58.259  0.00  0.00    -0.056 SA
BRANCH  11  12
ATOM     12  C   UNL d   1      44.531  24.219  58.097  0.00  0.00     0.164 A 
ATOM     13  S   UNL d   1      44.564  23.618  58.667  0.00  0.00    -0.039 SA
ATOM     14  C   UNL d   1      44.428  22.890  58.271  0.00  0.00     0.134 A 
ATOM     15  C   UNL d   1      44.411  22.136  58.627  0.00  0.00     0.030 C 
ATOM     16  N   UNL d   1      44.314  23.054  57.459  0.00  0.00    -0.140 NA
ATOM     17  N   UNL d   1      44.380  23.883  57.361  0.00  0.00    -0.134 NA
ENDBRANCH  11  12
ENDBRANCH  10  11
ENDBRANCH   8  10
ENDBRANCH   1   8
BRANCH   3  18
ATOM     18  C   UNL d   1      44.516  29.270  58.454  0.00  0.00     0.107 C 
BRANCH  18  19
ATOM     19  C   UNL d   1      45.069  29.717  58.888  0.00  0.00     0.135 C 
BRANCH  19  20
ATOM     20  O   UNL d   1      44.963  30.509  59.013  0.00  0.00    -0.325 OA
ATOM     21  C   UNL d   1      45.041  30.767  59.646  0.00  0.00     0.182 C 
ENDBRANCH  19  20
ENDBRANCH  18  19
ENDBRANCH   3  18
TORSDOF 7
ENDMDL
MODEL 9
REMARK VINA RESULT:      -3.9     10.606     11.143
REMARK  7 active torsions:
REMARK  status: ('A' for Active; 'I' for Inactive)
REMARK    1  A    between atoms: C_11  and  C_1 
REMARK    2  A    between atoms: C_15  and  N_3 
REMARK    3  A    between atoms: C_7  and  S_12 
REMARK    4  A    between atoms: C_13  and  C_11 
REMARK    5  A    between atoms: S_12  and  C_13 
REMARK    6  A    between atoms: C_20  and  C_15 
REMARK    7  A    between atoms: O_19  and  C_20 
ROOT
ATOM      1  C   UNL d   1      44.707  27.756  58.418  0.00  0.00     0.057 A 
ATOM      2  C   UNL d   1      44.582  27.606  57.626  0.00  0.00     0.067 A 
ATOM      3  N   UNL d   1      44.493  26.794  57.558  0.00  0.00    -0.303 N 
ATOM      4  C   UNL d   1      44.693  27.054  58.820  0.00  0.00     0.022 A 
ATOM      5  C   UNL d   1      44.562  26.473  58.288  0.00  0.00     0.064 A 
ATOM      6  C   UNL d   1      44.553  28.162  57.018  0.00  0.00     0.019 C 
ATOM      7  C   UNL d   1      44.506  25.650  58.471  0.00  0.00     0.019 C 
ENDROOT
BRANCH   1   8
ATOM      8  C   UNL d   1      44.828  28.514  58.749  0.00  0.00     0.203 C 
ATOM      9  O   UNL d   1      45.454  28.973  58.479  0.00  0.00    -0.286 OA
BRANCH   8  10
ATOM     10  C   UNL d   1      44.328  28.798  59.336  0.00  0.00     0.079 C 
BRANCH  10  11
ATOM     11  S   UNL d   1      44.587  29.385  59.858  0.00  0.00    -0.056 SA
BRANCH  11  12
ATOM     12  C   UNL d   1      44.515  29.856  60.540  0.00  0.00     0.164 A 
ATOM     13  S   UNL d   1      44.450  30.683  60.536  0.00  0.00    -0.039 SA
ATOM     14  C   UNL d   1      44.389  30.933  61.335  0.00  0.00     0.134 A 
ATOM     15  C   UNL d   1      44.314  31.722  61.595  0.00  0.00     0.030 C 
ATOM     16  N   UNL d   1      44.417  30.254  61.822  0.00  0.00    -0.140 NA
ATOM     17  N   UNL d   1      44.496  29.589  61.319  0.00  0.00    -0.134 NA
ENDBRANCH  11  12
ENDBRANCH  10  11
ENDBRANCH   8  10
ENDBRANCH   1   8
BRANCH   3  18
ATOM     18  C   UNL d   1      44.352  26.348  56.859  0.00  0.00     0.107 C 
BRANCH  18  19
ATOM     19  C   UNL d   1      44.965  25.872  56.554  0.00  0.00     0.135 C 
BRANCH  19  20
ATOM     20  O   UNL d   1      44.973  25.645  55.778  0.00  0.00    -0.325 OA
ATOM     21  C   UNL d   1      44.840  24.990  55.614  0.00  0.00     0.182 C 
ENDBRANCH  19  20
ENDBRANCH  18  19
ENDBRANCH   3  18
TORSDOF 7
ENDMDL
