MODEL 1
REMARK VINA RESULT:      96.2      0.000      0.000
REMARK  6 active torsions:
REMARK  status: ('A' for Active; 'I' for Inactive)
REMARK    1  A    between atoms: C_5  and  C_1 
REMARK    2  A    between atoms: N_6  and  C_5 
REMARK    3  A    between atoms: C_9  and  C_5 
REMARK    4  A    between atoms: C_8  and  C_11 
REMARK    5  A    between atoms: O_18  and  C_8 
REMARK    6  A    between atoms: C_23  and  O_18 
ROOT
ATOM      1  C   UNL d   1     -55.959 -99.809 -43.816  0.00  0.00     0.083 C 
ENDROOT
BRANCH   1   2
ATOM      2  C   UNL d   1     -55.556-100.127 -44.475  0.00  0.00     0.037 A 
ATOM      3  C   UNL d   1     -55.263-100.896 -44.536  0.00  0.00     0.083 A 
ATOM      4  N   UNL d   1     -54.908-100.999 -45.254  0.00  0.00    -0.245 NA
ATOM      5  C   UNL d   1     -55.329-101.484 -43.933  0.00  0.00     0.021 C 
ATOM      6  C   UNL d   1     -54.967-100.302 -45.661  0.00  0.00     0.081 A 
ATOM      7  C   UNL d   1     -55.367 -99.764 -45.180  0.00  0.00     0.021 A 
ATOM      8  C   UNL d   1     -54.712-100.072 -46.410  0.00  0.00     0.019 A 
ATOM      9  C   UNL d   1     -55.510 -98.998 -45.452  0.00  0.00     0.002 A 
ATOM     10  C   UNL d   1     -55.255 -98.768 -46.202  0.00  0.00     0.000 A 
ATOM     11  C   UNL d   1     -54.855 -99.307 -46.683  0.00  0.00     0.002 A 
ENDBRANCH   1   2
BRANCH   1  12
ATOM     12  N   UNL d   1     -56.779 -99.638 -43.866  0.00  0.00    -0.302 N 
ATOM     13  C   UNL d   1     -57.248-100.063 -44.377  0.00  0.00     0.080 A 
ATOM     14  C   UNL d   1     -58.053 -99.893 -44.424  0.00  0.00     0.024 A 
ATOM     15  C   UNL d   1     -58.367 -99.292 -43.949  0.00  0.00     0.067 A 
ATOM     16  C   UNL d   1     -57.894 -98.867 -43.437  0.00  0.00     0.024 A 
ATOM     17  C   UNL d   1     -57.088 -99.037 -43.390  0.00  0.00     0.080 A 
BRANCH  15  18
ATOM     18  C   UNL d   1     -59.184 -99.110 -43.988  0.00  0.00     0.300 C 
ATOM     19  O   UNL d   1     -59.565 -98.759 -43.340  0.00  0.00    -0.259 OA
BRANCH  18  20
ATOM     20  O   UNL d   1     -59.593 -99.283 -44.671  0.00  0.00    -0.271 OA
BRANCH  20  21
ATOM     21  C   UNL d   1     -59.474 -98.826 -45.345  0.00  0.00     0.126 C 
ATOM     22  C   UNL d   1     -58.726 -98.757 -45.655  0.00  0.00     0.029 C 
ENDBRANCH  20  21
ENDBRANCH  18  20
ENDBRANCH  15  18
ENDBRANCH   1  12
BRANCH   1  23
ATOM     23  C   UNL d   1     -55.540 -99.662 -43.104  0.00  0.00     0.098 A 
ATOM     24  N   UNL d   1     -55.130-100.263 -42.736  0.00  0.00    -0.243 NA
ATOM     25  C   UNL d   1     -54.722-100.125 -42.044  0.00  0.00     0.099 A 
ATOM     26  C   UNL d   1     -54.724 -99.373 -41.715  0.00  0.00     0.021 A 
ATOM     27  C   UNL d   1     -55.131 -98.760 -42.075  0.00  0.00     0.003 A 
ATOM     28  C   UNL d   1     -55.549 -98.887 -42.776  0.00  0.00     0.021 A 
ENDBRANCH   1  23
TORSDOF 6
ENDMDL
