MODEL 1
REMARK VINA RESULT:      61.7      0.000      0.000
REMARK  6 active torsions:
REMARK  status: ('A' for Active; 'I' for Inactive)
REMARK    1  A    between atoms: C_6  and  C_1 
REMARK    2  A    between atoms: N_4  and  C_2 
REMARK       I    between atoms: C_8  and  N_4 
REMARK    3  A    between atoms: C_11  and  C_8 
REMARK    4  A    between atoms: O_22  and  C_10 
REMARK    5  A    between atoms: O_24  and  C_12 
REMARK    6  A    between atoms: O_23  and  C_13 
ROOT
ATOM      1  C   UNL d   1      13.867  13.608  -2.903  0.00  0.00     0.080 A 
ATOM      2  C   UNL d   1      13.985  14.425  -2.894  0.00  0.00     0.188 A 
ATOM      3  C   UNL d   1      13.534  13.248  -3.568  0.00  0.00     0.201 A 
ATOM      4  O   UNL d   1      13.769  14.881  -3.549  0.00  0.00    -0.289 OA
ATOM      5  C   UNL d   1      13.319  13.702  -4.220  0.00  0.00     0.062 A 
ATOM      6  C   UNL d   1      13.437  14.519  -4.211  0.00  0.00     0.105 A 
ATOM      7  O   UNL d   1      13.416  12.431  -3.577  0.00  0.00    -0.286 OA
ATOM      8  C   UNL d   1      12.987  13.341  -4.881  0.00  0.00     0.005 A 
ATOM      9  C   UNL d   1      13.222  14.974  -4.863  0.00  0.00     0.025 A 
ATOM     10  C   UNL d   1      12.770  13.796  -5.540  0.00  0.00     0.000 A 
ATOM     11  C   UNL d   1      12.887  14.613  -5.531  0.00  0.00     0.002 A 
ENDROOT
BRANCH   1  12
ATOM     12  C   UNL d   1      14.081  13.154  -2.251  0.00  0.00     0.011 A 
ATOM     13  C   UNL d   1      13.582  13.111  -1.599  0.00  0.00     0.027 A 
ATOM     14  C   UNL d   1      13.795  12.653  -0.939  0.00  0.00     0.118 A 
ATOM     15  C   UNL d   1      14.514  12.239  -0.940  0.00  0.00     0.138 A 
ATOM     16  C   UNL d   1      15.016  12.286  -1.601  0.00  0.00     0.118 A 
ATOM     17  C   UNL d   1      14.801  12.740  -2.252  0.00  0.00     0.027 A 
BRANCH  14  18
ATOM     18  O   UNL d   1      13.288  12.612  -0.283  0.00  0.00    -0.326 OA
ATOM     19  C   UNL d   1      12.888  11.907  -0.104  0.00  0.00     0.181 C 
ENDBRANCH  14  18
BRANCH  15  20
ATOM     20  O   UNL d   1      14.735  11.779  -0.284  0.00  0.00    -0.324 OA
ATOM     21  C   UNL d   1      15.520  11.783  -0.015  0.00  0.00     0.182 C 
ENDBRANCH  15  20
BRANCH  16  22
ATOM     22  O   UNL d   1      15.731  11.874  -1.602  0.00  0.00    -0.326 OA
ATOM     23  C   UNL d   1      16.431  12.262  -1.406  0.00  0.00     0.181 C 
ENDBRANCH  16  22
ENDBRANCH   1  12
BRANCH   2  24
ATOM     24  N   UNL d   1      14.321  14.794  -2.225  0.00  0.00    -0.182 NA
ATOM     25  C   UNL d   1      14.586  15.578  -2.278  0.00  0.00     0.304 C 
ATOM     26  O   UNL d   1      14.521  15.996  -2.985  0.00  0.00    -0.263 OA
BRANCH  25  27
ATOM     27  C   UNL d   1      14.920  15.940  -1.610  0.00  0.00     0.158 A 
ATOM     28  O   UNL d   1      15.073  15.663  -0.853  0.00  0.00    -0.300 OA
ATOM     29  C   UNL d   1      15.414  16.276  -0.419  0.00  0.00     0.123 A 
ATOM     30  C   UNL d   1      15.469  16.938  -0.915  0.00  0.00     0.029 A 
ATOM     31  C   UNL d   1      15.164  16.727  -1.648  0.00  0.00     0.032 A 
ENDBRANCH  25  27
ENDBRANCH   2  24
TORSDOF 6
ENDMDL
