MODEL 1
REMARK VINA RESULT:      84.3      0.000      0.000
REMARK  5 active torsions:
REMARK  status: ('A' for Active; 'I' for Inactive)
REMARK    1  A    between atoms: O_8  and  C_2 
REMARK    2  A    between atoms: C_10  and  C_3 
REMARK    3  A    between atoms: C_14  and  O_8 
REMARK    4  A    between atoms: N_9  and  C_10 
REMARK    5  A    between atoms: O_23  and  C_17 
ROOT
ATOM      1  C   UNL d   1      57.979  49.695  50.399  0.00  0.00     0.108 A 
ATOM      2  C   UNL d   1      59.624  49.697  50.656  0.00  0.00     0.164 A 
ATOM      3  C   UNL d   1      57.164  49.694  50.262  0.00  0.00     0.079 A 
ATOM      4  C   UNL d   1      58.508  49.686  49.751  0.00  0.00     0.064 A 
ATOM      5  C   UNL d   1      59.322  49.687  49.876  0.00  0.00     0.222 A 
ATOM      6  O   UNL d   1      58.272  49.705  51.171  0.00  0.00    -0.303 OA
ATOM      7  C   UNL d   1      59.098  49.706  51.302  0.00  0.00     0.150 A 
ATOM      8  C   UNL d   1      58.203  49.676  48.974  0.00  0.00     0.009 A 
ATOM      9  C   UNL d   1      56.864  49.684  49.499  0.00  0.00     0.199 A 
ATOM     10  O   UNL d   1      59.847  49.678  49.240  0.00  0.00    -0.284 OA
ATOM     11  C   UNL d   1      57.389  49.675  48.848  0.00  0.00     0.042 A 
ATOM     12  O   UNL d   1      56.058  49.683  49.363  0.00  0.00    -0.286 OA
ENDROOT
BRANCH   2  13
ATOM     13  O   UNL d   1      60.438  49.698  50.783  0.00  0.00    -0.300 OA
BRANCH  13  14
ATOM     14  C   UNL d   1      60.765  49.170  51.314  0.00  0.00     0.122 A 
ATOM     15  C   UNL d   1      61.128  48.490  51.043  0.00  0.00     0.117 A 
ATOM     16  C   UNL d   1      61.457  47.959  51.576  0.00  0.00     0.026 A 
ATOM     17  C   UNL d   1      61.418  48.118  52.386  0.00  0.00     0.002 A 
ATOM     18  C   UNL d   1      61.054  48.798  52.657  0.00  0.00     0.002 A 
ATOM     19  C   UNL d   1      60.724  49.331  52.121  0.00  0.00     0.027 A 
BRANCH  15  20
ATOM     20  O   UNL d   1      61.161  48.343  50.234  0.00  0.00    -0.326 OA
ATOM     21  C   UNL d   1      61.385  47.598  49.958  0.00  0.00     0.181 C 
ENDBRANCH  15  20
ENDBRANCH  13  14
ENDBRANCH   2  13
BRANCH   3  22
ATOM     22  C   UNL d   1      56.649  49.703  50.900  0.00  0.00     0.086 C 
BRANCH  22  23
ATOM     23  N   UNL d   1      56.503  49.007  51.322  0.00  0.00    -0.300 N 
ATOM     24  C   UNL d   1      56.551  49.011  52.146  0.00  0.00     0.100 A 
ATOM     25  C   UNL d   1      56.405  48.319  52.567  0.00  0.00     0.100 A 
ATOM     26  N   UNL d   1      56.212  47.623  52.166  0.00  0.00    -0.299 N 
ATOM     27  C   UNL d   1      56.164  47.623  51.342  0.00  0.00     0.100 A 
ATOM     28  C   UNL d   1      56.066  46.930  52.587  0.00  0.00     0.100 C 
ATOM     29  C   UNL d   1      56.311  48.319  50.912  0.00  0.00     0.100 A 
ENDBRANCH  22  23
ENDBRANCH   3  22
TORSDOF 5
ENDMDL
MODEL 2
REMARK VINA RESULT:      86.9      1.909      4.823
REMARK  5 active torsions:
REMARK  status: ('A' for Active; 'I' for Inactive)
REMARK    1  A    between atoms: O_8  and  C_2 
REMARK    2  A    between atoms: C_10  and  C_3 
REMARK    3  A    between atoms: C_14  and  O_8 
REMARK    4  A    between atoms: N_9  and  C_10 
REMARK    5  A    between atoms: O_23  and  C_17 
ROOT
ATOM      1  C   UNL d   1      60.433  48.922  50.781  0.00  0.00     0.108 A 
ATOM      2  C   UNL d   1      58.814  49.277  50.943  0.00  0.00     0.164 A 
ATOM      3  C   UNL d   1      61.238  48.748  50.710  0.00  0.00     0.079 A 
ATOM      4  C   UNL d   1      60.134  49.211  51.508  0.00  0.00     0.064 A 
ATOM      5  C   UNL d   1      59.334  49.387  51.589  0.00  0.00     0.222 A 
ATOM      6  O   UNL d   1      59.924  48.811  50.140  0.00  0.00    -0.303 OA
ATOM      7  C   UNL d   1      59.111  48.989  50.220  0.00  0.00     0.150 A 
ATOM      8  C   UNL d   1      60.655  49.319  52.150  0.00  0.00     0.009 A 
ATOM      9  C   UNL d   1      61.750  48.854  51.341  0.00  0.00     0.199 A 
ATOM     10  O   UNL d   1      59.035  49.672  52.303  0.00  0.00    -0.284 OA
ATOM     11  C   UNL d   1      61.456  49.143  52.069  0.00  0.00     0.042 A 
ATOM     12  O   UNL d   1      62.546  48.683  51.271  0.00  0.00    -0.286 OA
ENDROOT
BRANCH   2  13
ATOM     13  O   UNL d   1      58.013  49.452  51.023  0.00  0.00    -0.300 OA
BRANCH  13  14
ATOM     14  C   UNL d   1      57.519  49.390  50.376  0.00  0.00     0.122 A 
ATOM     15  C   UNL d   1      56.795  49.018  50.448  0.00  0.00     0.117 A 
ATOM     16  C   UNL d   1      56.298  48.955  49.798  0.00  0.00     0.026 A 
ATOM     17  C   UNL d   1      56.535  49.270  49.072  0.00  0.00     0.002 A 
ATOM     18  C   UNL d   1      57.259  49.642  48.999  0.00  0.00     0.002 A 
ATOM     19  C   UNL d   1      57.758  49.705  49.653  0.00  0.00     0.027 A 
BRANCH  15  20
ATOM     20  O   UNL d   1      56.570  48.708  51.177  0.00  0.00    -0.326 OA
ATOM     21  C   UNL d   1      56.061  48.060  51.211  0.00  0.00     0.181 C 
ENDBRANCH  15  20
ENDBRANCH  13  14
ENDBRANCH   2  13
BRANCH   3  22
ATOM     22  C   UNL d   1      61.526  48.465  49.997  0.00  0.00     0.086 C 
BRANCH  22  23
ATOM     23  N   UNL d   1      61.765  47.675  49.932  0.00  0.00    -0.300 N 
ATOM     24  C   UNL d   1      62.568  47.489  49.953  0.00  0.00     0.100 A 
ATOM     25  C   UNL d   1      62.807  46.704  49.888  0.00  0.00     0.100 A 
ATOM     26  N   UNL d   1      62.243  46.105  49.803  0.00  0.00    -0.299 N 
ATOM     27  C   UNL d   1      61.440  46.296  49.782  0.00  0.00     0.100 A 
ATOM     28  C   UNL d   1      62.481  45.320  49.738  0.00  0.00     0.100 C 
ATOM     29  C   UNL d   1      61.194  47.087  49.847  0.00  0.00     0.100 A 
ENDBRANCH  22  23
ENDBRANCH   3  22
TORSDOF 5
ENDMDL
