MODEL 1
REMARK VINA RESULT:       8.3      0.000      0.000
REMARK  5 active torsions:
REMARK  status: ('A' for Active; 'I' for Inactive)
REMARK    1  A    between atoms: C_5  and  N_1 
REMARK    2  A    between atoms: C_12  and  C_2 
REMARK    3  A    between atoms: S_18  and  C_3 
REMARK    4  A    between atoms: C_9  and  C_12 
REMARK    5  A    between atoms: C_23  and  S_18 
ROOT
ATOM      1  N   UNL d   1     -41.839-121.990 -51.763  0.00  0.00    -0.269 N 
ATOM      2  C   UNL d   1     -41.777-122.047 -52.581  0.00  0.00     0.172 A 
ATOM      3  C   UNL d   1     -41.440-121.321 -51.534  0.00  0.00     0.201 A 
ATOM      4  N   UNL d   1     -41.338-121.408 -52.843  0.00  0.00    -0.128 NA
ATOM      5  N   UNL d   1     -41.127-120.955 -52.187  0.00  0.00    -0.121 NA
ENDROOT
BRANCH   2   6
ATOM      6  C   UNL d   1     -42.126-122.666 -52.972  0.00  0.00     0.059 C 
BRANCH   6   7
ATOM      7  C   UNL d   1     -42.194-122.642 -53.791  0.00  0.00     0.094 A 
ATOM      8  C   UNL d   1     -41.630-123.006 -54.262  0.00  0.00     0.082 A 
ATOM      9  C   UNL d   1     -41.701-122.979 -55.083  0.00  0.00     0.285 A 
ATOM     10  O   UNL d   1     -41.125-123.352 -55.572  0.00  0.00    -0.265 OA
ATOM     11  N   UNL d   1     -42.349-122.580 -55.423  0.00  0.00    -0.152 NA
ATOM     12  C   UNL d   1     -42.908-122.219 -54.952  0.00  0.00     0.371 A 
ATOM     13  N   UNL d   1     -42.830-122.250 -54.126  0.00  0.00    -0.191 NA
ATOM     14  O   UNL d   1     -43.545-121.826 -55.300  0.00  0.00    -0.242 OA
ENDBRANCH   6   7
ENDBRANCH   2   6
BRANCH   1  15
ATOM     15  C   UNL d   1     -42.224-122.494 -51.245  0.00  0.00     0.067 A 
ATOM     16  C   UNL d   1     -41.871-123.206 -51.027  0.00  0.00     0.016 A 
ATOM     17  C   UNL d   1     -42.258-123.712 -50.506  0.00  0.00     0.001 A 
ATOM     18  C   UNL d   1     -41.126-123.409 -51.333  0.00  0.00     0.002 C 
ATOM     19  C   UNL d   1     -42.999-123.511 -50.201  0.00  0.00     0.000 A 
ATOM     20  C   UNL d   1     -43.358-122.790 -50.420  0.00  0.00     0.001 A 
ATOM     21  C   UNL d   1     -42.964-122.288 -50.943  0.00  0.00     0.018 A 
ATOM     22  C   UNL d   1     -44.099-122.576 -50.123  0.00  0.00     0.000 C 
ENDBRANCH   1  15
BRANCH   3  23
ATOM     23  S   UNL d   1     -41.366-121.055 -50.738  0.00  0.00    -0.048 SA
BRANCH  23  24
ATOM     24  C   UNL d   1     -41.577-120.271 -50.547  0.00  0.00     0.038 C 
ATOM     25  C   UNL d   1     -41.124-119.850 -50.000  0.00  0.00     0.008 C 
ENDBRANCH  23  24
ENDBRANCH   3  23
TORSDOF 5
ENDMDL
MODEL 2
REMARK VINA RESULT:       8.8      1.862      2.971
REMARK  5 active torsions:
REMARK  status: ('A' for Active; 'I' for Inactive)
REMARK    1  A    between atoms: C_5  and  N_1 
REMARK    2  A    between atoms: C_12  and  C_2 
REMARK    3  A    between atoms: S_18  and  C_3 
REMARK    4  A    between atoms: C_9  and  C_12 
REMARK    5  A    between atoms: C_23  and  S_18 
ROOT
ATOM      1  N   UNL d   1     -42.642-122.438 -50.000  0.00  0.00    -0.269 N 
ATOM      2  C   UNL d   1     -42.448-122.062 -50.704  0.00  0.00     0.172 A 
ATOM      3  C   UNL d   1     -43.450-122.415 -49.925  0.00  0.00     0.201 A 
ATOM      4  N   UNL d   1     -43.145-121.813 -51.054  0.00  0.00    -0.128 NA
ATOM      5  N   UNL d   1     -43.771-122.035 -50.565  0.00  0.00    -0.121 NA
ENDROOT
BRANCH   2   6
ATOM      6  C   UNL d   1     -41.671-121.998 -50.930  0.00  0.00     0.059 C 
BRANCH   6   7
ATOM      7  C   UNL d   1     -41.490-121.730 -51.686  0.00  0.00     0.094 A 
ATOM      8  C   UNL d   1     -41.402-120.927 -51.828  0.00  0.00     0.082 A 
ATOM      9  C   UNL d   1     -41.220-120.662 -52.588  0.00  0.00     0.285 A 
ATOM     10  O   UNL d   1     -41.129-119.838 -52.738  0.00  0.00    -0.265 OA
ATOM     11  N   UNL d   1     -41.128-121.217 -53.202  0.00  0.00    -0.152 NA
ATOM     12  C   UNL d   1     -41.216-122.014 -53.057  0.00  0.00     0.371 A 
ATOM     13  N   UNL d   1     -41.400-122.275 -52.290  0.00  0.00    -0.191 NA
ATOM     14  O   UNL d   1     -41.123-122.556 -53.674  0.00  0.00    -0.242 OA
ENDBRANCH   6   7
ENDBRANCH   2   6
BRANCH   1  15
ATOM     15  C   UNL d   1     -42.141-122.782 -49.451  0.00  0.00     0.067 A 
ATOM     16  C   UNL d   1     -41.733-123.472 -49.643  0.00  0.00     0.016 A 
ATOM     17  C   UNL d   1     -41.230-123.817 -49.092  0.00  0.00     0.001 A 
ATOM     18  C   UNL d   1     -41.834-123.817 -50.392  0.00  0.00     0.002 C 
ATOM     19  C   UNL d   1     -41.129-123.476 -48.346  0.00  0.00     0.000 A 
ATOM     20  C   UNL d   1     -41.540-122.777 -48.150  0.00  0.00     0.001 A 
ATOM     21  C   UNL d   1     -42.043-122.437 -48.708  0.00  0.00     0.018 A 
ATOM     22  C   UNL d   1     -41.449-122.424 -47.408  0.00  0.00     0.000 C 
ENDBRANCH   1  15
BRANCH   3  23
ATOM     23  S   UNL d   1     -43.881-122.740 -49.278  0.00  0.00    -0.048 SA
BRANCH  23  24
ATOM     24  C   UNL d   1     -44.679-122.959 -49.387  0.00  0.00     0.038 C 
ATOM     25  C   UNL d   1     -44.923-123.720 -49.180  0.00  0.00     0.008 C 
ENDBRANCH  23  24
ENDBRANCH   3  23
TORSDOF 5
ENDMDL
MODEL 3
REMARK VINA RESULT:       8.9      1.489      2.450
REMARK  5 active torsions:
REMARK  status: ('A' for Active; 'I' for Inactive)
REMARK    1  A    between atoms: C_5  and  N_1 
REMARK    2  A    between atoms: C_12  and  C_2 
REMARK    3  A    between atoms: S_18  and  C_3 
REMARK    4  A    between atoms: C_9  and  C_12 
REMARK    5  A    between atoms: C_23  and  S_18 
ROOT
ATOM      1  N   UNL d   1     -42.388-122.974 -50.365  0.00  0.00    -0.269 N 
ATOM      2  C   UNL d   1     -42.063-122.961 -51.119  0.00  0.00     0.172 A 
ATOM      3  C   UNL d   1     -41.812-123.232 -49.855  0.00  0.00     0.201 A 
ATOM      4  N   UNL d   1     -41.288-123.214 -51.061  0.00  0.00    -0.128 NA
ATOM      5  N   UNL d   1     -41.131-123.383 -50.270  0.00  0.00    -0.121 NA
ENDROOT
BRANCH   2   6
ATOM      6  C   UNL d   1     -42.514-122.724 -51.752  0.00  0.00     0.059 C 
BRANCH   6   7
ATOM      7  C   UNL d   1     -42.159-122.618 -52.485  0.00  0.00     0.094 A 
ATOM      8  C   UNL d   1     -42.133-121.873 -52.827  0.00  0.00     0.082 A 
ATOM      9  C   UNL d   1     -41.776-121.771 -53.564  0.00  0.00     0.285 A 
ATOM     10  O   UNL d   1     -41.747-121.008 -53.919  0.00  0.00    -0.265 OA
ATOM     11  N   UNL d   1     -41.444-122.431 -53.951  0.00  0.00    -0.152 NA
ATOM     12  C   UNL d   1     -41.471-123.170 -53.608  0.00  0.00     0.371 A 
ATOM     13  N   UNL d   1     -41.833-123.266 -52.866  0.00  0.00    -0.191 NA
ATOM     14  O   UNL d   1     -41.139-123.816 -54.001  0.00  0.00    -0.242 OA
ENDBRANCH   6   7
ENDBRANCH   2   6
BRANCH   1  15
ATOM     15  C   UNL d   1     -43.147-122.771 -50.134  0.00  0.00     0.067 A 
ATOM     16  C   UNL d   1     -43.337-121.980 -49.998  0.00  0.00     0.016 A 
ATOM     17  C   UNL d   1     -44.100-121.777 -49.766  0.00  0.00     0.001 A 
ATOM     18  C   UNL d   1     -42.759-121.393 -50.097  0.00  0.00     0.002 C 
ATOM     19  C   UNL d   1     -44.677-122.360 -49.667  0.00  0.00     0.000 A 
ATOM     20  C   UNL d   1     -44.486-123.161 -49.804  0.00  0.00     0.001 A 
ATOM     21  C   UNL d   1     -43.720-123.357 -50.036  0.00  0.00     0.018 A 
ATOM     22  C   UNL d   1     -45.053-123.755 -49.709  0.00  0.00     0.000 C 
ENDBRANCH   1  15
BRANCH   3  23
ATOM     23  S   UNL d   1     -41.913-123.327 -49.024  0.00  0.00    -0.048 SA
BRANCH  23  24
ATOM     24  C   UNL d   1     -41.355-123.771 -48.591  0.00  0.00     0.038 C 
ATOM     25  C   UNL d   1     -41.393-123.778 -47.767  0.00  0.00     0.008 C 
ENDBRANCH  23  24
ENDBRANCH   3  23
TORSDOF 5
ENDMDL
