MODEL 1
REMARK VINA RESULT:      -7.5      0.000      0.000
REMARK  4 active torsions:
REMARK  status: ('A' for Active; 'I' for Inactive)
REMARK    1  A    between atoms: C_4  and  C_1 
REMARK    2  A    between atoms: N_8  and  C_4 
REMARK    3  A    between atoms: C_12  and  C_4 
REMARK    4  A    between atoms: C_5  and  N_8 
ROOT
ATOM      1  C   UNL d   1      53.565  32.697  54.297  0.00  0.00     0.085 C 
ENDROOT
BRANCH   1   2
ATOM      2  C   UNL d   1      53.743  32.052  53.811  0.00  0.00     0.037 A 
ATOM      3  C   UNL d   1      54.177  32.081  53.097  0.00  0.00     0.083 A 
ATOM      4  N   UNL d   1      54.217  31.319  52.805  0.00  0.00    -0.245 NA
ATOM      5  C   UNL d   1      54.503  32.756  52.752  0.00  0.00     0.021 C 
ATOM      6  C   UNL d   1      53.814  30.827  53.332  0.00  0.00     0.081 A 
ATOM      7  C   UNL d   1      53.529  31.282  53.942  0.00  0.00     0.021 A 
ATOM      8  C   UNL d   1      53.680  30.009  53.316  0.00  0.00     0.019 A 
ATOM      9  C   UNL d   1      53.102  30.929  54.548  0.00  0.00     0.002 A 
ATOM     10  C   UNL d   1      52.960  30.116  54.546  0.00  0.00     0.000 A 
ATOM     11  C   UNL d   1      53.246  29.661  53.936  0.00  0.00     0.002 A 
ENDBRANCH   1   2
BRANCH   1  12
ATOM     12  N   UNL d   1      52.833  32.955  54.377  0.00  0.00    -0.221 NA
BRANCH  12  13
ATOM     13  C   UNL d   1      52.585  33.520  53.912  0.00  0.00     0.194 A 
ATOM     14  N   UNL d   1      52.885  34.249  53.850  0.00  0.00    -0.219 NA
ATOM     15  C   UNL d   1      52.483  34.623  53.335  0.00  0.00     0.108 A 
ATOM     16  C   UNL d   1      51.930  34.155  53.063  0.00  0.00     0.059 A 
ATOM     17  S   UNL d   1      51.989  33.466  53.419  0.00  0.00    -0.046 SA
ENDBRANCH  12  13
ENDBRANCH   1  12
BRANCH   1  18
ATOM     18  C   UNL d   1      54.159  33.089  54.716  0.00  0.00     0.021 A 
ATOM     19  C   UNL d   1      54.110  33.123  55.539  0.00  0.00     0.022 A 
ATOM     20  C   UNL d   1      54.699  33.513  55.971  0.00  0.00     0.099 A 
ATOM     21  N   UNL d   1      55.329  33.865  55.577  0.00  0.00    -0.242 NA
ATOM     22  C   UNL d   1      55.378  33.830  54.750  0.00  0.00     0.099 A 
ATOM     23  C   UNL d   1      54.790  33.441  54.322  0.00  0.00     0.022 A 
ENDBRANCH   1  18
TORSDOF 4
ENDMDL
MODEL 2
REMARK VINA RESULT:      -7.1      1.201      3.157
REMARK  4 active torsions:
REMARK  status: ('A' for Active; 'I' for Inactive)
REMARK    1  A    between atoms: C_4  and  C_1 
REMARK    2  A    between atoms: N_8  and  C_4 
REMARK    3  A    between atoms: C_12  and  C_4 
REMARK    4  A    between atoms: C_5  and  N_8 
ROOT
ATOM      1  C   UNL d   1      53.063  32.569  53.773  0.00  0.00     0.085 C 
ENDROOT
BRANCH   1   2
ATOM      2  C   UNL d   1      53.835  32.849  53.870  0.00  0.00     0.037 A 
ATOM      3  C   UNL d   1      54.424  32.879  53.278  0.00  0.00     0.083 A 
ATOM      4  N   UNL d   1      55.097  33.193  53.618  0.00  0.00    -0.245 NA
ATOM      5  C   UNL d   1      54.340  32.636  52.493  0.00  0.00     0.021 C 
ATOM      6  C   UNL d   1      54.925  33.354  54.410  0.00  0.00     0.081 A 
ATOM      7  C   UNL d   1      54.154  33.141  54.555  0.00  0.00     0.021 A 
ATOM      8  C   UNL d   1      55.396  33.674  55.013  0.00  0.00     0.019 A 
ATOM      9  C   UNL d   1      53.837  33.244  55.305  0.00  0.00     0.002 A 
ATOM     10  C   UNL d   1      54.293  33.561  55.916  0.00  0.00     0.000 A 
ATOM     11  C   UNL d   1      55.064  33.774  55.771  0.00  0.00     0.002 A 
ENDBRANCH   1   2
BRANCH   1  12
ATOM     12  N   UNL d   1      52.847  31.871  54.048  0.00  0.00    -0.221 NA
BRANCH  12  13
ATOM     13  C   UNL d   1      52.917  31.253  53.589  0.00  0.00     0.194 A 
ATOM     14  N   UNL d   1      52.642  31.176  52.852  0.00  0.00    -0.219 NA
ATOM     15  C   UNL d   1      52.828  30.490  52.604  0.00  0.00     0.108 A 
ATOM     16  C   UNL d   1      53.216  30.121  53.163  0.00  0.00     0.059 A 
ATOM     17  S   UNL d   1      53.274  30.592  53.779  0.00  0.00    -0.046 SA
ENDBRANCH  12  13
ENDBRANCH   1  12
BRANCH   1  18
ATOM     18  C   UNL d   1      52.494  33.021  53.381  0.00  0.00     0.021 A 
ATOM     19  C   UNL d   1      51.759  33.133  53.739  0.00  0.00     0.022 A 
ATOM     20  C   UNL d   1      51.180  33.584  53.356  0.00  0.00     0.099 A 
ATOM     21  N   UNL d   1      51.340  33.919  52.622  0.00  0.00    -0.242 NA
ATOM     22  C   UNL d   1      52.079  33.806  52.264  0.00  0.00     0.099 A 
ATOM     23  C   UNL d   1      52.655  33.356  52.646  0.00  0.00     0.022 A 
ENDBRANCH   1  18
TORSDOF 4
ENDMDL
MODEL 3
REMARK VINA RESULT:      -7.1      1.153      2.905
REMARK  4 active torsions:
REMARK  status: ('A' for Active; 'I' for Inactive)
REMARK    1  A    between atoms: C_4  and  C_1 
REMARK    2  A    between atoms: N_8  and  C_4 
REMARK    3  A    between atoms: C_12  and  C_4 
REMARK    4  A    between atoms: C_5  and  N_8 
ROOT
ATOM      1  C   UNL d   1      52.926  32.757  53.764  0.00  0.00     0.085 C 
ENDROOT
BRANCH   1   2
ATOM      2  C   UNL d   1      52.613  33.296  53.222  0.00  0.00     0.037 A 
ATOM      3  C   UNL d   1      53.035  33.677  52.609  0.00  0.00     0.083 A 
ATOM      4  N   UNL d   1      52.509  34.159  52.212  0.00  0.00    -0.245 NA
ATOM      5  C   UNL d   1      53.838  33.582  52.438  0.00  0.00     0.021 C 
ATOM      6  C   UNL d   1      51.771  34.077  52.575  0.00  0.00     0.081 A 
ATOM      7  C   UNL d   1      51.844  33.549  53.189  0.00  0.00     0.021 A 
ATOM      8  C   UNL d   1      51.041  34.431  52.406  0.00  0.00     0.019 A 
ATOM      9  C   UNL d   1      51.188  33.364  53.647  0.00  0.00     0.002 A 
ATOM     10  C   UNL d   1      50.455  33.709  53.491  0.00  0.00     0.000 A 
ATOM     11  C   UNL d   1      50.382  34.236  52.877  0.00  0.00     0.002 A 
ENDBRANCH   1   2
BRANCH   1  12
ATOM     12  N   UNL d   1      52.609  32.050  53.863  0.00  0.00    -0.221 NA
BRANCH  12  13
ATOM     13  C   UNL d   1      52.914  31.449  53.484  0.00  0.00     0.194 A 
ATOM     14  N   UNL d   1      52.924  31.339  52.701  0.00  0.00    -0.219 NA
ATOM     15  C   UNL d   1      53.273  30.686  52.562  0.00  0.00     0.108 A 
ATOM     16  C   UNL d   1      53.489  30.372  53.235  0.00  0.00     0.059 A 
ATOM     17  S   UNL d   1      53.267  30.843  53.813  0.00  0.00    -0.046 SA
ENDBRANCH  12  13
ENDBRANCH   1  12
BRANCH   1  18
ATOM     18  C   UNL d   1      53.586  32.949  54.222  0.00  0.00     0.021 A 
ATOM     19  C   UNL d   1      53.484  33.081  55.030  0.00  0.00     0.022 A 
ATOM     20  C   UNL d   1      54.138  33.275  55.500  0.00  0.00     0.099 A 
ATOM     21  N   UNL d   1      54.884  33.335  55.159  0.00  0.00    -0.242 NA
ATOM     22  C   UNL d   1      54.984  33.202  54.346  0.00  0.00     0.099 A 
ATOM     23  C   UNL d   1      54.332  33.009  53.880  0.00  0.00     0.022 A 
ENDBRANCH   1  18
TORSDOF 4
ENDMDL
MODEL 4
REMARK VINA RESULT:      -6.9      1.001      2.189
REMARK  4 active torsions:
REMARK  status: ('A' for Active; 'I' for Inactive)
REMARK    1  A    between atoms: C_4  and  C_1 
REMARK    2  A    between atoms: N_8  and  C_4 
REMARK    3  A    between atoms: C_12  and  C_4 
REMARK    4  A    between atoms: C_5  and  N_8 
ROOT
ATOM      1  C   UNL d   1      53.150  32.839  53.949  0.00  0.00     0.085 C 
ENDROOT
BRANCH   1   2
ATOM      2  C   UNL d   1      53.519  32.197  53.581  0.00  0.00     0.037 A 
ATOM      3  C   UNL d   1      54.248  32.218  53.174  0.00  0.00     0.083 A 
ATOM      4  N   UNL d   1      54.398  31.463  52.901  0.00  0.00    -0.245 NA
ATOM      5  C   UNL d   1      54.729  32.881  53.067  0.00  0.00     0.021 C 
ATOM      6  C   UNL d   1      53.769  30.982  53.138  0.00  0.00     0.081 A 
ATOM      7  C   UNL d   1      53.238  31.438  53.552  0.00  0.00     0.021 A 
ATOM      8  C   UNL d   1      53.628  30.174  53.017  0.00  0.00     0.019 A 
ATOM      9  C   UNL d   1      52.556  31.096  53.853  0.00  0.00     0.002 A 
ATOM     10  C   UNL d   1      52.401  30.293  53.741  0.00  0.00     0.000 A 
ATOM     11  C   UNL d   1      52.932  29.836  53.327  0.00  0.00     0.002 A 
ENDBRANCH   1   2
BRANCH   1  12
ATOM     12  N   UNL d   1      53.191  32.941  54.722  0.00  0.00    -0.221 NA
BRANCH  12  13
ATOM     13  C   UNL d   1      53.766  33.370  55.011  0.00  0.00     0.194 A 
ATOM     14  N   UNL d   1      53.854  34.153  54.941  0.00  0.00    -0.219 NA
ATOM     15  C   UNL d   1      54.485  34.349  55.301  0.00  0.00     0.108 A 
ATOM     16  C   UNL d   1      54.807  33.714  55.603  0.00  0.00     0.059 A 
ATOM     17  S   UNL d   1      54.363  33.101  55.425  0.00  0.00    -0.046 SA
ENDBRANCH  12  13
ENDBRANCH   1  12
BRANCH   1  18
ATOM     18  C   UNL d   1      52.725  33.393  53.509  0.00  0.00     0.021 A 
ATOM     19  C   UNL d   1      51.917  33.480  53.654  0.00  0.00     0.022 A 
ATOM     20  C   UNL d   1      51.479  34.033  53.219  0.00  0.00     0.099 A 
ATOM     21  N   UNL d   1      51.852  34.491  52.647  0.00  0.00    -0.242 NA
ATOM     22  C   UNL d   1      52.663  34.403  52.503  0.00  0.00     0.099 A 
ATOM     23  C   UNL d   1      53.098  33.852  52.937  0.00  0.00     0.022 A 
ENDBRANCH   1  18
TORSDOF 4
ENDMDL
MODEL 5
REMARK VINA RESULT:      -6.9      0.853      2.771
REMARK  4 active torsions:
REMARK  status: ('A' for Active; 'I' for Inactive)
REMARK    1  A    between atoms: C_4  and  C_1 
REMARK    2  A    between atoms: N_8  and  C_4 
REMARK    3  A    between atoms: C_12  and  C_4 
REMARK    4  A    between atoms: C_5  and  N_8 
ROOT
ATOM      1  C   UNL d   1      53.235  32.393  53.913  0.00  0.00     0.085 C 
ENDROOT
BRANCH   1   2
ATOM      2  C   UNL d   1      53.979  32.751  53.947  0.00  0.00     0.037 A 
ATOM      3  C   UNL d   1      54.518  32.824  53.312  0.00  0.00     0.083 A 
ATOM      4  N   UNL d   1      55.177  33.213  53.595  0.00  0.00    -0.245 NA
ATOM      5  C   UNL d   1      54.403  32.552  52.541  0.00  0.00     0.021 C 
ATOM      6  C   UNL d   1      55.047  33.379  54.395  0.00  0.00     0.081 A 
ATOM      7  C   UNL d   1      54.314  33.093  54.600  0.00  0.00     0.021 A 
ATOM      8  C   UNL d   1      55.524  33.761  54.954  0.00  0.00     0.019 A 
ATOM      9  C   UNL d   1      54.043  33.184  55.369  0.00  0.00     0.002 A 
ATOM     10  C   UNL d   1      54.506  33.563  55.938  0.00  0.00     0.000 A 
ATOM     11  C   UNL d   1      55.239  33.848  55.733  0.00  0.00     0.002 A 
ENDBRANCH   1   2
BRANCH   1  12
ATOM     12  N   UNL d   1      52.586  32.786  54.097  0.00  0.00    -0.221 NA
BRANCH  12  13
ATOM     13  C   UNL d   1      52.188  33.133  53.532  0.00  0.00     0.194 A 
ATOM     14  N   UNL d   1      52.474  33.633  52.990  0.00  0.00    -0.219 NA
ATOM     15  C   UNL d   1      51.905  33.843  52.545  0.00  0.00     0.108 A 
ATOM     16  C   UNL d   1      51.259  33.492  52.785  0.00  0.00     0.059 A 
ATOM     17  S   UNL d   1      51.430  33.049  53.400  0.00  0.00    -0.046 SA
ENDBRANCH  12  13
ENDBRANCH   1  12
BRANCH   1  18
ATOM     18  C   UNL d   1      53.154  31.604  53.683  0.00  0.00     0.021 A 
ATOM     19  C   UNL d   1      53.141  31.019  54.265  0.00  0.00     0.022 A 
ATOM     20  C   UNL d   1      53.061  30.224  54.048  0.00  0.00     0.099 A 
ATOM     21  N   UNL d   1      52.994  30.022  53.253  0.00  0.00    -0.242 NA
ATOM     22  C   UNL d   1      53.008  30.610  52.669  0.00  0.00     0.099 A 
ATOM     23  C   UNL d   1      53.088  31.402  52.888  0.00  0.00     0.022 A 
ENDBRANCH   1  18
TORSDOF 4
ENDMDL
MODEL 6
REMARK VINA RESULT:      -6.8      1.110      3.160
REMARK  4 active torsions:
REMARK  status: ('A' for Active; 'I' for Inactive)
REMARK    1  A    between atoms: C_4  and  C_1 
REMARK    2  A    between atoms: N_8  and  C_4 
REMARK    3  A    between atoms: C_12  and  C_4 
REMARK    4  A    between atoms: C_5  and  N_8 
ROOT
ATOM      1  C   UNL d   1      52.945  32.769  53.833  0.00  0.00     0.085 C 
ENDROOT
BRANCH   1   2
ATOM      2  C   UNL d   1      52.667  33.302  53.266  0.00  0.00     0.037 A 
ATOM      3  C   UNL d   1      53.133  33.711  52.706  0.00  0.00     0.083 A 
ATOM      4  N   UNL d   1      52.631  34.176  52.261  0.00  0.00    -0.245 NA
ATOM      5  C   UNL d   1      53.953  33.654  52.619  0.00  0.00     0.021 C 
ATOM      6  C   UNL d   1      51.863  34.055  52.543  0.00  0.00     0.081 A 
ATOM      7  C   UNL d   1      51.895  33.522  53.155  0.00  0.00     0.021 A 
ATOM      8  C   UNL d   1      51.139  34.380  52.301  0.00  0.00     0.019 A 
ATOM      9  C   UNL d   1      51.204  33.301  53.539  0.00  0.00     0.002 A 
ATOM     10  C   UNL d   1      50.475  33.615  53.310  0.00  0.00     0.000 A 
ATOM     11  C   UNL d   1      50.444  34.149  52.698  0.00  0.00     0.002 A 
ENDBRANCH   1   2
BRANCH   1  12
ATOM     12  N   UNL d   1      52.986  32.963  54.588  0.00  0.00    -0.221 NA
BRANCH  12  13
ATOM     13  C   UNL d   1      53.649  33.252  54.862  0.00  0.00     0.194 A 
ATOM     14  N   UNL d   1      54.319  32.854  54.995  0.00  0.00    -0.219 NA
ATOM     15  C   UNL d   1      54.829  33.340  55.261  0.00  0.00     0.108 A 
ATOM     16  C   UNL d   1      54.505  34.041  55.304  0.00  0.00     0.059 A 
ATOM     17  S   UNL d   1      53.770  33.992  55.056  0.00  0.00    -0.046 SA
ENDBRANCH  12  13
ENDBRANCH   1  12
BRANCH   1  18
ATOM     18  C   UNL d   1      53.188  32.010  53.617  0.00  0.00     0.021 A 
ATOM     19  C   UNL d   1      52.753  31.361  53.885  0.00  0.00     0.022 A 
ATOM     20  C   UNL d   1      52.986  30.595  53.676  0.00  0.00     0.099 A 
ATOM     21  N   UNL d   1      53.650  30.484  53.203  0.00  0.00    -0.242 NA
ATOM     22  C   UNL d   1      54.087  31.136  52.936  0.00  0.00     0.099 A 
ATOM     23  C   UNL d   1      53.853  31.899  53.145  0.00  0.00     0.022 A 
ENDBRANCH   1  18
TORSDOF 4
ENDMDL
