MODEL 1
REMARK VINA RESULT:      13.8      0.000      0.000
REMARK  2 active torsions:
REMARK  status: ('A' for Active; 'I' for Inactive)
REMARK    1  A    between atoms: N_2  and  C_1 
REMARK    2  A    between atoms: C_4  and  C_1 
ROOT
ATOM      1  C   UNL d   1      45.668 -13.419  44.394  0.00  0.00     0.120 C 
ATOM      2  S   UNL d   1      46.032 -12.934  44.955  0.00  0.00    -0.059 SA
ENDROOT
BRANCH   1   3
ATOM      3  N   UNL d   1      45.343 -13.083  43.706  0.00  0.00    -0.293 N 
ATOM      4  C   UNL d   1      45.832 -12.913  43.062  0.00  0.00     0.100 A 
ATOM      5  C   UNL d   1      45.513 -12.579  42.379  0.00  0.00     0.100 A 
ATOM      6  N   UNL d   1      44.706 -12.417  42.339  0.00  0.00    -0.299 N 
ATOM      7  C   UNL d   1      44.218 -12.587  42.983  0.00  0.00     0.100 A 
ATOM      8  C   UNL d   1      44.385 -12.082  41.654  0.00  0.00     0.100 C 
ATOM      9  C   UNL d   1      44.543 -12.923  43.671  0.00  0.00     0.100 A 
ENDBRANCH   1   3
BRANCH   1  10
ATOM     10  C   UNL d   1      45.624 -14.238  44.509  0.00  0.00     0.027 A 
ATOM     11  C   UNL d   1      46.260 -14.729  44.299  0.00  0.00     0.003 A 
ATOM     12  C   UNL d   1      46.208 -15.543  44.418  0.00  0.00     0.007 A 
ATOM     13  C   UNL d   1      45.526 -15.869  44.744  0.00  0.00     0.035 A 
ATOM     14  C   UNL d   1      44.890 -15.378  44.955  0.00  0.00     0.007 A 
ATOM     15 BR   UNL d   1      45.473 -16.686  44.864  0.00  0.00    -0.049 Br
ATOM     16  C   UNL d   1      44.941 -14.564  44.836  0.00  0.00     0.003 A 
ENDBRANCH   1  10
TORSDOF 2
ENDMDL
