MODEL 1
REMARK VINA RESULT:      71.2      0.000      0.000
REMARK  6 active torsions:
REMARK  status: ('A' for Active; 'I' for Inactive)
REMARK    1  A    between atoms: C_7  and  N_1 
REMARK    2  A    between atoms: S_10  and  C_2 
REMARK    3  A    between atoms: C_22  and  S_10 
REMARK    4  A    between atoms: C_13  and  C_22 
REMARK       I    between atoms: N_17  and  C_13 
REMARK    5  A    between atoms: C_14  and  C_23 
REMARK    6  A    between atoms: C_23  and  N_17 
ROOT
ATOM      1  N   UNL d   1      59.177  49.418  51.053  0.00  0.00    -0.254 N 
ATOM      2  C   UNL d   1      58.471  49.597  51.445  0.00  0.00     0.183 A 
ATOM      3  N   UNL d   1      57.767  49.666  51.025  0.00  0.00    -0.201 NA
ATOM      4  C   UNL d   1      59.162  49.309  50.231  0.00  0.00     0.271 A 
ATOM      5  C   UNL d   1      58.460  49.379  49.820  0.00  0.00     0.115 A 
ATOM      6  C   UNL d   1      57.762  49.557  50.214  0.00  0.00     0.192 A 
ATOM      7  N   UNL d   1      57.484  49.432  48.921  0.00  0.00    -0.145 NA
ATOM      8  N   UNL d   1      57.158  49.590  49.656  0.00  0.00    -0.128 NA
ATOM      9  C   UNL d   1      58.294  49.300  49.016  0.00  0.00     0.130 A 
ATOM     10  O   UNL d   1      59.867  49.130  49.836  0.00  0.00    -0.266 OA
ENDROOT
BRANCH   2  11
ATOM     11  S   UNL d   1      58.473  49.708  52.268  0.00  0.00    -0.044 SA
BRANCH  11  12
ATOM     12  C   UNL d   1      57.804  49.514  52.708  0.00  0.00     0.101 C 
BRANCH  12  13
ATOM     13  C   UNL d   1      57.825  49.548  53.532  0.00  0.00     0.286 C 
ATOM     14  N   UNL d   1      57.116  49.574  53.959  0.00  0.00    -0.204 NA
ATOM     15  O   UNL d   1      58.547  49.556  53.933  0.00  0.00    -0.265 OA
BRANCH  14  16
ATOM     16  C   UNL d   1      57.134  49.608  54.783  0.00  0.00     0.127 C 
BRANCH  16  17
ATOM     17  C   UNL d   1      56.822  48.983  55.227  0.00  0.00     0.119 A 
ATOM     18  O   UNL d   1      56.317  48.398  54.957  0.00  0.00    -0.304 OA
ATOM     19  C   UNL d   1      56.144  47.889  55.583  0.00  0.00     0.123 A 
ATOM     20  C   UNL d   1      56.543  48.160  56.244  0.00  0.00     0.029 A 
ATOM     21  C   UNL d   1      56.962  48.833  56.034  0.00  0.00     0.028 A 
ENDBRANCH  16  17
ENDBRANCH  14  16
ENDBRANCH  12  13
ENDBRANCH  11  12
ENDBRANCH   2  11
BRANCH   1  22
ATOM     22  C   UNL d   1      59.876  49.349  51.470  0.00  0.00     0.075 A 
ATOM     23  C   UNL d   1      60.600  49.448  51.080  0.00  0.00     0.051 A 
ATOM     24 BR   UNL d   1      60.613  49.615  50.276  0.00  0.00    -0.048 Br
ATOM     25  C   UNL d   1      61.305  49.379  51.500  0.00  0.00     0.008 A 
ATOM     26  C   UNL d   1      61.289  49.211  52.309  0.00  0.00     0.001 A 
ATOM     27  C   UNL d   1      60.564  49.113  52.694  0.00  0.00     0.002 A 
ATOM     28  C   UNL d   1      59.859  49.182  52.274  0.00  0.00     0.018 A 
ENDBRANCH   1  22
TORSDOF 6
ENDMDL
MODEL 2
REMARK VINA RESULT:      72.7      1.974      4.510
REMARK  6 active torsions:
REMARK  status: ('A' for Active; 'I' for Inactive)
REMARK    1  A    between atoms: C_7  and  N_1 
REMARK    2  A    between atoms: S_10  and  C_2 
REMARK    3  A    between atoms: C_22  and  S_10 
REMARK    4  A    between atoms: C_13  and  C_22 
REMARK       I    between atoms: N_17  and  C_13 
REMARK    5  A    between atoms: C_14  and  C_23 
REMARK    6  A    between atoms: C_23  and  N_17 
ROOT
ATOM      1  N   UNL d   1      57.485  49.462  51.266  0.00  0.00    -0.254 N 
ATOM      2  C   UNL d   1      58.246  49.488  51.589  0.00  0.00     0.183 A 
ATOM      3  N   UNL d   1      58.352  49.562  52.401  0.00  0.00    -0.201 NA
ATOM      4  C   UNL d   1      56.832  49.511  51.775  0.00  0.00     0.271 A 
ATOM      5  C   UNL d   1      56.945  49.585  52.581  0.00  0.00     0.115 A 
ATOM      6  C   UNL d   1      57.702  49.611  52.895  0.00  0.00     0.192 A 
ATOM      7  N   UNL d   1      56.837  49.707  53.899  0.00  0.00    -0.145 NA
ATOM      8  N   UNL d   1      57.634  49.686  53.712  0.00  0.00    -0.128 NA
ATOM      9  C   UNL d   1      56.402  49.645  53.199  0.00  0.00     0.130 A 
ATOM     10  O   UNL d   1      56.069  49.485  51.456  0.00  0.00    -0.266 OA
ENDROOT
BRANCH   2  11
ATOM     11  S   UNL d   1      58.907  49.439  51.088  0.00  0.00    -0.044 SA
BRANCH  11  12
ATOM     12  C   UNL d   1      59.639  49.708  51.352  0.00  0.00     0.101 C 
BRANCH  12  13
ATOM     13  C   UNL d   1      60.319  49.258  51.221  0.00  0.00     0.286 C 
ATOM     14  N   UNL d   1      60.388  48.816  50.524  0.00  0.00    -0.204 NA
ATOM     15  O   UNL d   1      60.928  49.246  51.779  0.00  0.00    -0.265 OA
BRANCH  14  16
ATOM     16  C   UNL d   1      61.067  48.365  50.390  0.00  0.00     0.127 C 
BRANCH  16  17
ATOM     17  C   UNL d   1      61.042  47.544  50.496  0.00  0.00     0.119 A 
ATOM     18  O   UNL d   1      61.461  46.985  50.070  0.00  0.00    -0.304 OA
ATOM     19  C   UNL d   1      61.271  46.236  50.358  0.00  0.00     0.123 A 
ATOM     20  C   UNL d   1      60.732  46.332  50.966  0.00  0.00     0.029 A 
ATOM     21  C   UNL d   1      60.586  47.133  51.058  0.00  0.00     0.028 A 
ENDBRANCH  16  17
ENDBRANCH  14  16
ENDBRANCH  12  13
ENDBRANCH  11  12
ENDBRANCH   2  11
BRANCH   1  22
ATOM     22  C   UNL d   1      57.379  49.388  50.459  0.00  0.00     0.075 A 
ATOM     23  C   UNL d   1      56.714  48.990  50.165  0.00  0.00     0.051 A 
ATOM     24 BR   UNL d   1      56.163  48.672  50.685  0.00  0.00    -0.048 Br
ATOM     25  C   UNL d   1      56.607  48.916  49.352  0.00  0.00     0.008 A 
ATOM     26  C   UNL d   1      57.162  49.237  48.831  0.00  0.00     0.001 A 
ATOM     27  C   UNL d   1      57.824  49.633  49.129  0.00  0.00     0.002 A 
ATOM     28  C   UNL d   1      57.932  49.708  49.942  0.00  0.00     0.018 A 
ENDBRANCH   1  22
TORSDOF 6
ENDMDL
