MODEL 1
REMARK VINA RESULT:      54.2      0.000      0.000
REMARK  3 active torsions:
REMARK  status: ('A' for Active; 'I' for Inactive)
REMARK    1  A    between atoms: N_4  and  C_8 
REMARK    2  A    between atoms: N_12  and  C_6 
REMARK       I    between atoms: C_11  and  N_12 
REMARK    3  A    between atoms: C_14  and  C_11 
ROOT
ATOM      1  C   UNL d   1      13.608  13.746  -3.828  0.00  0.00     0.279 C 
ATOM      2  N   UNL d   1      14.009  14.378  -3.563  0.00  0.00    -0.208 NA
ATOM      3  O   UNL d   1      13.300  13.726  -4.620  0.00  0.00    -0.265 OA
ENDROOT
BRANCH   1   4
ATOM      4  C   UNL d   1      13.480  13.095  -3.341  0.00  0.00     0.059 A 
ATOM      5  C   UNL d   1      13.874  13.024  -2.613  0.00  0.00     0.022 A 
ATOM      6  C   UNL d   1      13.738  12.368  -2.135  0.00  0.00     0.070 A 
ATOM      7  C   UNL d   1      13.246  11.779  -2.316  0.00  0.00     0.018 A 
ATOM      8  C   UNL d   1      12.838  11.811  -3.022  0.00  0.00     0.002 A 
ATOM      9  C   UNL d   1      12.927  12.449  -3.559  0.00  0.00     0.005 A 
BRANCH   6  10
ATOM     10  N   UNL d   1      14.161  12.316  -1.381  0.00  0.00    -0.242 N 
ATOM     11  C   UNL d   1      13.752  12.125  -0.690  0.00  0.00     0.267 A 
ATOM     12  C   UNL d   1      14.306  12.121  -0.081  0.00  0.00     0.066 A 
ATOM     13  O   UNL d   1      12.884  11.960  -0.641  0.00  0.00    -0.267 OA
ATOM     14  C   UNL d   1      15.027  12.300  -0.374  0.00  0.00     0.066 A 
ATOM     15  C   UNL d   1      14.948  12.426  -1.199  0.00  0.00     0.267 A 
ATOM     16  O   UNL d   1      15.553  12.631  -1.765  0.00  0.00    -0.267 OA
ENDBRANCH   6  10
ENDBRANCH   1   4
BRANCH   2  17
ATOM     17  C   UNL d   1      14.142  15.052  -4.068  0.00  0.00     0.089 A 
ATOM     18  C   UNL d   1      14.500  15.742  -3.794  0.00  0.00     0.080 A 
ATOM     19  C   UNL d   1      14.801  15.951  -3.029  0.00  0.00     0.283 A 
ATOM     20  C   UNL d   1      14.635  16.432  -4.311  0.00  0.00     0.064 A 
ATOM     21  N   UNL d   1      15.103  16.722  -3.075  0.00  0.00    -0.169 NA
ATOM     22  O   UNL d   1      14.801  15.458  -2.320  0.00  0.00    -0.265 OA
ATOM     23  C   UNL d   1      15.002  17.019  -3.861  0.00  0.00     0.282 A 
ATOM     24  O   UNL d   1      15.229  17.787  -4.164  0.00  0.00    -0.265 OA
ATOM     25  C   UNL d   1      14.394  16.378  -5.089  0.00  0.00     0.005 A 
ATOM     26  C   UNL d   1      14.040  15.710  -5.377  0.00  0.00     0.002 A 
ATOM     27  C   UNL d   1      13.900  15.019  -4.874  0.00  0.00     0.019 A 
ENDBRANCH   2  17
TORSDOF 3
ENDMDL
