MODEL 1
REMARK VINA RESULT:       8.4      0.000      0.000
REMARK  5 active torsions:
REMARK  status: ('A' for Active; 'I' for Inactive)
REMARK    1  A    between atoms: C_4  and  S_1 
REMARK    2  A    between atoms: N_5  and  S_1 
REMARK       I    between atoms: N_2  and  C_3 
REMARK    3  A    between atoms: C_3  and  C_6 
REMARK    4  A    between atoms: C_16  and  N_5 
REMARK    5  A    between atoms: C_19  and  C_16 
ROOT
ATOM      1  C   UNL d   1     -43.153-122.809 -50.516  0.00  0.00     0.057 A 
ATOM      2  C   UNL d   1     -43.390-122.044 -50.728  0.00  0.00     0.005 A 
ATOM      3  C   UNL d   1     -42.655-123.235 -51.020  0.00  0.00     0.005 A 
ATOM      4  C   UNL d   1     -42.632-122.140 -51.939  0.00  0.00     0.020 A 
ATOM      5  C   UNL d   1     -43.126-121.712 -51.442  0.00  0.00     0.002 A 
ATOM      6  C   UNL d   1     -42.393-122.900 -51.733  0.00  0.00     0.002 A 
ENDROOT
BRANCH   4   7
ATOM      7  C   UNL d   1     -42.372-121.810 -52.645  0.00  0.00     0.112 C 
BRANCH   7   8
ATOM      8  N   UNL d   1     -41.828-122.203 -53.115  0.00  0.00    -0.157 NA
BRANCH   8   9
ATOM      9  S   UNL d   1     -41.990-122.356 -53.905  0.00  0.00     0.285 S 
ATOM     10  O   UNL d   1     -41.523-123.032 -53.870  0.00  0.00    -0.198 OA
ATOM     11  O   UNL d   1     -42.461-121.673 -53.939  0.00  0.00    -0.198 OA
BRANCH   9  12
ATOM     12  C   UNL d   1     -42.152-122.512 -54.700  0.00  0.00     0.105 A 
ATOM     13  C   UNL d   1     -41.746-122.115 -55.286  0.00  0.00     0.012 A 
ATOM     14  C   UNL d   1     -41.909-122.272 -56.084  0.00  0.00     0.001 A 
ATOM     15  C   UNL d   1     -41.166-121.550 -55.075  0.00  0.00     0.001 C 
ATOM     16  C   UNL d   1     -42.477-122.825 -56.285  0.00  0.00     0.000 A 
ATOM     17  C   UNL d   1     -42.894-123.233 -55.698  0.00  0.00     0.001 A 
ATOM     18  C   UNL d   1     -42.726-123.071 -54.899  0.00  0.00     0.013 A 
ATOM     19  C   UNL d   1     -43.467-123.791 -55.897  0.00  0.00     0.000 C 
ENDBRANCH   9  12
ENDBRANCH   8   9
ENDBRANCH   7   8
ENDBRANCH   4   7
BRANCH   1  20
ATOM     20  C   UNL d   1     -43.413-123.139 -49.810  0.00  0.00     0.265 C 
ATOM     21  N   UNL d   1     -42.867-123.313 -49.204  0.00  0.00    -0.273 N 
ATOM     22  C   UNL d   1     -43.127-123.645 -48.494  0.00  0.00     0.067 A 
ATOM     23  C   UNL d   1     -42.069-123.154 -49.314  0.00  0.00     0.083 A 
ATOM     24  C   UNL d   1     -43.930-123.806 -48.382  0.00  0.00     0.019 C 
ATOM     25  C   UNL d   1     -42.585-123.816 -47.897  0.00  0.00     0.018 A 
ATOM     26  C   UNL d   1     -41.794-123.652 -48.019  0.00  0.00     0.003 A 
ATOM     27  C   UNL d   1     -41.534-123.324 -48.722  0.00  0.00     0.019 A 
ATOM     28  O   UNL d   1     -44.216-123.298 -49.701  0.00  0.00    -0.267 OA
ENDBRANCH   1  20
TORSDOF 5
ENDMDL
