MODEL 1
REMARK VINA RESULT:      -4.2      0.000      0.000
REMARK  7 active torsions:
REMARK  status: ('A' for Active; 'I' for Inactive)
REMARK    1  A    between atoms: C_2  and  S_1 
REMARK    2  A    between atoms: N_6  and  S_1 
REMARK    3  A    between atoms: O_14  and  C_5 
REMARK    4  A    between atoms: C_15  and  N_6 
REMARK    5  A    between atoms: O_16  and  C_7 
REMARK    6  A    between atoms: C_11  and  C_19 
REMARK    7  A    between atoms: C_19  and  C_15 
ROOT
ATOM      1  C   UNL d   1     -41.528-122.707 -51.567  0.00  0.00     0.112 C 
ENDROOT
BRANCH   1   2
ATOM      2  N   UNL d   1     -41.579-122.713 -52.387  0.00  0.00    -0.157 NA
BRANCH   2   3
ATOM      3  S   UNL d   1     -41.417-122.030 -52.823  0.00  0.00     0.285 S 
ATOM      4  O   UNL d   1     -41.316-121.617 -52.116  0.00  0.00    -0.198 OA
ATOM      5  O   UNL d   1     -41.256-121.349 -53.245  0.00  0.00    -0.198 OA
BRANCH   3   6
ATOM      6  C   UNL d   1     -41.520-122.451 -53.526  0.00  0.00     0.105 A 
ATOM      7  C   UNL d   1     -42.018-122.162 -54.121  0.00  0.00     0.013 A 
ATOM      8  C   UNL d   1     -42.115-122.589 -54.820  0.00  0.00     0.001 A 
ATOM      9  C   UNL d   1     -42.610-122.302 -55.414  0.00  0.00     0.000 C 
ATOM     10  C   UNL d   1     -41.715-123.305 -54.926  0.00  0.00     0.000 A 
ATOM     11  C   UNL d   1     -41.220-123.592 -54.332  0.00  0.00     0.001 A 
ATOM     12  C   UNL d   1     -41.123-123.165 -53.633  0.00  0.00     0.013 A 
ENDBRANCH   3   6
ENDBRANCH   2   3
ENDBRANCH   1   2
BRANCH   1  13
ATOM     13  C   UNL d   1     -41.552-123.416 -51.161  0.00  0.00     0.022 C 
BRANCH  13  14
ATOM     14  C   UNL d   1     -41.734-123.420 -50.363  0.00  0.00     0.004 A 
ATOM     15  C   UNL d   1     -42.520-123.416 -50.113  0.00  0.00     0.026 A 
ATOM     16  C   UNL d   1     -42.700-123.419 -49.308  0.00  0.00     0.116 A 
ATOM     17  C   UNL d   1     -42.077-123.427 -48.748  0.00  0.00     0.116 A 
ATOM     18  C   UNL d   1     -41.304-123.431 -48.999  0.00  0.00     0.026 A 
ATOM     19  C   UNL d   1     -41.123-123.428 -49.801  0.00  0.00     0.002 A 
BRANCH  16  20
ATOM     20  O   UNL d   1     -43.487-123.415 -49.061  0.00  0.00    -0.326 OA
ATOM     21  C   UNL d   1     -44.202-123.576 -49.534  0.00  0.00     0.181 C 
ENDBRANCH  16  20
BRANCH  17  22
ATOM     22  O   UNL d   1     -42.236-123.431 -47.962  0.00  0.00    -0.326 OA
ATOM     23  C   UNL d   1     -41.641-123.342 -47.413  0.00  0.00     0.181 C 
ENDBRANCH  17  22
ENDBRANCH  13  14
ENDBRANCH   1  13
TORSDOF 7
ENDMDL
MODEL 2
REMARK VINA RESULT:      -1.2      1.248      4.823
REMARK  7 active torsions:
REMARK  status: ('A' for Active; 'I' for Inactive)
REMARK    1  A    between atoms: C_2  and  S_1 
REMARK    2  A    between atoms: N_6  and  S_1 
REMARK    3  A    between atoms: O_14  and  C_5 
REMARK    4  A    between atoms: C_15  and  N_6 
REMARK    5  A    between atoms: O_16  and  C_7 
REMARK    6  A    between atoms: C_11  and  C_19 
REMARK    7  A    between atoms: C_19  and  C_15 
ROOT
ATOM      1  C   UNL d   1     -41.133-122.697 -51.760  0.00  0.00     0.112 C 
ENDROOT
BRANCH   1   2
ATOM      2  N   UNL d   1     -41.244-122.835 -50.958  0.00  0.00    -0.157 NA
BRANCH   2   3
ATOM      3  S   UNL d   1     -41.406-122.210 -50.443  0.00  0.00     0.285 S 
ATOM      4  O   UNL d   1     -41.127-121.683 -51.013  0.00  0.00    -0.198 OA
ATOM      5  O   UNL d   1     -41.562-121.584 -49.941  0.00  0.00    -0.198 OA
BRANCH   3   6
ATOM      6  C   UNL d   1     -41.683-122.744 -49.877  0.00  0.00     0.105 A 
ATOM      7  C   UNL d   1     -42.494-122.818 -49.730  0.00  0.00     0.013 A 
ATOM      8  C   UNL d   1     -42.763-123.354 -49.163  0.00  0.00     0.001 A 
ATOM      9  C   UNL d   1     -43.570-123.429 -49.015  0.00  0.00     0.000 C 
ATOM     10  C   UNL d   1     -42.221-123.817 -48.743  0.00  0.00     0.000 A 
ATOM     11  C   UNL d   1     -41.413-123.743 -48.892  0.00  0.00     0.001 A 
ATOM     12  C   UNL d   1     -41.145-123.207 -49.458  0.00  0.00     0.013 A 
ENDBRANCH   3   6
ENDBRANCH   2   3
ENDBRANCH   1   2
BRANCH   1  13
ATOM     13  C   UNL d   1     -41.153-123.328 -52.280  0.00  0.00     0.022 C 
BRANCH  13  14
ATOM     14  C   UNL d   1     -41.302-123.194 -53.073  0.00  0.00     0.004 A 
ATOM     15  C   UNL d   1     -41.615-122.474 -53.326  0.00  0.00     0.026 A 
ATOM     16  C   UNL d   1     -41.764-122.343 -54.126  0.00  0.00     0.116 A 
ATOM     17  C   UNL d   1     -41.594-122.947 -54.680  0.00  0.00     0.116 A 
ATOM     18  C   UNL d   1     -41.285-123.656 -54.427  0.00  0.00     0.026 A 
ATOM     19  C   UNL d   1     -41.136-123.788 -53.630  0.00  0.00     0.002 A 
BRANCH  16  20
ATOM     20  O   UNL d   1     -42.077-121.621 -54.375  0.00  0.00    -0.326 OA
ATOM     21  C   UNL d   1     -42.834-121.254 -54.147  0.00  0.00     0.181 C 
ENDBRANCH  16  20
BRANCH  17  22
ATOM     22  O   UNL d   1     -41.733-122.835 -55.462  0.00  0.00    -0.326 OA
ATOM     23  C   UNL d   1     -41.123-122.830 -56.001  0.00  0.00     0.181 C 
ENDBRANCH  17  22
ENDBRANCH  13  14
ENDBRANCH   1  13
TORSDOF 7
ENDMDL
