MODEL 1
REMARK VINA RESULT:      -3.4      0.000      0.000
REMARK  5 active torsions:
REMARK  status: ('A' for Active; 'I' for Inactive)
REMARK    1  A    between atoms: N_2  and  C_1 
REMARK    2  A    between atoms: C_5  and  C_1 
REMARK    3  A    between atoms: O_4  and  N_2 
REMARK    4  A    between atoms: C_3  and  O_4 
REMARK    5  A    between atoms: C_6  and  C_3 
ROOT
ATOM      1  O   UNL d   1      32.983  19.986 -22.467  0.00  0.00    -0.168 OA
ENDROOT
BRANCH   1   2
ATOM      2  C   UNL d   1      33.001  20.350 -21.631  0.00  0.00     0.319 C 
ATOM      3  O   UNL d   1      33.239  19.853 -20.922  0.00  0.00    -0.257 OA
BRANCH   2   4
ATOM      4  C   UNL d   1      32.798  21.146 -21.522  0.00  0.00     0.065 A 
ATOM      5  C   UNL d   1      32.205  21.338 -20.970  0.00  0.00     0.005 A 
ATOM      6  C   UNL d   1      32.008  22.140 -20.869  0.00  0.00     0.000 A 
ATOM      7  C   UNL d   1      32.385  22.731 -21.300  0.00  0.00     0.000 A 
ATOM      8  C   UNL d   1      32.968  22.509 -21.839  0.00  0.00     0.000 A 
ATOM      9  C   UNL d   1      32.177  23.522 -21.187  0.00  0.00     0.000 C 
ATOM     10  C   UNL d   1      33.174  21.736 -21.952  0.00  0.00     0.005 A 
ENDBRANCH   2   4
ENDBRANCH   1   2
BRANCH   1  11
ATOM     11  N   UNL d   1      32.922  19.180 -22.575  0.00  0.00    -0.100 NA
BRANCH  11  12
ATOM     12  C   UNL d   1      32.950  18.845 -23.322  0.00  0.00     0.228 C 
ATOM     13  N   UNL d   1      33.234  19.293 -23.953  0.00  0.00    -0.123 N 
BRANCH  12  14
ATOM     14  C   UNL d   1      32.704  18.077 -23.457  0.00  0.00     0.121 A 
ATOM     15  N   UNL d   1      33.184  17.450 -23.256  0.00  0.00    -0.241 NA
ATOM     16  C   UNL d   1      32.927  16.668 -23.396  0.00  0.00     0.099 A 
ATOM     17  C   UNL d   1      32.186  16.536 -23.738  0.00  0.00     0.021 A 
ATOM     18  C   UNL d   1      31.699  17.176 -23.943  0.00  0.00     0.003 A 
ATOM     19  C   UNL d   1      31.963  17.945 -23.800  0.00  0.00     0.022 A 
ENDBRANCH  12  14
ENDBRANCH  11  12
ENDBRANCH   1  11
TORSDOF 5
ENDMDL
MODEL 2
REMARK VINA RESULT:      -3.4      0.959      4.782
REMARK  5 active torsions:
REMARK  status: ('A' for Active; 'I' for Inactive)
REMARK    1  A    between atoms: N_2  and  C_1 
REMARK    2  A    between atoms: C_5  and  C_1 
REMARK    3  A    between atoms: O_4  and  N_2 
REMARK    4  A    between atoms: C_3  and  O_4 
REMARK    5  A    between atoms: C_6  and  C_3 
ROOT
ATOM      1  O   UNL d   1      32.929  19.354 -22.390  0.00  0.00    -0.168 OA
ENDROOT
BRANCH   1   2
ATOM      2  C   UNL d   1      32.959  18.991 -23.226  0.00  0.00     0.319 C 
ATOM      3  O   UNL d   1      33.241  19.479 -23.925  0.00  0.00    -0.257 OA
BRANCH   2   4
ATOM      4  C   UNL d   1      32.725  18.205 -23.343  0.00  0.00     0.065 A 
ATOM      5  C   UNL d   1      33.241  17.593 -23.114  0.00  0.00     0.005 A 
ATOM      6  C   UNL d   1      32.997  16.808 -23.236  0.00  0.00     0.000 A 
ATOM      7  C   UNL d   1      32.266  16.634 -23.573  0.00  0.00     0.000 A 
ATOM      8  C   UNL d   1      31.778  17.262 -23.789  0.00  0.00     0.000 A 
ATOM      9  C   UNL d   1      32.039  15.848 -23.687  0.00  0.00     0.000 C 
ATOM     10  C   UNL d   1      31.996  18.031 -23.679  0.00  0.00     0.005 A 
ENDBRANCH   2   4
ENDBRANCH   1   2
BRANCH   1  11
ATOM     11  N   UNL d   1      33.042  20.153 -22.272  0.00  0.00    -0.100 NA
BRANCH  11  12
ATOM     12  C   UNL d   1      33.031  20.482 -21.521  0.00  0.00     0.228 C 
ATOM     13  N   UNL d   1      33.224  20.010 -20.874  0.00  0.00    -0.123 N 
BRANCH  12  14
ATOM     14  C   UNL d   1      32.834  21.265 -21.400  0.00  0.00     0.121 A 
ATOM     15  N   UNL d   1      33.200  21.854 -21.829  0.00  0.00    -0.241 NA
ATOM     16  C   UNL d   1      32.994  22.652 -21.700  0.00  0.00     0.099 A 
ATOM     17  C   UNL d   1      32.419  22.841 -21.137  0.00  0.00     0.021 A 
ATOM     18  C   UNL d   1      32.046  22.240 -20.701  0.00  0.00     0.003 A 
ATOM     19  C   UNL d   1      32.258  21.454 -20.837  0.00  0.00     0.022 A 
ENDBRANCH  12  14
ENDBRANCH  11  12
ENDBRANCH   1  11
TORSDOF 5
ENDMDL
MODEL 3
REMARK VINA RESULT:      -2.4      2.104      3.225
REMARK  5 active torsions:
REMARK  status: ('A' for Active; 'I' for Inactive)
REMARK    1  A    between atoms: N_2  and  C_1 
REMARK    2  A    between atoms: C_5  and  C_1 
REMARK    3  A    between atoms: O_4  and  N_2 
REMARK    4  A    between atoms: C_3  and  O_4 
REMARK    5  A    between atoms: C_6  and  C_3 
ROOT
ATOM      1  O   UNL d   1      31.929  17.593 -23.872  0.00  0.00    -0.168 OA
ENDROOT
BRANCH   1   2
ATOM      2  C   UNL d   1      32.667  17.808 -23.380  0.00  0.00     0.319 C 
ATOM      3  O   UNL d   1      33.240  17.169 -23.115  0.00  0.00    -0.257 OA
BRANCH   2   4
ATOM      4  C   UNL d   1      32.811  18.598 -23.176  0.00  0.00     0.065 A 
ATOM      5  C   UNL d   1      32.820  19.173 -23.778  0.00  0.00     0.005 A 
ATOM      6  C   UNL d   1      32.965  19.963 -23.562  0.00  0.00     0.000 A 
ATOM      7  C   UNL d   1      33.098  20.176 -22.779  0.00  0.00     0.000 A 
ATOM      8  C   UNL d   1      33.083  19.583 -22.206  0.00  0.00     0.000 A 
ATOM      9  C   UNL d   1      33.241  20.965 -22.583  0.00  0.00     0.000 C 
ATOM     10  C   UNL d   1      32.943  18.811 -22.395  0.00  0.00     0.005 A 
ENDBRANCH   2   4
ENDBRANCH   1   2
BRANCH   1  11
ATOM     11  N   UNL d   1      31.502  16.915 -23.718  0.00  0.00    -0.100 NA
BRANCH  11  12
ATOM     12  C   UNL d   1      30.917  16.652 -24.228  0.00  0.00     0.228 C 
ATOM     13  N   UNL d   1      31.072  16.625 -25.037  0.00  0.00    -0.123 N 
BRANCH  12  14
ATOM     14  C   UNL d   1      30.185  16.416 -23.955  0.00  0.00     0.121 A 
ATOM     15  N   UNL d   1      30.126  15.889 -23.335  0.00  0.00    -0.241 NA
ATOM     16  C   UNL d   1      29.375  15.651 -23.060  0.00  0.00     0.099 A 
ATOM     17  C   UNL d   1      28.694  15.953 -23.419  0.00  0.00     0.021 A 
ATOM     18  C   UNL d   1      28.755  16.490 -24.049  0.00  0.00     0.003 A 
ATOM     19  C   UNL d   1      29.503  16.718 -24.313  0.00  0.00     0.022 A 
ENDBRANCH  12  14
ENDBRANCH  11  12
ENDBRANCH   1  11
TORSDOF 5
ENDMDL
MODEL 4
REMARK VINA RESULT:      -2.4      1.432      4.750
REMARK  5 active torsions:
REMARK  status: ('A' for Active; 'I' for Inactive)
REMARK    1  A    between atoms: N_2  and  C_1 
REMARK    2  A    between atoms: C_5  and  C_1 
REMARK    3  A    between atoms: O_4  and  N_2 
REMARK    4  A    between atoms: C_3  and  O_4 
REMARK    5  A    between atoms: C_6  and  C_3 
ROOT
ATOM      1  O   UNL d   1      32.890  20.545 -22.410  0.00  0.00    -0.168 OA
ENDROOT
BRANCH   1   2
ATOM      2  C   UNL d   1      33.003  19.643 -22.338  0.00  0.00     0.319 C 
ATOM      3  O   UNL d   1      33.241  19.274 -21.555  0.00  0.00    -0.257 OA
BRANCH   2   4
ATOM      4  C   UNL d   1      32.887  19.158 -23.000  0.00  0.00     0.065 A 
ATOM      5  C   UNL d   1      33.241  19.372 -23.722  0.00  0.00     0.005 A 
ATOM      6  C   UNL d   1      33.118  18.879 -24.381  0.00  0.00     0.000 A 
ATOM      7  C   UNL d   1      32.660  18.197 -24.326  0.00  0.00     0.000 A 
ATOM      8  C   UNL d   1      32.323  18.013 -23.596  0.00  0.00     0.000 A 
ATOM      9  C   UNL d   1      32.548  17.719 -24.989  0.00  0.00     0.000 C 
ATOM     10  C   UNL d   1      32.430  18.478 -22.946  0.00  0.00     0.005 A 
ENDBRANCH   2   4
ENDBRANCH   1   2
BRANCH   1  11
ATOM     11  N   UNL d   1      33.002  21.037 -21.770  0.00  0.00    -0.100 NA
BRANCH  11  12
ATOM     12  C   UNL d   1      32.890  21.847 -21.826  0.00  0.00     0.228 C 
ATOM     13  N   UNL d   1      32.917  22.205 -22.568  0.00  0.00    -0.123 N 
BRANCH  12  14
ATOM     14  C   UNL d   1      32.752  22.308 -21.166  0.00  0.00     0.121 A 
ATOM     15  N   UNL d   1      33.135  22.146 -20.464  0.00  0.00    -0.241 NA
ATOM     16  C   UNL d   1      32.989  22.620 -19.793  0.00  0.00     0.099 A 
ATOM     17  C   UNL d   1      32.458  23.251 -19.844  0.00  0.00     0.021 A 
ATOM     18  C   UNL d   1      32.069  23.414 -20.560  0.00  0.00     0.003 A 
ATOM     19  C   UNL d   1      32.220  22.939 -21.217  0.00  0.00     0.022 A 
ENDBRANCH  12  14
ENDBRANCH  11  12
ENDBRANCH   1  11
TORSDOF 5
ENDMDL
MODEL 5
REMARK VINA RESULT:      -2.2      1.990      5.040
REMARK  5 active torsions:
REMARK  status: ('A' for Active; 'I' for Inactive)
REMARK    1  A    between atoms: N_2  and  C_1 
REMARK    2  A    between atoms: C_5  and  C_1 
REMARK    3  A    between atoms: O_4  and  N_2 
REMARK    4  A    between atoms: C_3  and  O_4 
REMARK    5  A    between atoms: C_6  and  C_3 
ROOT
ATOM      1  O   UNL d   1      31.883  17.454 -24.088  0.00  0.00    -0.168 OA
ENDROOT
BRANCH   1   2
ATOM      2  C   UNL d   1      31.658  16.570 -24.059  0.00  0.00     0.319 C 
ATOM      3  O   UNL d   1      32.294  15.937 -24.086  0.00  0.00    -0.257 OA
BRANCH   2   4
ATOM      4  C   UNL d   1      30.861  16.349 -24.008  0.00  0.00     0.065 A 
ATOM      5  C   UNL d   1      30.370  16.458 -24.671  0.00  0.00     0.005 A 
ATOM      6  C   UNL d   1      29.572  16.232 -24.609  0.00  0.00     0.000 A 
ATOM      7  C   UNL d   1      29.270  15.909 -23.914  0.00  0.00     0.000 A 
ATOM      8  C   UNL d   1      29.783  15.814 -23.275  0.00  0.00     0.000 A 
ATOM      9  C   UNL d   1      28.476  15.691 -23.870  0.00  0.00     0.000 C 
ATOM     10  C   UNL d   1      30.560  16.027 -23.315  0.00  0.00     0.005 A 
ENDBRANCH   2   4
ENDBRANCH   1   2
BRANCH   1  11
ATOM     11  N   UNL d   1      32.530  17.738 -23.682  0.00  0.00    -0.100 NA
BRANCH  11  12
ATOM     12  C   UNL d   1      32.799  18.505 -23.787  0.00  0.00     0.228 C 
ATOM     13  N   UNL d   1      32.927  18.785 -24.551  0.00  0.00    -0.123 N 
BRANCH  12  14
ATOM     14  C   UNL d   1      32.944  18.999 -23.152  0.00  0.00     0.121 A 
ATOM     15  N   UNL d   1      33.094  18.687 -22.414  0.00  0.00    -0.241 NA
ATOM     16  C   UNL d   1      33.241  19.197 -21.769  0.00  0.00     0.099 A 
ATOM     17  C   UNL d   1      33.232  20.015 -21.884  0.00  0.00     0.021 A 
ATOM     18  C   UNL d   1      33.079  20.331 -22.637  0.00  0.00     0.003 A 
ATOM     19  C   UNL d   1      32.935  19.818 -23.267  0.00  0.00     0.022 A 
ENDBRANCH  12  14
ENDBRANCH  11  12
ENDBRANCH   1  11
TORSDOF 5
ENDMDL
MODEL 6
REMARK VINA RESULT:      -0.5      1.683      2.300
REMARK  5 active torsions:
REMARK  status: ('A' for Active; 'I' for Inactive)
REMARK    1  A    between atoms: N_2  and  C_1 
REMARK    2  A    between atoms: C_5  and  C_1 
REMARK    3  A    between atoms: O_4  and  N_2 
REMARK    4  A    between atoms: C_3  and  O_4 
REMARK    5  A    between atoms: C_6  and  C_3 
ROOT
ATOM      1  O   UNL d   1      32.931  21.101 -20.821  0.00  0.00    -0.168 OA
ENDROOT
BRANCH   1   2
ATOM      2  C   UNL d   1      33.044  22.006 -20.824  0.00  0.00     0.319 C 
ATOM      3  O   UNL d   1      33.232  22.439 -21.588  0.00  0.00    -0.257 OA
BRANCH   2   4
ATOM      4  C   UNL d   1      32.971  22.433 -20.118  0.00  0.00     0.065 A 
ATOM      5  C   UNL d   1      32.978  22.020 -19.396  0.00  0.00     0.005 A 
ATOM      6  C   UNL d   1      32.905  22.459 -18.693  0.00  0.00     0.000 A 
ATOM      7  C   UNL d   1      32.828  23.278 -18.705  0.00  0.00     0.000 A 
ATOM      8  C   UNL d   1      32.825  23.658 -19.437  0.00  0.00     0.000 A 
ATOM      9  C   UNL d   1      32.756  23.698 -17.998  0.00  0.00     0.000 C 
ATOM     10  C   UNL d   1      32.894  23.251 -20.130  0.00  0.00     0.005 A 
ENDBRANCH   2   4
ENDBRANCH   1   2
BRANCH   1  11
ATOM     11  N   UNL d   1      33.160  20.644 -21.457  0.00  0.00    -0.100 NA
BRANCH  11  12
ATOM     12  C   UNL d   1      33.131  19.826 -21.430  0.00  0.00     0.228 C 
ATOM     13  N   UNL d   1      33.166  19.447 -20.700  0.00  0.00    -0.123 N 
BRANCH  12  14
ATOM     14  C   UNL d   1      33.068  19.377 -22.110  0.00  0.00     0.121 A 
ATOM     15  N   UNL d   1      33.240  18.580 -22.095  0.00  0.00    -0.241 NA
ATOM     16  C   UNL d   1      33.174  18.127 -22.792  0.00  0.00     0.099 A 
ATOM     17  C   UNL d   1      32.933  18.490 -23.495  0.00  0.00     0.021 A 
ATOM     18  C   UNL d   1      32.758  19.301 -23.509  0.00  0.00     0.003 A 
ATOM     19  C   UNL d   1      32.827  19.740 -22.813  0.00  0.00     0.022 A 
ENDBRANCH  12  14
ENDBRANCH  11  12
ENDBRANCH   1  11
TORSDOF 5
ENDMDL
