MODEL 1
REMARK VINA RESULT:      28.2      0.000      0.000
REMARK  7 active torsions:
REMARK  status: ('A' for Active; 'I' for Inactive)
REMARK    1  A    between atoms: C_4  and  C_1 
REMARK    2  A    between atoms: C_6  and  C_3 
REMARK       I    between atoms: N_13  and  C_6 
REMARK    3  A    between atoms: O_18  and  C_8 
REMARK    4  A    between atoms: O_19  and  C_10 
REMARK    5  A    between atoms: C_20  and  N_13 
REMARK    6  A    between atoms: C_15  and  C_22 
REMARK    7  A    between atoms: C_22  and  C_20 
ROOT
ATOM      1  C   UNL d   1      45.352 -18.091  40.347  0.00  0.00     0.302 C 
ATOM      2  O   UNL d   1      44.639 -17.756  40.584  0.00  0.00    -0.263 OA
ATOM      3  N   UNL d   1      45.642 -17.936  39.595  0.00  0.00    -0.205 NA
ENDROOT
BRANCH   1   4
ATOM      4  C   UNL d   1      45.771 -18.580  40.862  0.00  0.00     0.158 A 
ATOM      5  O   UNL d   1      45.733 -18.566  41.684  0.00  0.00    -0.302 OA
ATOM      6  C   UNL d   1      46.242 -19.149  41.970  0.00  0.00     0.101 A 
ATOM      7  C   UNL d   1      46.598 -19.526  41.322  0.00  0.00     0.027 A 
ATOM      8  C   UNL d   1      46.303 -19.170  40.633  0.00  0.00     0.032 A 
BRANCH   6   9
ATOM      9  C   UNL d   1      46.374 -19.324  42.759  0.00  0.00     0.033 A 
ATOM     10  C   UNL d   1      46.427 -18.711  43.314  0.00  0.00     0.060 A 
ATOM     11 CL   UNL d   1      46.348 -17.924  43.075  0.00  0.00    -0.082 Cl
ATOM     12  C   UNL d   1      46.560 -18.892  44.107  0.00  0.00     0.011 A 
ATOM     13  C   UNL d   1      46.640 -19.676  44.351  0.00  0.00     0.001 A 
ATOM     14  C   UNL d   1      46.588 -20.283  43.803  0.00  0.00     0.000 A 
ATOM     15  C   UNL d   1      46.455 -20.114  43.005  0.00  0.00     0.003 A 
ENDBRANCH   6   9
ENDBRANCH   1   4
BRANCH   3  16
ATOM     16  C   UNL d   1      45.224 -17.447  39.077  0.00  0.00     0.102 C 
BRANCH  16  17
ATOM     17  C   UNL d   1      45.616 -16.896  38.625  0.00  0.00     0.021 C 
BRANCH  17  18
ATOM     18  C   UNL d   1      45.203 -16.467  38.053  0.00  0.00     0.004 A 
ATOM     19  C   UNL d   1      45.588 -15.873  37.622  0.00  0.00     0.026 A 
ATOM     20  C   UNL d   1      45.181 -15.448  37.055  0.00  0.00     0.116 A 
ATOM     21  C   UNL d   1      44.380 -15.615  36.913  0.00  0.00     0.116 A 
ATOM     22  C   UNL d   1      43.998 -16.207  37.342  0.00  0.00     0.026 A 
ATOM     23  C   UNL d   1      44.410 -16.632  37.911  0.00  0.00     0.002 A 
BRANCH  20  24
ATOM     24  O   UNL d   1      45.569 -14.858  36.630  0.00  0.00    -0.326 OA
ATOM     25  C   UNL d   1      46.380 -14.725  36.760  0.00  0.00     0.181 C 
ENDBRANCH  20  24
BRANCH  21  26
ATOM     26  O   UNL d   1      43.969 -15.178  36.332  0.00  0.00    -0.326 OA
ATOM     27  C   UNL d   1      43.147 -15.199  36.331  0.00  0.00     0.181 C 
ENDBRANCH  21  26
ENDBRANCH  17  18
ENDBRANCH  16  17
ENDBRANCH   3  16
TORSDOF 7
ENDMDL
