MODEL 1
REMARK VINA RESULT:      56.7      0.000      0.000
REMARK  7 active torsions:
REMARK  status: ('A' for Active; 'I' for Inactive)
REMARK    1  A    between atoms: S_10  and  C_9 
REMARK    2  A    between atoms: C_15  and  S_10 
REMARK    3  A    between atoms: C_11  and  C_15 
REMARK       I    between atoms: N_16  and  C_11 
REMARK    4  A    between atoms: C_24  and  N_16 
REMARK    5  A    between atoms: C_21  and  C_24 
REMARK    6  A    between atoms: C_25  and  C_21 
REMARK    7  A    between atoms: O_23  and  C_25 
ROOT
ATOM      1  C   UNL d   1      58.727  49.705  50.757  0.00  0.00     0.004 A 
ATOM      2  C   UNL d   1      58.487  49.706  49.976  0.00  0.00     0.000 A 
ATOM      3  C   UNL d   1      58.176  49.705  51.374  0.00  0.00     0.039 A 
ATOM      4  C   UNL d   1      57.373  49.705  51.223  0.00  0.00     0.196 A 
ATOM      5  C   UNL d   1      57.672  49.706  49.814  0.00  0.00     0.003 A 
ATOM      6  C   UNL d   1      57.106  49.705  50.447  0.00  0.00     0.039 A 
ATOM      7  C   UNL d   1      59.543  49.705  50.920  0.00  0.00     0.006 A 
ATOM      8  C   UNL d   1      59.039  49.706  49.360  0.00  0.00     0.001 A 
ATOM      9  C   UNL d   1      60.094  49.706  50.304  0.00  0.00     0.030 A 
ATOM     10  O   UNL d   1      56.819  49.705  51.843  0.00  0.00    -0.287 OA
ATOM     11  C   UNL d   1      59.826  49.706  49.528  0.00  0.00     0.006 A 
ATOM     12  C   UNL d   1      58.429  49.705  52.167  0.00  0.00     0.003 A 
ATOM     13  C   UNL d   1      57.420  49.706  49.022  0.00  0.00     0.000 A 
ATOM     14  C   UNL d   1      56.306  49.705  50.269  0.00  0.00     0.003 A 
ATOM     15  C   UNL d   1      59.796  49.705  51.712  0.00  0.00     0.001 A 
ATOM     16  C   UNL d   1      59.287  49.705  52.330  0.00  0.00     0.000 A 
ATOM     17  C   UNL d   1      56.034  49.706  49.489  0.00  0.00     0.000 A 
ATOM     18  C   UNL d   1      56.622  49.706  48.831  0.00  0.00     0.000 A 
ENDROOT
BRANCH   9  19
ATOM     19  S   UNL d   1      60.917  49.706  50.458  0.00  0.00    -0.081 SA
BRANCH  19  20
ATOM     20  C   UNL d   1      61.436  49.318  49.940  0.00  0.00     0.098 C 
BRANCH  20  21
ATOM     21  C   UNL d   1      61.785  48.633  50.146  0.00  0.00     0.286 C 
ATOM     22  O   UNL d   1      62.466  48.638  50.604  0.00  0.00    -0.265 OA
ATOM     23  N   UNL d   1      61.470  47.915  49.904  0.00  0.00    -0.206 NA
BRANCH  23  24
ATOM     24  C   UNL d   1      61.820  47.191  50.108  0.00  0.00     0.104 C 
BRANCH  24  25
ATOM     25  C   UNL d   1      61.348  46.590  50.389  0.00  0.00     0.047 C 
BRANCH  25  26
ATOM     26  C   UNL d   1      61.282  45.902  49.947  0.00  0.00     0.118 C 
BRANCH  26  27
ATOM     27  O   UNL d   1      61.607  45.846  49.213  0.00  0.00    -0.326 OA
ATOM     28  C   UNL d   1      62.216  45.319  49.058  0.00  0.00     0.181 C 
ENDBRANCH  26  27
ENDBRANCH  25  26
ENDBRANCH  24  25
ENDBRANCH  23  24
ENDBRANCH  20  21
ENDBRANCH  19  20
ENDBRANCH   9  19
TORSDOF 7
ENDMDL
