MODEL 1
REMARK VINA RESULT:      49.4      0.000      0.000
REMARK  6 active torsions:
REMARK  status: ('A' for Active; 'I' for Inactive)
REMARK       I    between atoms: C_3  and  N_1 
REMARK    1  A    between atoms: C_5  and  N_1 
REMARK    2  A    between atoms: C_2  and  C_3 
REMARK    3  A    between atoms: N_9  and  C_5 
REMARK    4  A    between atoms: C_13  and  N_9 
REMARK    5  A    between atoms: C_11  and  C_13 
REMARK    6  A    between atoms: C_15  and  C_11 
ROOT
ATOM      1  C   UNL d   1      61.224  48.500  50.566  0.00  0.00     0.224 C 
ATOM      2  S   UNL d   1      61.436  48.475  51.367  0.00  0.00    -0.037 SA
ENDROOT
BRANCH   1   3
ATOM      3  N   UNL d   1      61.446  47.885  50.063  0.00  0.00    -0.177 NA
ATOM      4  C   UNL d   1      61.422  47.100  50.338  0.00  0.00     0.304 C 
ATOM      5  O   UNL d   1      61.180  46.939  51.100  0.00  0.00    -0.263 OA
BRANCH   4   6
ATOM      6  C   UNL d   1      61.644  46.486  49.835  0.00  0.00     0.158 A 
ATOM      7  O   UNL d   1      62.416  46.249  49.667  0.00  0.00    -0.296 OA
ATOM      8  C   UNL d   1      62.390  45.623  49.145  0.00  0.00     0.134 A 
ATOM      9 BR   UNL d   1      63.033  45.219  48.833  0.00  0.00    -0.022 Br
ATOM     10  C   UNL d   1      61.598  45.464  48.984  0.00  0.00     0.034 A 
ATOM     11  C   UNL d   1      61.131  46.003  49.415  0.00  0.00     0.032 A 
ENDBRANCH   4   6
ENDBRANCH   1   3
BRANCH   1  12
ATOM     12  N   UNL d   1      60.793  49.141  50.280  0.00  0.00    -0.212 NA
BRANCH  12  13
ATOM     13  C   UNL d   1      60.514  49.703  50.802  0.00  0.00     0.143 C 
BRANCH  13  14
ATOM     14  C   UNL d   1      59.789  49.586  51.175  0.00  0.00     0.215 C 
ATOM     15  O   UNL d   1      59.746  49.429  51.979  0.00  0.00    -0.285 OA
BRANCH  14  16
ATOM     16  C   UNL d   1      59.085  49.626  50.739  0.00  0.00     0.041 A 
ATOM     17  C   UNL d   1      58.362  49.662  51.138  0.00  0.00     0.003 A 
ATOM     18  C   UNL d   1      57.656  49.702  50.712  0.00  0.00     0.000 A 
ATOM     19  C   UNL d   1      57.674  49.707  49.882  0.00  0.00     0.000 A 
ATOM     20  C   UNL d   1      58.398  49.671  49.482  0.00  0.00     0.000 A 
ATOM     21  C   UNL d   1      59.104  49.631  49.915  0.00  0.00     0.003 A 
ENDBRANCH  14  16
ENDBRANCH  13  14
ENDBRANCH  12  13
ENDBRANCH   1  12
TORSDOF 6
ENDMDL
