MODEL 1
REMARK VINA RESULT:      44.3      0.000      0.000
REMARK  5 active torsions:
REMARK  status: ('A' for Active; 'I' for Inactive)
REMARK    1  A    between atoms: C_5  and  C_1 
REMARK    2  A    between atoms: C_9  and  N_2 
REMARK    3  A    between atoms: N_8  and  C_5 
REMARK    4  A    between atoms: N_6  and  C_10 
REMARK    5  A    between atoms: C_18  and  N_8 
ROOT
ATOM      1  C   UNL d   1     -54.790-102.148 -40.736  0.00  0.00     0.067 A 
ATOM      2  N   UNL d   1     -54.765-101.693 -42.031  0.00  0.00    -0.230 N 
ATOM      3  C   UNL d   1     -54.812-101.447 -41.215  0.00  0.00     0.087 A 
ATOM      4  N   UNL d   1     -54.714-102.544 -42.051  0.00  0.00    -0.164 NA
ATOM      5  C   UNL d   1     -54.730-102.823 -41.250  0.00  0.00     0.124 A 
ATOM      6  C   UNL d   1     -54.868-100.675 -40.949  0.00  0.00     0.021 C 
ENDROOT
BRANCH   1   7
ATOM      7  C   UNL d   1     -54.822-102.167 -39.912  0.00  0.00     0.139 C 
ATOM      8  S   UNL d   1     -54.744-102.876 -39.518  0.00  0.00    -0.057 SA
BRANCH   7   9
ATOM      9  N   UNL d   1     -54.931-101.476 -39.493  0.00  0.00    -0.235 NA
BRANCH   9  10
ATOM     10  C   UNL d   1     -54.867-101.481 -38.684  0.00  0.00     0.082 A 
ATOM     11  C   UNL d   1     -54.884-102.188 -38.272  0.00  0.00     0.019 A 
ATOM     12  C   UNL d   1     -54.820-102.187 -37.472  0.00  0.00     0.002 A 
ATOM     13  C   UNL d   1     -54.737-101.478 -37.058  0.00  0.00     0.000 A 
ATOM     14  C   UNL d   1     -54.719-100.775 -37.462  0.00  0.00     0.002 A 
ATOM     15  C   UNL d   1     -54.784-100.772 -38.278  0.00  0.00     0.019 A 
ENDBRANCH   9  10
ENDBRANCH   7   9
ENDBRANCH   1   7
BRANCH   2  16
ATOM     16  C   UNL d   1     -54.768-101.201 -42.694  0.00  0.00     0.083 A 
ATOM     17  C   UNL d   1     -54.819-101.540 -43.450  0.00  0.00     0.021 A 
ATOM     18  C   UNL d   1     -54.822-101.054 -44.118  0.00  0.00     0.025 A 
ATOM     19  C   UNL d   1     -54.774-100.230 -44.030  0.00  0.00     0.127 A 
ATOM     20  C   UNL d   1     -54.723 -99.892 -43.274  0.00  0.00     0.025 A 
ATOM     21  C   UNL d   1     -54.720-100.384 -42.611  0.00  0.00     0.021 A 
BRANCH  19  22
ATOM     22  N   UNL d   1     -54.777 -99.745 -44.698  0.00  0.00    -0.114 N 
ATOM     23  O   UNL d   1     -54.722-100.073 -45.452  0.00  0.00    -0.532 OA
ATOM     24  O   UNL d   1     -54.836 -98.923 -44.617  0.00  0.00    -0.532 OA
ENDBRANCH  19  22
ENDBRANCH   2  16
TORSDOF 5
ENDMDL
MODEL 2
REMARK VINA RESULT:      45.5      2.590      5.160
REMARK  5 active torsions:
REMARK  status: ('A' for Active; 'I' for Inactive)
REMARK    1  A    between atoms: C_5  and  C_1 
REMARK    2  A    between atoms: C_9  and  N_2 
REMARK    3  A    between atoms: N_8  and  C_5 
REMARK    4  A    between atoms: N_6  and  C_10 
REMARK    5  A    between atoms: C_18  and  N_8 
ROOT
ATOM      1  C   UNL d   1     -54.906-101.744 -42.946  0.00  0.00     0.067 A 
ATOM      2  N   UNL d   1     -54.905-102.145 -41.633  0.00  0.00    -0.230 N 
ATOM      3  C   UNL d   1     -54.832-101.467 -42.147  0.00  0.00     0.087 A 
ATOM      4  N   UNL d   1     -55.024-102.836 -42.119  0.00  0.00    -0.164 NA
ATOM      5  C   UNL d   1     -55.024-102.586 -42.929  0.00  0.00     0.124 A 
ATOM      6  C   UNL d   1     -54.712-100.694 -41.908  0.00  0.00     0.021 C 
ENDROOT
BRANCH   1   7
ATOM      7  C   UNL d   1     -54.869-101.273 -43.623  0.00  0.00     0.139 C 
ATOM      8  S   UNL d   1     -54.777-101.619 -44.355  0.00  0.00    -0.057 SA
BRANCH   7   9
ATOM      9  N   UNL d   1     -54.925-100.462 -43.558  0.00  0.00    -0.235 NA
BRANCH   9  10
ATOM     10  C   UNL d   1     -55.256-100.032 -44.161  0.00  0.00     0.082 A 
ATOM     11  C   UNL d   1     -54.902-100.016 -44.899  0.00  0.00     0.019 A 
ATOM     12  C   UNL d   1     -55.234 -99.588 -45.493  0.00  0.00     0.002 A 
ATOM     13  C   UNL d   1     -55.930 -99.163 -45.366  0.00  0.00     0.000 A 
ATOM     14  C   UNL d   1     -56.283 -99.176 -44.637  0.00  0.00     0.002 A 
ATOM     15  C   UNL d   1     -55.948 -99.611 -44.029  0.00  0.00     0.019 A 
ENDBRANCH   9  10
ENDBRANCH   7   9
ENDBRANCH   1   7
BRANCH   2  16
ATOM     16  C   UNL d   1     -54.869-102.142 -40.809  0.00  0.00     0.083 A 
ATOM     17  C   UNL d   1     -54.875-102.865 -40.401  0.00  0.00     0.021 A 
ATOM     18  C   UNL d   1     -54.839-102.871 -39.576  0.00  0.00     0.025 A 
ATOM     19  C   UNL d   1     -54.797-102.155 -39.159  0.00  0.00     0.127 A 
ATOM     20  C   UNL d   1     -54.791-101.432 -39.567  0.00  0.00     0.025 A 
ATOM     21  C   UNL d   1     -54.827-101.435 -40.392  0.00  0.00     0.021 A 
BRANCH  19  22
ATOM     22  N   UNL d   1     -54.761-102.161 -38.333  0.00  0.00    -0.114 N 
ATOM     23  O   UNL d   1     -54.714-102.875 -37.924  0.00  0.00    -0.532 OA
ATOM     24  O   UNL d   1     -54.772-101.450 -37.910  0.00  0.00    -0.532 OA
ENDBRANCH  19  22
ENDBRANCH   2  16
TORSDOF 5
ENDMDL
