MODEL 1
REMARK VINA RESULT:       7.0      0.000      0.000
REMARK  1 active torsions:
REMARK  status: ('A' for Active; 'I' for Inactive)
REMARK       I    between atoms: N_4  and  C_1 
REMARK    1  A    between atoms: C_9  and  N_4 
ROOT
ATOM      1  C   UNL d   1     -52.636  24.581  33.367  0.00  0.00     0.121 A 
ATOM      2  C   UNL d   1     -52.397  25.369  33.351  0.00  0.00     0.046 A 
ATOM      3  C   UNL d   1     -52.071  23.982  33.353  0.00  0.00     0.119 A 
ATOM      4  O   UNL d   1     -53.378  24.227  33.395  0.00  0.00    -0.299 OA
ATOM      5  O   UNL d   1     -52.468  23.255  33.373  0.00  0.00    -0.300 OA
ATOM      6  C   UNL d   1     -51.587  25.560  33.322  0.00  0.00     0.102 A 
ATOM      7  C   UNL d   1     -53.269  23.405  33.399  0.00  0.00     0.304 A 
ATOM      8  C   UNL d   1     -51.268  24.171  33.324  0.00  0.00     0.028 A 
ATOM      9  C   UNL d   1     -51.022  24.961  33.308  0.00  0.00     0.022 A 
ENDROOT
BRANCH   6  10
ATOM     10  N   UNL d   1     -51.347  26.361  33.306  0.00  0.00    -0.056 NA
ATOM     11  C   UNL d   1     -50.541  26.558  33.343  0.00  0.00     0.787 C 
ATOM     12  N   UNL d   1     -50.308  27.347  33.327  0.00  0.00     0.064 N 
ATOM     13  N   UNL d   1     -49.972  25.964  33.394  0.00  0.00     0.064 N 
ENDBRANCH   6  10
TORSDOF 1
ENDMDL
