MODEL 1
REMARK VINA RESULT:      -5.8      0.000      0.000
REMARK  1 active torsions:
REMARK  status: ('A' for Active; 'I' for Inactive)
REMARK    1  A    between atoms: C_7  and  C_3 
ROOT
ATOM      1  C   UNL d   1     -41.359-123.373 -51.667  0.00  0.00     0.179 A 
ATOM      2  N   UNL d   1     -41.497-123.451 -52.460  0.00  0.00    -0.221 NA
ATOM      3  C   UNL d   1     -41.528-122.700 -52.803  0.00  0.00     0.101 A 
ATOM      4  N   UNL d   1     -41.303-122.576 -51.508  0.00  0.00    -0.282 N 
ATOM      5  C   UNL d   1     -41.409-122.173 -52.215  0.00  0.00     0.101 A 
ATOM      6  S   UNL d   1     -41.249-123.768 -50.945  0.00  0.00    -0.048 SA
ATOM      7  C   UNL d   1     -41.160-122.482 -50.692  0.00  0.00     0.089 A 
ATOM      8  C   UNL d   1     -41.125-123.200 -50.336  0.00  0.00     0.057 A 
ENDROOT
BRANCH   3   9
ATOM      9  C   UNL d   1     -41.655-122.486 -53.591  0.00  0.00     0.019 A 
ATOM     10  C   UNL d   1     -42.235-121.942 -53.795  0.00  0.00     0.002 A 
ATOM     11  C   UNL d   1     -42.364-121.726 -54.586  0.00  0.00     0.011 A 
ATOM     12  C   UNL d   1     -41.917-122.051 -55.164  0.00  0.00     0.058 A 
ATOM     13  C   UNL d   1     -41.312-122.616 -54.974  0.00  0.00     0.011 A 
ATOM     14 CL   UNL d   1     -42.048-121.831 -55.969  0.00  0.00    -0.082 Cl
ATOM     15  C   UNL d   1     -41.191-122.825 -54.183  0.00  0.00     0.002 A 
ENDBRANCH   3   9
TORSDOF 1
ENDMDL
MODEL 2
REMARK VINA RESULT:      -5.2      2.182      3.696
REMARK  1 active torsions:
REMARK  status: ('A' for Active; 'I' for Inactive)
REMARK    1  A    between atoms: C_7  and  C_3 
ROOT
ATOM      1  C   UNL d   1     -41.870-122.200 -54.006  0.00  0.00     0.179 A 
ATOM      2  N   UNL d   1     -41.967-122.103 -53.209  0.00  0.00    -0.221 NA
ATOM      3  C   UNL d   1     -41.499-122.655 -52.811  0.00  0.00     0.101 A 
ATOM      4  N   UNL d   1     -41.343-122.812 -54.113  0.00  0.00    -0.282 N 
ATOM      5  C   UNL d   1     -41.123-123.084 -53.371  0.00  0.00     0.101 A 
ATOM      6  S   UNL d   1     -42.085-121.936 -54.763  0.00  0.00    -0.048 SA
ATOM      7  C   UNL d   1     -41.235-122.923 -54.932  0.00  0.00     0.089 A 
ATOM      8  C   UNL d   1     -41.681-122.396 -55.341  0.00  0.00     0.057 A 
ENDROOT
BRANCH   3   9
ATOM      9  C   UNL d   1     -41.405-122.780 -52.000  0.00  0.00     0.019 A 
ATOM     10  C   UNL d   1     -41.452-123.533 -51.677  0.00  0.00     0.002 A 
ATOM     11  C   UNL d   1     -41.358-123.660 -50.862  0.00  0.00     0.011 A 
ATOM     12  C   UNL d   1     -41.219-123.039 -50.378  0.00  0.00     0.058 A 
ATOM     13  C   UNL d   1     -41.167-122.251 -50.691  0.00  0.00     0.011 A 
ATOM     14 CL   UNL d   1     -41.124-123.167 -49.549  0.00  0.00    -0.082 Cl
ATOM     15  C   UNL d   1     -41.262-122.135 -51.505  0.00  0.00     0.002 A 
ENDBRANCH   3   9
TORSDOF 1
ENDMDL
MODEL 3
REMARK VINA RESULT:      -4.7      2.581      4.384
REMARK  1 active torsions:
REMARK  status: ('A' for Active; 'I' for Inactive)
REMARK    1  A    between atoms: C_7  and  C_3 
ROOT
ATOM      1  C   UNL d   1     -41.344-123.300 -51.919  0.00  0.00     0.179 A 
ATOM      2  N   UNL d   1     -41.479-123.617 -51.188  0.00  0.00    -0.221 NA
ATOM      3  C   UNL d   1     -41.656-123.009 -50.658  0.00  0.00     0.101 A 
ATOM      4  N   UNL d   1     -41.434-122.493 -51.853  0.00  0.00    -0.282 N 
ATOM      5  C   UNL d   1     -41.626-122.326 -51.073  0.00  0.00     0.101 A 
ATOM      6  S   UNL d   1     -41.150-123.454 -52.711  0.00  0.00    -0.048 SA
ATOM      7  C   UNL d   1     -41.297-122.153 -52.602  0.00  0.00     0.089 A 
ATOM      8  C   UNL d   1     -41.123-122.726 -53.135  0.00  0.00     0.057 A 
ENDROOT
BRANCH   3   9
ATOM      9  C   UNL d   1     -41.834-123.047 -49.853  0.00  0.00     0.019 A 
ATOM     10  C   UNL d   1     -41.254-123.214 -49.296  0.00  0.00     0.002 A 
ATOM     11  C   UNL d   1     -41.432-123.253 -48.486  0.00  0.00     0.011 A 
ATOM     12  C   UNL d   1     -42.182-123.125 -48.238  0.00  0.00     0.058 A 
ATOM     13  C   UNL d   1     -42.797-122.950 -48.798  0.00  0.00     0.011 A 
ATOM     14 CL   UNL d   1     -42.363-123.164 -47.414  0.00  0.00    -0.082 Cl
ATOM     15  C   UNL d   1     -42.609-122.914 -49.602  0.00  0.00     0.002 A 
ENDBRANCH   3   9
TORSDOF 1
ENDMDL
MODEL 4
REMARK VINA RESULT:      -4.6      1.595      2.274
REMARK  1 active torsions:
REMARK  status: ('A' for Active; 'I' for Inactive)
REMARK    1  A    between atoms: C_7  and  C_3 
ROOT
ATOM      1  C   UNL d   1     -42.221-123.106 -49.550  0.00  0.00     0.179 A 
ATOM      2  N   UNL d   1     -42.363-122.964 -50.333  0.00  0.00    -0.221 NA
ATOM      3  C   UNL d   1     -41.677-123.123 -50.765  0.00  0.00     0.101 A 
ATOM      4  N   UNL d   1     -41.448-123.355 -49.485  0.00  0.00    -0.282 N 
ATOM      5  C   UNL d   1     -41.124-123.361 -50.239  0.00  0.00     0.101 A 
ATOM      6  S   UNL d   1     -42.536-123.104 -48.782  0.00  0.00    -0.048 SA
ATOM      7  C   UNL d   1     -41.288-123.505 -48.681  0.00  0.00     0.089 A 
ATOM      8  C   UNL d   1     -41.942-123.356 -48.240  0.00  0.00     0.057 A 
ENDROOT
BRANCH   3   9
ATOM      9  C   UNL d   1     -41.540-123.065 -51.577  0.00  0.00     0.019 A 
ATOM     10  C   UNL d   1     -41.476-122.333 -51.946  0.00  0.00     0.002 A 
ATOM     11  C   UNL d   1     -41.339-122.273 -52.762  0.00  0.00     0.011 A 
ATOM     12  C   UNL d   1     -41.266-122.936 -53.203  0.00  0.00     0.058 A 
ATOM     13  C   UNL d   1     -41.329-123.703 -52.841  0.00  0.00     0.011 A 
ATOM     14 CL   UNL d   1     -41.126-122.875 -54.033  0.00  0.00    -0.082 Cl
ATOM     15  C   UNL d   1     -41.466-123.753 -52.027  0.00  0.00     0.002 A 
ENDBRANCH   3   9
TORSDOF 1
ENDMDL
