MODEL 1
REMARK VINA RESULT:      -4.4      0.000      0.000
REMARK  5 active torsions:
REMARK  status: ('A' for Active; 'I' for Inactive)
REMARK    1  A    between atoms: C_2  and  C_3 
REMARK    2  A    between atoms: N_4  and  C_2 
REMARK    3  A    between atoms: C_10  and  N_4 
REMARK    4  A    between atoms: O_16  and  C_11 
REMARK    5  A    between atoms: C_19  and  O_16 
ROOT
ATOM      1  C   UNL d   1      57.502  -0.074  30.772  0.00  0.00     0.153 C 
ATOM      2  S   UNL d   1      57.166   0.682  30.734  0.00  0.00    -0.056 SA
ENDROOT
BRANCH   1   3
ATOM      3  C   UNL d   1      58.180  -0.239  30.333  0.00  0.00     0.109 A 
ATOM      4  N   UNL d   1      58.874   0.202  30.456  0.00  0.00    -0.243 NA
ATOM      5  C   UNL d   1      59.552   0.037  30.016  0.00  0.00     0.081 A 
ATOM      6  C   UNL d   1      59.544  -0.567  29.453  0.00  0.00     0.018 A 
ATOM      7  C   UNL d   1      60.238   0.476  30.141  0.00  0.00     0.019 A 
ATOM      8  C   UNL d   1      58.857  -1.013  29.322  0.00  0.00     0.003 A 
ATOM      9  C   UNL d   1      60.221  -0.731  29.014  0.00  0.00     0.002 A 
ATOM     10  C   UNL d   1      58.171  -0.849  29.763  0.00  0.00     0.021 A 
ATOM     11  C   UNL d   1      60.908  -0.292  29.138  0.00  0.00     0.000 A 
ATOM     12  C   UNL d   1      60.917   0.312  29.702  0.00  0.00     0.002 A 
ENDBRANCH   1   3
BRANCH   1  13
ATOM     13  N   UNL d   1      57.162  -0.661  31.244  0.00  0.00    -0.233 NA
BRANCH  13  14
ATOM     14  C   UNL d   1      56.680  -0.449  31.884  0.00  0.00     0.083 A 
ATOM     15  C   UNL d   1      56.393  -1.036  32.389  0.00  0.00     0.021 A 
ATOM     16  C   UNL d   1      55.913  -0.818  33.024  0.00  0.00     0.026 A 
ATOM     17  C   UNL d   1      55.723  -0.026  33.152  0.00  0.00     0.100 A 
ATOM     18  C   UNL d   1      56.016   0.556  32.639  0.00  0.00     0.026 A 
ATOM     19  C   UNL d   1      56.495   0.345  32.005  0.00  0.00     0.021 A 
BRANCH  17  20
ATOM     20  O   UNL d   1      55.239   0.188  33.793  0.00  0.00    -0.305 OA
BRANCH  20  21
ATOM     21  C   UNL d   1      55.566   0.585  34.440  0.00  0.00     0.123 C 
ATOM     22  C   UNL d   1      55.124   0.681  35.127  0.00  0.00     0.029 C 
ENDBRANCH  20  21
ENDBRANCH  17  20
ENDBRANCH  13  14
ENDBRANCH   1  13
TORSDOF 5
ENDMDL
MODEL 2
REMARK VINA RESULT:      -4.4      1.847      5.214
REMARK  5 active torsions:
REMARK  status: ('A' for Active; 'I' for Inactive)
REMARK    1  A    between atoms: C_2  and  C_3 
REMARK    2  A    between atoms: N_4  and  C_2 
REMARK    3  A    between atoms: C_10  and  N_4 
REMARK    4  A    between atoms: O_16  and  C_11 
REMARK    5  A    between atoms: C_19  and  O_16 
ROOT
ATOM      1  C   UNL d   1      57.372   0.415  32.066  0.00  0.00     0.153 C 
ATOM      2  S   UNL d   1      58.156   0.681  32.069  0.00  0.00    -0.056 SA
ENDROOT
BRANCH   1   3
ATOM      3  C   UNL d   1      56.920   0.482  32.753  0.00  0.00     0.109 A 
ATOM      4  N   UNL d   1      56.090   0.460  32.710  0.00  0.00    -0.243 NA
ATOM      5  C   UNL d   1      55.638   0.526  33.397  0.00  0.00     0.081 A 
ATOM      6  C   UNL d   1      56.009   0.615  34.129  0.00  0.00     0.018 A 
ATOM      7  C   UNL d   1      54.816   0.504  33.351  0.00  0.00     0.019 A 
ATOM      8  C   UNL d   1      56.836   0.639  34.183  0.00  0.00     0.003 A 
ATOM      9  C   UNL d   1      55.558   0.682  34.816  0.00  0.00     0.002 A 
ATOM     10  C   UNL d   1      57.295   0.572  33.494  0.00  0.00     0.021 A 
ATOM     11  C   UNL d   1      54.735   0.659  34.770  0.00  0.00     0.000 A 
ATOM     12  C   UNL d   1      54.364   0.570  34.037  0.00  0.00     0.002 A 
ENDBRANCH   1   3
BRANCH   1  13
ATOM     13  N   UNL d   1      57.042   0.086  31.384  0.00  0.00    -0.233 NA
BRANCH  13  14
ATOM     14  C   UNL d   1      57.535  -0.172  30.771  0.00  0.00     0.083 A 
ATOM     15  C   UNL d   1      57.850   0.379  30.242  0.00  0.00     0.021 A 
ATOM     16  C   UNL d   1      58.339   0.116  29.633  0.00  0.00     0.026 A 
ATOM     17  C   UNL d   1      58.513  -0.687  29.552  0.00  0.00     0.100 A 
ATOM     18  C   UNL d   1      58.191  -1.233  30.089  0.00  0.00     0.026 A 
ATOM     19  C   UNL d   1      57.703  -0.976  30.697  0.00  0.00     0.021 A 
BRANCH  17  20
ATOM     20  O   UNL d   1      59.007  -0.947  28.937  0.00  0.00    -0.305 OA
BRANCH  20  21
ATOM     21  C   UNL d   1      59.333  -1.705  28.966  0.00  0.00     0.123 C 
ATOM     22  C   UNL d   1      59.946  -1.906  28.455  0.00  0.00     0.029 C 
ENDBRANCH  20  21
ENDBRANCH  17  20
ENDBRANCH  13  14
ENDBRANCH   1  13
TORSDOF 5
ENDMDL
MODEL 3
REMARK VINA RESULT:      -3.4      1.236      1.599
REMARK  5 active torsions:
REMARK  status: ('A' for Active; 'I' for Inactive)
REMARK    1  A    between atoms: C_2  and  C_3 
REMARK    2  A    between atoms: N_4  and  C_2 
REMARK    3  A    between atoms: C_10  and  N_4 
REMARK    4  A    between atoms: O_16  and  C_11 
REMARK    5  A    between atoms: C_19  and  O_16 
ROOT
ATOM      1  C   UNL d   1      57.094  -0.285  31.490  0.00  0.00     0.153 C 
ATOM      2  S   UNL d   1      56.653  -0.932  31.761  0.00  0.00    -0.056 SA
ENDROOT
BRANCH   1   3
ATOM      3  C   UNL d   1      57.564  -0.369  30.817  0.00  0.00     0.109 A 
ATOM      4  N   UNL d   1      57.880  -1.111  30.619  0.00  0.00    -0.243 NA
ATOM      5  C   UNL d   1      58.350  -1.195  29.946  0.00  0.00     0.081 A 
ATOM      6  C   UNL d   1      58.507  -0.540  29.467  0.00  0.00     0.018 A 
ATOM      7  C   UNL d   1      58.663  -1.932  29.753  0.00  0.00     0.019 A 
ATOM      8  C   UNL d   1      58.196   0.205  29.656  0.00  0.00     0.003 A 
ATOM      9  C   UNL d   1      58.977  -0.623  28.795  0.00  0.00     0.002 A 
ATOM     10  C   UNL d   1      57.722   0.293  30.333  0.00  0.00     0.021 A 
ATOM     11  C   UNL d   1      59.290  -1.362  28.601  0.00  0.00     0.000 A 
ATOM     12  C   UNL d   1      59.133  -2.016  29.080  0.00  0.00     0.002 A 
ENDBRANCH   1   3
BRANCH   1  13
ATOM     13  N   UNL d   1      57.065   0.439  31.887  0.00  0.00    -0.233 NA
BRANCH  13  14
ATOM     14  C   UNL d   1      56.657   0.500  32.605  0.00  0.00     0.083 A 
ATOM     15  C   UNL d   1      57.080   0.622  33.304  0.00  0.00     0.021 A 
ATOM     16  C   UNL d   1      56.668   0.682  34.016  0.00  0.00     0.026 A 
ATOM     17  C   UNL d   1      55.846   0.621  34.031  0.00  0.00     0.100 A 
ATOM     18  C   UNL d   1      55.430   0.498  33.323  0.00  0.00     0.026 A 
ATOM     19  C   UNL d   1      55.835   0.438  32.610  0.00  0.00     0.021 A 
BRANCH  17  20
ATOM     20  O   UNL d   1      55.435   0.682  34.751  0.00  0.00    -0.305 OA
BRANCH  20  21
ATOM     21  C   UNL d   1      55.828   0.528  35.461  0.00  0.00     0.123 C 
ATOM     22  C   UNL d   1      55.405   0.512  36.167  0.00  0.00     0.029 C 
ENDBRANCH  20  21
ENDBRANCH  17  20
ENDBRANCH  13  14
ENDBRANCH   1  13
TORSDOF 5
ENDMDL
