MODEL 1
REMARK VINA RESULT:      59.7      0.000      0.000
REMARK  5 active torsions:
REMARK  status: ('A' for Active; 'I' for Inactive)
REMARK    1  A    between atoms: N_2  and  S_1 
REMARK    2  A    between atoms: C_6  and  S_1 
REMARK    3  A    between atoms: C_3  and  N_2 
REMARK    4  A    between atoms: N_4  and  C_5 
REMARK    5  A    between atoms: C_9  and  N_4 
ROOT
ATOM      1  C   UNL d   1     -50.080  27.176  33.573  0.00  0.00     0.110 A 
ATOM      2  C   UNL d   1     -50.506  26.489  33.412  0.00  0.00     0.083 A 
ATOM      3  C   UNL d   1     -50.491  27.891  33.630  0.00  0.00     0.021 A 
ATOM      4  C   UNL d   1     -51.320  26.513  33.309  0.00  0.00     0.019 A 
ATOM      5  C   UNL d   1     -51.306  27.915  33.528  0.00  0.00     0.002 A 
ATOM      6  C   UNL d   1     -51.727  27.225  33.367  0.00  0.00     0.002 A 
ENDROOT
BRANCH   1   7
ATOM      7  N   UNL d   1     -49.265  27.152  33.676  0.00  0.00    -0.157 NA
BRANCH   7   8
ATOM      8  S   UNL d   1     -48.898  27.665  34.204  0.00  0.00     0.285 S 
ATOM      9  O   UNL d   1     -48.775  27.024  34.737  0.00  0.00    -0.198 OA
ATOM     10  O   UNL d   1     -49.020  28.293  33.680  0.00  0.00    -0.198 OA
BRANCH   8  11
ATOM     11  C   UNL d   1     -48.522  28.190  34.747  0.00  0.00     0.105 A 
ATOM     12  C   UNL d   1     -48.930  28.444  35.437  0.00  0.00     0.014 A 
ATOM     13  C   UNL d   1     -48.557  28.955  35.960  0.00  0.00     0.012 A 
ATOM     14  C   UNL d   1     -47.796  29.219  35.821  0.00  0.00     0.058 A 
ATOM     15  C   UNL d   1     -47.388  28.964  35.131  0.00  0.00     0.012 A 
ATOM     16 CL   UNL d   1     -47.436  29.724  36.347  0.00  0.00    -0.082 Cl
ATOM     17  C   UNL d   1     -47.749  28.450  34.594  0.00  0.00     0.014 A 
ENDBRANCH   8  11
ENDBRANCH   7   8
ENDBRANCH   1   7
BRANCH   2  18
ATOM     18  N   UNL d   1     -50.079  25.755  33.354  0.00  0.00    -0.303 N 
ATOM     19  C   UNL d   1     -49.278  25.801  33.315  0.00  0.00     0.100 C 
BRANCH  18  20
ATOM     20  C   UNL d   1     -50.475  25.036  33.339  0.00  0.00     0.064 A 
ATOM     21  C   UNL d   1     -50.046  24.349  33.331  0.00  0.00     0.018 A 
ATOM     22  C   UNL d   1     -50.424  23.614  33.316  0.00  0.00     0.002 A 
ATOM     23  C   UNL d   1     -51.252  23.576  33.309  0.00  0.00     0.000 A 
ATOM     24  C   UNL d   1     -51.688  24.276  33.317  0.00  0.00     0.002 A 
ATOM     25  C   UNL d   1     -51.304  25.011  33.332  0.00  0.00     0.018 A 
ENDBRANCH  18  20
ENDBRANCH   2  18
TORSDOF 5
ENDMDL
