MODEL 1
REMARK VINA RESULT:      -6.3      0.000      0.000
REMARK  2 active torsions:
REMARK  status: ('A' for Active; 'I' for Inactive)
REMARK    1  A    between atoms: C_6  and  C_2 
REMARK    2  A    between atoms: C_7  and  C_3 
ROOT
ATOM      1  N   UNL d   1     -41.823-122.848 -52.282  0.00  0.00    -0.238 NA
ATOM      2  C   UNL d   1     -41.574-122.325 -52.851  0.00  0.00     0.112 A 
ATOM      3  C   UNL d   1     -41.545-122.579 -51.551  0.00  0.00     0.088 A 
ATOM      4  S   UNL d   1     -41.139-121.725 -52.491  0.00  0.00    -0.066 SA
ATOM      5  C   UNL d   1     -41.122-121.886 -51.677  0.00  0.00     0.056 A 
ENDROOT
BRANCH   3   6
ATOM      6  C   UNL d   1     -41.626-122.881 -50.795  0.00  0.00     0.020 A 
ATOM      7  C   UNL d   1     -42.207-122.580 -50.276  0.00  0.00     0.028 A 
ATOM      8  C   UNL d   1     -42.282-122.901 -49.495  0.00  0.00     0.123 A 
ATOM      9  O   UNL d   1     -42.852-122.605 -48.988  0.00  0.00    -0.301 OA
ATOM     10  C   UNL d   1     -41.783-123.505 -49.252  0.00  0.00     0.123 A 
ATOM     11  C   UNL d   1     -42.932-122.907 -48.234  0.00  0.00     0.149 A 
ATOM     12  C   UNL d   1     -42.437-123.514 -47.979  0.00  0.00     0.149 A 
ATOM     13  O   UNL d   1     -41.860-123.816 -48.487  0.00  0.00    -0.301 OA
ATOM     14  C   UNL d   1     -41.209-123.794 -49.782  0.00  0.00     0.027 A 
ATOM     15  C   UNL d   1     -41.126-123.490 -50.545  0.00  0.00     0.004 A 
ENDBRANCH   3   6
BRANCH   2  16
ATOM     16  C   UNL d   1     -41.690-122.317 -53.677  0.00  0.00     0.043 A 
ATOM     17  C   UNL d   1     -42.264-121.832 -54.014  0.00  0.00     0.101 A 
ATOM     18  N   UNL d   1     -42.372-121.833 -54.844  0.00  0.00    -0.242 NA
ATOM     19  C   UNL d   1     -41.897-122.323 -55.330  0.00  0.00     0.099 A 
ATOM     20  C   UNL d   1     -41.326-122.803 -54.982  0.00  0.00     0.021 A 
ATOM     21  C   UNL d   1     -41.218-122.805 -54.165  0.00  0.00     0.005 A 
ENDBRANCH   2  16
TORSDOF 2
ENDMDL
MODEL 2
REMARK VINA RESULT:      -5.2      2.133      4.807
REMARK  2 active torsions:
REMARK  status: ('A' for Active; 'I' for Inactive)
REMARK    1  A    between atoms: C_6  and  C_2 
REMARK    2  A    between atoms: C_7  and  C_3 
ROOT
ATOM      1  N   UNL d   1     -41.832-123.065 -51.344  0.00  0.00    -0.238 NA
ATOM      2  C   UNL d   1     -41.657-122.745 -50.618  0.00  0.00     0.112 A 
ATOM      3  C   UNL d   1     -41.501-122.575 -51.923  0.00  0.00     0.088 A 
ATOM      4  S   UNL d   1     -41.219-122.057 -50.727  0.00  0.00    -0.066 SA
ATOM      5  C   UNL d   1     -41.123-121.952 -51.545  0.00  0.00     0.056 A 
ENDROOT
BRANCH   3   6
ATOM      6  C   UNL d   1     -41.502-122.624 -52.739  0.00  0.00     0.020 A 
ATOM      7  C   UNL d   1     -41.881-122.040 -53.200  0.00  0.00     0.028 A 
ATOM      8  C   UNL d   1     -41.875-122.101 -54.046  0.00  0.00     0.123 A 
ATOM      9  O   UNL d   1     -42.247-121.529 -54.497  0.00  0.00    -0.301 OA
ATOM     10  C   UNL d   1     -41.497-122.733 -54.407  0.00  0.00     0.123 A 
ATOM     11  C   UNL d   1     -42.247-121.577 -55.312  0.00  0.00     0.149 A 
ATOM     12  C   UNL d   1     -41.870-122.208 -55.685  0.00  0.00     0.149 A 
ATOM     13  O   UNL d   1     -41.494-122.788 -55.235  0.00  0.00    -0.301 OA
ATOM     14  C   UNL d   1     -41.123-123.307 -53.933  0.00  0.00     0.027 A 
ATOM     15  C   UNL d   1     -41.122-123.259 -53.109  0.00  0.00     0.004 A 
ENDBRANCH   3   6
BRANCH   2  16
ATOM     16  C   UNL d   1     -41.846-123.000 -49.846  0.00  0.00     0.043 A 
ATOM     17  C   UNL d   1     -41.292-123.407 -49.393  0.00  0.00     0.101 A 
ATOM     18  N   UNL d   1     -41.493-123.657 -48.619  0.00  0.00    -0.242 NA
ATOM     19  C   UNL d   1     -42.254-123.496 -48.309  0.00  0.00     0.099 A 
ATOM     20  C   UNL d   1     -42.799-123.089 -48.772  0.00  0.00     0.021 A 
ATOM     21  C   UNL d   1     -42.604-122.841 -49.534  0.00  0.00     0.005 A 
ENDBRANCH   2  16
TORSDOF 2
ENDMDL
