MODEL 1
REMARK VINA RESULT:      -3.9      0.000      0.000
REMARK  5 active torsions:
REMARK  status: ('A' for Active; 'I' for Inactive)
REMARK    1  A    between atoms: N_3  and  C_1 
REMARK    2  A    between atoms: N_6  and  C_1 
REMARK       I    between atoms: C_2  and  N_4 
REMARK    3  A    between atoms: C_5  and  C_2 
REMARK    4  A    between atoms: C_7  and  N_3 
REMARK    5  A    between atoms: N_4  and  N_6 
ROOT
ATOM      1  N   UNL d   1      32.903  18.919 -22.542  0.00  0.00    -0.273 N 
ATOM      2  H   UNL d   1      33.240  18.472 -21.932  0.00  0.00     0.189 HD
ENDROOT
BRANCH   1   3
ATOM      3  N   UNL d   1      32.745  19.720 -22.432  0.00  0.00    -0.264 N 
ATOM      4  C   UNL d   1      32.915  20.065 -21.707  0.00  0.00     0.272 C 
ATOM      5  O   UNL d   1      33.241  19.615 -21.094  0.00  0.00    -0.266 OA
ATOM      6  H   UNL d   1      32.423  20.164 -23.036  0.00  0.00     0.190 HD
BRANCH   4   7
ATOM      7  C   UNL d   1      32.763  20.872 -21.573  0.00  0.00     0.058 A 
ATOM      8  C   UNL d   1      33.088  21.440 -22.059  0.00  0.00     0.011 A 
ATOM      9  C   UNL d   1      32.924  22.234 -21.908  0.00  0.00     0.035 A 
ATOM     10 BR   UNL d   1      33.241  22.830 -22.385  0.00  0.00    -0.049 Br
ATOM     11  C   UNL d   1      32.435  22.449 -21.268  0.00  0.00     0.007 A 
ATOM     12  C   UNL d   1      32.109  21.869 -20.780  0.00  0.00     0.001 A 
ATOM     13  C   UNL d   1      32.274  21.086 -20.934  0.00  0.00     0.005 A 
ENDBRANCH   4   7
ENDBRANCH   1   3
BRANCH   1  14
ATOM     14  C   UNL d   1      32.723  18.577 -23.259  0.00  0.00     0.191 C 
ATOM     15  S   UNL d   1      33.134  18.781 -23.934  0.00  0.00    -0.039 SA
BRANCH  14  16
ATOM     16  N   UNL d   1      32.108  18.007 -23.304  0.00  0.00    -0.331 N 
ATOM     17  H   UNL d   1      31.318  18.252 -23.263  0.00  0.00     0.168 HD
BRANCH  16  18
ATOM     18  C   UNL d   1      32.294  17.212 -23.387  0.00  0.00     0.058 A 
ATOM     19  C   UNL d   1      31.707  16.685 -23.629  0.00  0.00     0.016 A 
ATOM     20  C   UNL d   1      30.941  16.956 -23.785  0.00  0.00     0.002 C 
ATOM     21  C   UNL d   1      31.895  15.897 -23.711  0.00  0.00     0.001 A 
ATOM     22  C   UNL d   1      32.651  15.630 -23.557  0.00  0.00     0.000 A 
ATOM     23  C   UNL d   1      33.234  16.146 -23.318  0.00  0.00     0.002 A 
ATOM     24  C   UNL d   1      33.049  16.945 -23.233  0.00  0.00     0.017 A 
ENDBRANCH  16  18
ENDBRANCH  14  16
ENDBRANCH   1  14
TORSDOF 5
ENDMDL
MODEL 2
REMARK VINA RESULT:      -3.0      1.959      5.033
REMARK  5 active torsions:
REMARK  status: ('A' for Active; 'I' for Inactive)
REMARK    1  A    between atoms: N_3  and  C_1 
REMARK    2  A    between atoms: N_6  and  C_1 
REMARK       I    between atoms: C_2  and  N_4 
REMARK    3  A    between atoms: C_5  and  C_2 
REMARK    4  A    between atoms: C_7  and  N_3 
REMARK    5  A    between atoms: N_4  and  N_6 
ROOT
ATOM      1  N   UNL d   1      32.503  19.541 -22.352  0.00  0.00    -0.273 N 
ATOM      2  H   UNL d   1      31.740  19.817 -22.515  0.00  0.00     0.189 HD
ENDROOT
BRANCH   1   3
ATOM      3  N   UNL d   1      32.782  18.853 -22.709  0.00  0.00    -0.264 N 
ATOM      4  C   UNL d   1      32.346  18.512 -23.315  0.00  0.00     0.272 C 
ATOM      5  O   UNL d   1      31.635  18.854 -23.565  0.00  0.00    -0.266 OA
ATOM      6  H   UNL d   1      33.483  18.516 -22.462  0.00  0.00     0.190 HD
BRANCH   4   7
ATOM      7  C   UNL d   1      32.608  17.818 -23.689  0.00  0.00     0.058 A 
ATOM      8  C   UNL d   1      32.557  17.098 -23.309  0.00  0.00     0.011 A 
ATOM      9  C   UNL d   1      32.823  16.422 -23.700  0.00  0.00     0.035 A 
ATOM     10 BR   UNL d   1      32.783  15.680 -23.337  0.00  0.00    -0.049 Br
ATOM     11  C   UNL d   1      33.138  16.477 -24.469  0.00  0.00     0.007 A 
ATOM     12  C   UNL d   1      33.188  17.208 -24.848  0.00  0.00     0.001 A 
ATOM     13  C   UNL d   1      32.923  17.872 -24.458  0.00  0.00     0.005 A 
ENDBRANCH   4   7
ENDBRANCH   1   3
BRANCH   1  14
ATOM     14  C   UNL d   1      32.991  19.945 -21.838  0.00  0.00     0.191 C 
ATOM     15  S   UNL d   1      33.241  19.599 -21.143  0.00  0.00    -0.039 SA
BRANCH  14  16
ATOM     16  N   UNL d   1      33.237  20.725 -22.027  0.00  0.00    -0.331 N 
ATOM     17  H   UNL d   1      33.858  20.841 -22.562  0.00  0.00     0.168 HD
BRANCH  16  18
ATOM     18  C   UNL d   1      32.861  21.366 -21.681  0.00  0.00     0.058 A 
ATOM     19  C   UNL d   1      32.863  22.093 -22.071  0.00  0.00     0.016 A 
ATOM     20  C   UNL d   1      33.241  22.173 -22.803  0.00  0.00     0.002 C 
ATOM     21  C   UNL d   1      32.489  22.728 -21.724  0.00  0.00     0.001 A 
ATOM     22  C   UNL d   1      32.116  22.649 -21.002  0.00  0.00     0.000 A 
ATOM     23  C   UNL d   1      32.111  21.934 -20.612  0.00  0.00     0.002 A 
ATOM     24  C   UNL d   1      32.489  21.288 -20.959  0.00  0.00     0.017 A 
ENDBRANCH  16  18
ENDBRANCH  14  16
ENDBRANCH   1  14
TORSDOF 5
ENDMDL
MODEL 3
REMARK VINA RESULT:      -2.5      0.785      1.084
REMARK  5 active torsions:
REMARK  status: ('A' for Active; 'I' for Inactive)
REMARK    1  A    between atoms: N_3  and  C_1 
REMARK    2  A    between atoms: N_6  and  C_1 
REMARK       I    between atoms: C_2  and  N_4 
REMARK    3  A    between atoms: C_5  and  C_2 
REMARK    4  A    between atoms: C_7  and  N_3 
REMARK    5  A    between atoms: N_4  and  N_6 
ROOT
ATOM      1  N   UNL d   1      33.074  18.627 -22.886  0.00  0.00    -0.273 N 
ATOM      2  H   UNL d   1      33.436  18.127 -22.334  0.00  0.00     0.189 HD
ENDROOT
BRANCH   1   3
ATOM      3  N   UNL d   1      33.025  19.437 -22.744  0.00  0.00    -0.264 N 
ATOM      4  C   UNL d   1      33.108  19.714 -21.976  0.00  0.00     0.272 C 
ATOM      5  O   UNL d   1      33.239  19.187 -21.351  0.00  0.00    -0.266 OA
ATOM      6  H   UNL d   1      32.896  19.957 -23.359  0.00  0.00     0.190 HD
BRANCH   4   7
ATOM      7  C   UNL d   1      33.062  20.527 -21.809  0.00  0.00     0.058 A 
ATOM      8  C   UNL d   1      32.861  20.786 -21.064  0.00  0.00     0.011 A 
ATOM      9  C   UNL d   1      32.821  21.598 -20.921  0.00  0.00     0.035 A 
ATOM     10 BR   UNL d   1      32.619  21.887 -20.173  0.00  0.00    -0.049 Br
ATOM     11  C   UNL d   1      32.985  22.141 -21.531  0.00  0.00     0.007 A 
ATOM     12  C   UNL d   1      33.188  21.873 -22.284  0.00  0.00     0.001 A 
ATOM     13  C   UNL d   1      33.226  21.071 -22.419  0.00  0.00     0.005 A 
ENDBRANCH   4   7
ENDBRANCH   1   3
BRANCH   1  14
ATOM     14  C   UNL d   1      32.762  18.328 -23.576  0.00  0.00     0.191 C 
ATOM     15  S   UNL d   1      33.216  18.279 -24.252  0.00  0.00    -0.039 SA
BRANCH  14  16
ATOM     16  N   UNL d   1      31.964  18.067 -23.592  0.00  0.00    -0.331 N 
ATOM     17  H   UNL d   1      31.352  18.612 -23.475  0.00  0.00     0.168 HD
BRANCH  16  18
ATOM     18  C   UNL d   1      31.796  17.275 -23.723  0.00  0.00     0.058 A 
ATOM     19  C   UNL d   1      31.033  17.057 -23.945  0.00  0.00     0.016 A 
ATOM     20  C   UNL d   1      30.443  17.631 -24.035  0.00  0.00     0.002 C 
ATOM     21  C   UNL d   1      30.870  16.269 -24.075  0.00  0.00     0.001 A 
ATOM     22  C   UNL d   1      31.451  15.703 -23.987  0.00  0.00     0.000 A 
ATOM     23  C   UNL d   1      32.207  15.912 -23.767  0.00  0.00     0.002 A 
ATOM     24  C   UNL d   1      32.377  16.709 -23.635  0.00  0.00     0.017 A 
ENDBRANCH  16  18
ENDBRANCH  14  16
ENDBRANCH   1  14
TORSDOF 5
ENDMDL
MODEL 4
REMARK VINA RESULT:      -2.1      1.881      3.053
REMARK  5 active torsions:
REMARK  status: ('A' for Active; 'I' for Inactive)
REMARK    1  A    between atoms: N_3  and  C_1 
REMARK    2  A    between atoms: N_6  and  C_1 
REMARK       I    between atoms: C_2  and  N_4 
REMARK    3  A    between atoms: C_5  and  C_2 
REMARK    4  A    between atoms: C_7  and  N_3 
REMARK    5  A    between atoms: N_4  and  N_6 
ROOT
ATOM      1  N   UNL d   1      31.740  16.990 -23.835  0.00  0.00    -0.273 N 
ATOM      2  H   UNL d   1      32.177  16.394 -23.462  0.00  0.00     0.189 HD
ENDROOT
BRANCH   1   3
ATOM      3  N   UNL d   1      31.957  17.780 -23.749  0.00  0.00    -0.264 N 
ATOM      4  C   UNL d   1      32.537  17.979 -23.205  0.00  0.00     0.272 C 
ATOM      5  O   UNL d   1      32.902  17.394 -22.748  0.00  0.00    -0.266 OA
ATOM      6  H   UNL d   1      31.597  18.357 -24.200  0.00  0.00     0.190 HD
BRANCH   4   7
ATOM      7  C   UNL d   1      32.771  18.770 -23.102  0.00  0.00     0.058 A 
ATOM      8  C   UNL d   1      32.787  19.103 -22.359  0.00  0.00     0.011 A 
ATOM      9  C   UNL d   1      33.022  19.890 -22.280  0.00  0.00     0.035 A 
ATOM     10 BR   UNL d   1      33.047  20.252 -21.537  0.00  0.00    -0.049 Br
ATOM     11  C   UNL d   1      33.240  20.334 -22.950  0.00  0.00     0.007 A 
ATOM     12  C   UNL d   1      33.222  19.991 -23.701  0.00  0.00     0.001 A 
ATOM     13  C   UNL d   1      32.989  19.214 -23.773  0.00  0.00     0.005 A 
ENDBRANCH   4   7
ENDBRANCH   1   3
BRANCH   1  14
ATOM     14  C   UNL d   1      31.091  16.806 -24.292  0.00  0.00     0.191 C 
ATOM     15  S   UNL d   1      30.949  17.200 -24.993  0.00  0.00    -0.039 SA
BRANCH  14  16
ATOM     16  N   UNL d   1      30.564  16.204 -24.040  0.00  0.00    -0.331 N 
ATOM     17  H   UNL d   1      30.844  15.432 -23.930  0.00  0.00     0.168 HD
BRANCH  16  18
ATOM     18  C   UNL d   1      29.775  16.383 -23.904  0.00  0.00     0.058 A 
ATOM     19  C   UNL d   1      29.377  16.006 -23.287  0.00  0.00     0.016 A 
ATOM     20  C   UNL d   1      29.770  15.454 -22.813  0.00  0.00     0.002 C 
ATOM     21  C   UNL d   1      28.594  16.187 -23.155  0.00  0.00     0.001 A 
ATOM     22  C   UNL d   1      28.207  16.732 -23.623  0.00  0.00     0.000 A 
ATOM     23  C   UNL d   1      28.594  17.108 -24.233  0.00  0.00     0.002 A 
ATOM     24  C   UNL d   1      29.388  16.928 -24.372  0.00  0.00     0.017 A 
ENDBRANCH  16  18
ENDBRANCH  14  16
ENDBRANCH   1  14
TORSDOF 5
ENDMDL
