MODEL 1
REMARK VINA RESULT:      43.4      0.000      0.000
REMARK  5 active torsions:
REMARK  status: ('A' for Active; 'I' for Inactive)
REMARK    1  A    between atoms: S_8  and  C_2 
REMARK    2  A    between atoms: C_4  and  C_3 
REMARK    3  A    between atoms: C_18  and  S_8 
REMARK    4  A    between atoms: C_9  and  C_18 
REMARK       I    between atoms: N_11  and  C_9 
REMARK    5  A    between atoms: C_13  and  N_11 
ROOT
ATOM      1  C   UNL d   1     -57.675 -98.831 -44.466  0.00  0.00     0.096 A 
ATOM      2  C   UNL d   1     -56.891 -98.781 -44.800  0.00  0.00     0.120 A 
ATOM      3  C   UNL d   1     -58.338 -98.856 -44.972  0.00  0.00     0.085 A 
ATOM      4  N   UNL d   1     -56.814 -98.759 -45.620  0.00  0.00    -0.238 NA
ATOM      5  C   UNL d   1     -57.788 -98.854 -43.661  0.00  0.00     0.103 C 
ATOM      6  N   UNL d   1     -57.901 -98.878 -42.853  0.00  0.00    -0.191 NA
ATOM      7  C   UNL d   1     -58.242 -98.832 -45.799  0.00  0.00     0.024 A 
ATOM      8  C   UNL d   1     -57.458 -98.783 -46.133  0.00  0.00     0.082 A 
ATOM      9  C   UNL d   1     -57.340 -98.759 -46.927  0.00  0.00     0.021 C 
ENDROOT
BRANCH   2  10
ATOM     10  S   UNL d   1     -56.246 -98.757 -44.286  0.00  0.00    -0.062 SA
BRANCH  10  11
ATOM     11  C   UNL d   1     -55.749 -99.404 -44.206  0.00  0.00     0.099 C 
BRANCH  11  12
ATOM     12  C   UNL d   1     -55.083 -99.468 -44.693  0.00  0.00     0.281 C 
ATOM     13  N   UNL d   1     -54.716-100.186 -44.777  0.00  0.00    -0.238 NA
ATOM     14  O   UNL d   1     -54.795 -98.796 -45.093  0.00  0.00    -0.265 OA
BRANCH  13  15
ATOM     15  C   UNL d   1     -55.004-100.845 -44.380  0.00  0.00     0.088 C 
ATOM     16  C   UNL d   1     -55.298-101.515 -43.970  0.00  0.00     0.025 C 
ATOM     17  C   UNL d   1     -54.949-101.279 -45.066  0.00  0.00     0.025 C 
ATOM     18  C   UNL d   1     -55.052-100.402 -43.708  0.00  0.00     0.025 C 
ENDBRANCH  13  15
ENDBRANCH  11  12
ENDBRANCH  10  11
ENDBRANCH   2  10
BRANCH   3  19
ATOM     19  C   UNL d   1     -59.090 -98.904 -44.652  0.00  0.00     0.419 C 
ATOM     20  F   UNL d   1     -59.837 -98.951 -44.334  0.00  0.00    -0.166 F 
ATOM     21  F   UNL d   1     -58.764 -98.998 -43.900  0.00  0.00    -0.166 F 
ATOM     22  F   UNL d   1     -59.417 -98.809 -45.405  0.00  0.00    -0.166 F 
ENDBRANCH   3  19
TORSDOF 5
ENDMDL
MODEL 2
REMARK VINA RESULT:      43.8      2.267      3.781
REMARK  5 active torsions:
REMARK  status: ('A' for Active; 'I' for Inactive)
REMARK    1  A    between atoms: S_8  and  C_2 
REMARK    2  A    between atoms: C_4  and  C_3 
REMARK    3  A    between atoms: C_18  and  S_8 
REMARK    4  A    between atoms: C_9  and  C_18 
REMARK       I    between atoms: N_11  and  C_9 
REMARK    5  A    between atoms: C_13  and  N_11 
ROOT
ATOM      1  C   UNL d   1     -55.885-100.683 -44.150  0.00  0.00     0.096 A 
ATOM      2  C   UNL d   1     -56.150 -99.873 -44.178  0.00  0.00     0.120 A 
ATOM      3  C   UNL d   1     -55.225-100.918 -44.603  0.00  0.00     0.085 A 
ATOM      4  N   UNL d   1     -55.741 -99.342 -44.657  0.00  0.00    -0.238 NA
ATOM      5  C   UNL d   1     -56.266-101.234 -43.688  0.00  0.00     0.103 C 
ATOM      6  N   UNL d   1     -56.647-101.787 -43.224  0.00  0.00    -0.191 NA
ATOM      7  C   UNL d   1     -54.822-100.367 -45.083  0.00  0.00     0.024 A 
ATOM      8  C   UNL d   1     -55.088 -99.557 -45.111  0.00  0.00     0.082 A 
ATOM      9  C   UNL d   1     -54.717 -99.008 -45.565  0.00  0.00     0.021 C 
ENDROOT
BRANCH   2  10
ATOM     10  S   UNL d   1     -56.804 -99.658 -43.724  0.00  0.00    -0.062 SA
BRANCH  10  11
ATOM     11  C   UNL d   1     -57.320 -99.074 -43.981  0.00  0.00     0.099 C 
BRANCH  11  12
ATOM     12  C   UNL d   1     -57.985 -98.890 -43.523  0.00  0.00     0.281 C 
ATOM     13  N   UNL d   1     -58.699 -98.768 -43.888  0.00  0.00    -0.238 NA
ATOM     14  O   UNL d   1     -57.917 -98.832 -42.695  0.00  0.00    -0.265 OA
BRANCH  13  15
ATOM     15  C   UNL d   1     -58.761 -98.826 -44.704  0.00  0.00     0.088 C 
ATOM     16  C   UNL d   1     -58.831 -98.885 -45.538  0.00  0.00     0.025 C 
ATOM     17  C   UNL d   1     -57.949 -98.830 -44.763  0.00  0.00     0.025 C 
ATOM     18  C   UNL d   1     -59.564 -98.820 -44.630  0.00  0.00     0.025 C 
ENDBRANCH  13  15
ENDBRANCH  11  12
ENDBRANCH  10  11
ENDBRANCH   2  10
BRANCH   3  19
ATOM     19  C   UNL d   1     -54.970-101.695 -44.576  0.00  0.00     0.419 C 
ATOM     20  F   UNL d   1     -54.717-102.468 -44.550  0.00  0.00    -0.166 F 
ATOM     21  F   UNL d   1     -54.713-101.584 -43.800  0.00  0.00    -0.166 F 
ATOM     22  F   UNL d   1     -55.228-101.807 -45.354  0.00  0.00    -0.166 F 
ENDBRANCH   3  19
TORSDOF 5
ENDMDL
