MODEL 1
REMARK VINA RESULT:      -8.1      0.000      0.000
REMARK  7 active torsions:
REMARK  status: ('A' for Active; 'I' for Inactive)
REMARK       I    between atoms: N_3  and  C_1 
REMARK    1  A    between atoms: C_10  and  C_1 
REMARK    2  A    between atoms: C_2  and  C_5 
REMARK    3  A    between atoms: O_15  and  C_2 
REMARK    4  A    between atoms: C_11  and  N_3 
REMARK    5  A    between atoms: C_4  and  C_11 
REMARK       I    between atoms: N_6  and  C_4 
REMARK    6  A    between atoms: C_14  and  N_6 
REMARK    7  A    between atoms: C_20  and  O_15 
ROOT
ATOM      1  C   UNL d   1      50.372  34.274  52.613  0.00  0.00     0.299 C 
ATOM      2  N   UNL d   1      51.100  34.277  52.230  0.00  0.00    -0.207 NA
ATOM      3  O   UNL d   1      50.322  34.003  53.391  0.00  0.00    -0.263 OA
ENDROOT
BRANCH   1   4
ATOM      4  C   UNL d   1      49.698  34.535  52.229  0.00  0.00     0.165 C 
BRANCH   4   5
ATOM      5  N   UNL d   1      49.151  35.008  52.621  0.00  0.00    -0.201 NA
ATOM      6  C   UNL d   1      48.486  35.283  52.219  0.00  0.00     0.279 C 
ATOM      7  O   UNL d   1      48.403  35.050  51.388  0.00  0.00    -0.265 OA
BRANCH   6   8
ATOM      8  C   UNL d   1      47.933  35.759  52.610  0.00  0.00     0.058 A 
ATOM      9  C   UNL d   1      48.105  36.057  53.360  0.00  0.00     0.005 A 
ATOM     10  C   UNL d   1      47.556  36.529  53.747  0.00  0.00     0.000 A 
ATOM     11  C   UNL d   1      46.841  36.704  53.392  0.00  0.00     0.000 A 
ATOM     12  C   UNL d   1      46.670  36.406  52.642  0.00  0.00     0.000 A 
ATOM     13  C   UNL d   1      47.213  35.933  52.247  0.00  0.00     0.005 A 
ENDBRANCH   6   8
ENDBRANCH   4   5
ENDBRANCH   1   4
BRANCH   2  14
ATOM     14  C   UNL d   1      51.780  34.012  52.621  0.00  0.00     0.085 A 
ATOM     15  C   UNL d   1      51.940  33.208  52.656  0.00  0.00     0.019 A 
ATOM     16  C   UNL d   1      52.611  32.943  53.041  0.00  0.00     0.007 A 
ATOM     17  C   UNL d   1      53.132  33.489  53.398  0.00  0.00     0.064 A 
ATOM     18  C   UNL d   1      52.964  34.295  53.359  0.00  0.00     0.007 A 
ATOM     19  C   UNL d   1      52.288  34.560  52.971  0.00  0.00     0.019 A 
BRANCH  17  20
ATOM     20  C   UNL d   1      53.810  33.221  53.788  0.00  0.00     0.300 C 
ATOM     21  O   UNL d   1      54.313  32.677  53.423  0.00  0.00    -0.259 OA
BRANCH  20  22
ATOM     22  O   UNL d   1      53.981  33.500  54.545  0.00  0.00    -0.271 OA
BRANCH  22  23
ATOM     23  C   UNL d   1      54.641  33.216  54.954  0.00  0.00     0.126 C 
ATOM     24  C   UNL d   1      54.946  33.648  55.587  0.00  0.00     0.029 C 
ENDBRANCH  22  23
ENDBRANCH  20  22
ENDBRANCH  17  20
ENDBRANCH   2  14
TORSDOF 7
ENDMDL
MODEL 2
REMARK VINA RESULT:      -8.0      1.072      5.845
REMARK  7 active torsions:
REMARK  status: ('A' for Active; 'I' for Inactive)
REMARK       I    between atoms: N_3  and  C_1 
REMARK    1  A    between atoms: C_10  and  C_1 
REMARK    2  A    between atoms: C_2  and  C_5 
REMARK    3  A    between atoms: O_15  and  C_2 
REMARK    4  A    between atoms: C_11  and  N_3 
REMARK    5  A    between atoms: C_4  and  C_11 
REMARK       I    between atoms: N_6  and  C_4 
REMARK    6  A    between atoms: C_14  and  N_6 
REMARK    7  A    between atoms: C_20  and  O_15 
ROOT
ATOM      1  C   UNL d   1      51.516  33.085  52.948  0.00  0.00     0.299 C 
ATOM      2  N   UNL d   1      51.451  33.770  52.497  0.00  0.00    -0.207 NA
ATOM      3  O   UNL d   1      50.841  32.761  53.295  0.00  0.00    -0.263 OA
ENDROOT
BRANCH   1   4
ATOM      4  C   UNL d   1      52.242  32.725  53.056  0.00  0.00     0.165 C 
BRANCH   4   5
ATOM      5  N   UNL d   1      52.800  33.052  53.565  0.00  0.00    -0.201 NA
ATOM      6  C   UNL d   1      53.489  32.634  53.740  0.00  0.00     0.279 C 
ATOM      7  O   UNL d   1      53.583  31.856  53.368  0.00  0.00    -0.265 OA
BRANCH   6   8
ATOM      8  C   UNL d   1      54.052  32.960  54.251  0.00  0.00     0.058 A 
ATOM      9  C   UNL d   1      54.728  33.319  53.944  0.00  0.00     0.005 A 
ATOM     10  C   UNL d   1      55.285  33.642  54.452  0.00  0.00     0.000 A 
ATOM     11  C   UNL d   1      55.172  33.610  55.261  0.00  0.00     0.000 A 
ATOM     12  C   UNL d   1      54.496  33.251  55.568  0.00  0.00     0.000 A 
ATOM     13  C   UNL d   1      53.932  32.925  55.067  0.00  0.00     0.005 A 
ENDBRANCH   6   8
ENDBRANCH   4   5
ENDBRANCH   1   4
BRANCH   2  14
ATOM     14  C   UNL d   1      50.714  34.133  52.389  0.00  0.00     0.085 A 
ATOM     15  C   UNL d   1      50.366  34.132  51.646  0.00  0.00     0.019 A 
ATOM     16  C   UNL d   1      49.639  34.490  51.537  0.00  0.00     0.007 A 
ATOM     17  C   UNL d   1      49.252  34.855  52.179  0.00  0.00     0.064 A 
ATOM     18  C   UNL d   1      49.608  34.852  52.923  0.00  0.00     0.007 A 
ATOM     19  C   UNL d   1      50.340  34.491  53.031  0.00  0.00     0.019 A 
BRANCH  17  20
ATOM     20  C   UNL d   1      48.517  35.217  52.069  0.00  0.00     0.300 C 
ATOM     21  O   UNL d   1      48.060  35.038  51.406  0.00  0.00    -0.259 OA
BRANCH  20  22
ATOM     22  O   UNL d   1      48.242  35.759  52.626  0.00  0.00    -0.271 OA
BRANCH  22  23
ATOM     23  C   UNL d   1      47.546  36.183  52.488  0.00  0.00     0.126 C 
ATOM     24  C   UNL d   1      47.268  36.709  53.058  0.00  0.00     0.029 C 
ENDBRANCH  22  23
ENDBRANCH  20  22
ENDBRANCH  17  20
ENDBRANCH   2  14
TORSDOF 7
ENDMDL
MODEL 3
REMARK VINA RESULT:      -7.8      1.482      6.050
REMARK  7 active torsions:
REMARK  status: ('A' for Active; 'I' for Inactive)
REMARK       I    between atoms: N_3  and  C_1 
REMARK    1  A    between atoms: C_10  and  C_1 
REMARK    2  A    between atoms: C_2  and  C_5 
REMARK    3  A    between atoms: O_15  and  C_2 
REMARK    4  A    between atoms: C_11  and  N_3 
REMARK    5  A    between atoms: C_4  and  C_11 
REMARK       I    between atoms: N_6  and  C_4 
REMARK    6  A    between atoms: C_14  and  N_6 
REMARK    7  A    between atoms: C_20  and  O_15 
ROOT
ATOM      1  C   UNL d   1      51.229  33.564  52.915  0.00  0.00     0.299 C 
ATOM      2  N   UNL d   1      51.090  34.164  52.369  0.00  0.00    -0.207 NA
ATOM      3  O   UNL d   1      50.593  33.226  53.317  0.00  0.00    -0.263 OA
ENDROOT
BRANCH   1   4
ATOM      4  C   UNL d   1      51.989  33.302  53.061  0.00  0.00     0.165 C 
BRANCH   4   5
ATOM      5  N   UNL d   1      52.140  32.502  53.184  0.00  0.00    -0.201 NA
ATOM      6  C   UNL d   1      52.917  32.228  53.190  0.00  0.00     0.279 C 
ATOM      7  O   UNL d   1      53.543  32.815  53.064  0.00  0.00    -0.265 OA
BRANCH   6   8
ATOM      8  C   UNL d   1      53.071  31.424  53.313  0.00  0.00     0.058 A 
ATOM      9  C   UNL d   1      52.766  30.862  52.793  0.00  0.00     0.005 A 
ATOM     10  C   UNL d   1      52.919  30.065  52.916  0.00  0.00     0.000 A 
ATOM     11  C   UNL d   1      53.374  29.828  53.553  0.00  0.00     0.000 A 
ATOM     12  C   UNL d   1      53.679  30.391  54.074  0.00  0.00     0.000 A 
ATOM     13  C   UNL d   1      53.530  31.190  53.958  0.00  0.00     0.005 A 
ENDBRANCH   6   8
ENDBRANCH   4   5
ENDBRANCH   1   4
BRANCH   2  14
ATOM     14  C   UNL d   1      50.318  34.427  52.222  0.00  0.00     0.085 A 
ATOM     15  C   UNL d   1      49.963  34.262  51.502  0.00  0.00     0.019 A 
ATOM     16  C   UNL d   1      49.201  34.521  51.355  0.00  0.00     0.007 A 
ATOM     17  C   UNL d   1      48.787  34.952  51.936  0.00  0.00     0.064 A 
ATOM     18  C   UNL d   1      49.151  35.115  52.657  0.00  0.00     0.007 A 
ATOM     19  C   UNL d   1      49.917  34.853  52.804  0.00  0.00     0.019 A 
BRANCH  17  20
ATOM     20  C   UNL d   1      48.017  35.214  51.787  0.00  0.00     0.300 C 
ATOM     21  O   UNL d   1      47.585  34.903  51.156  0.00  0.00    -0.259 OA
BRANCH  20  22
ATOM     22  O   UNL d   1      47.682  35.790  52.273  0.00  0.00    -0.271 OA
BRANCH  22  23
ATOM     23  C   UNL d   1      46.909  36.050  52.139  0.00  0.00     0.126 C 
ATOM     24  C   UNL d   1      46.580  36.625  52.631  0.00  0.00     0.029 C 
ENDBRANCH  22  23
ENDBRANCH  20  22
ENDBRANCH  17  20
ENDBRANCH   2  14
TORSDOF 7
ENDMDL
