MODEL 1
REMARK VINA RESULT:      -8.1      0.000      0.000
REMARK  4 active torsions:
REMARK  status: ('A' for Active; 'I' for Inactive)
REMARK    1  A    between atoms: C_8  and  N_1 
REMARK    2  A    between atoms: C_6  and  C_3 
REMARK       I    between atoms: N_9  and  C_6 
REMARK    3  A    between atoms: C_13  and  N_9 
REMARK    4  A    between atoms: C_14  and  C_13 
ROOT
ATOM      1  N   UNL d   1      53.367  33.047  53.668  0.00  0.00    -0.276 N 
ATOM      2  C   UNL d   1      52.808  32.508  53.381  0.00  0.00     0.181 A 
ATOM      3  C   UNL d   1      53.200  31.829  53.141  0.00  0.00     0.126 A 
ATOM      4  C   UNL d   1      54.113  32.689  53.601  0.00  0.00     0.152 A 
ATOM      5  S   UNL d   1      54.010  31.936  53.275  0.00  0.00    -0.051 SA
ATOM      6  S   UNL d   1      54.838  33.029  53.824  0.00  0.00    -0.052 SA
ATOM      7  N   UNL d   1      51.993  32.636  53.344  0.00  0.00    -0.128 N 
ENDROOT
BRANCH   3   8
ATOM      8  C   UNL d   1      52.854  31.150  52.819  0.00  0.00     0.288 C 
ATOM      9  N   UNL d   1      52.872  30.440  53.239  0.00  0.00    -0.204 NA
ATOM     10  O   UNL d   1      52.490  31.177  52.080  0.00  0.00    -0.265 OA
BRANCH   9  11
ATOM     11  C   UNL d   1      53.237  30.408  53.984  0.00  0.00     0.127 C 
BRANCH  11  12
ATOM     12  C   UNL d   1      53.283  29.697  54.398  0.00  0.00     0.119 A 
ATOM     13  O   UNL d   1      53.426  28.958  54.066  0.00  0.00    -0.304 OA
ATOM     14  C   UNL d   1      53.428  28.392  54.674  0.00  0.00     0.123 A 
ATOM     15  C   UNL d   1      53.283  28.799  55.386  0.00  0.00     0.029 A 
ATOM     16  C   UNL d   1      53.194  29.601  55.215  0.00  0.00     0.028 A 
ENDBRANCH  11  12
ENDBRANCH   9  11
ENDBRANCH   3   8
BRANCH   1  17
ATOM     17  C   UNL d   1      53.218  33.804  53.968  0.00  0.00     0.067 A 
ATOM     18  C   UNL d   1      53.255  33.940  54.774  0.00  0.00     0.018 A 
ATOM     19  C   UNL d   1      53.106  34.697  55.074  0.00  0.00     0.002 A 
ATOM     20  C   UNL d   1      52.921  35.310  54.557  0.00  0.00     0.000 A 
ATOM     21  C   UNL d   1      52.883  35.167  53.733  0.00  0.00     0.002 A 
ATOM     22  C   UNL d   1      53.033  34.415  53.448  0.00  0.00     0.018 A 
ENDBRANCH   1  17
TORSDOF 4
ENDMDL
MODEL 2
REMARK VINA RESULT:      -6.3      2.739      4.386
REMARK  4 active torsions:
REMARK  status: ('A' for Active; 'I' for Inactive)
REMARK    1  A    between atoms: C_8  and  N_1 
REMARK    2  A    between atoms: C_6  and  C_3 
REMARK       I    between atoms: N_9  and  C_6 
REMARK    3  A    between atoms: C_13  and  N_9 
REMARK    4  A    between atoms: C_14  and  C_13 
ROOT
ATOM      1  N   UNL d   1      52.709  33.420  53.393  0.00  0.00    -0.276 N 
ATOM      2  C   UNL d   1      52.500  34.028  52.872  0.00  0.00     0.181 A 
ATOM      3  C   UNL d   1      51.851  33.784  52.434  0.00  0.00     0.126 A 
ATOM      4  C   UNL d   1      52.177  32.794  53.271  0.00  0.00     0.152 A 
ATOM      5  S   UNL d   1      51.647  33.019  52.677  0.00  0.00    -0.051 SA
ATOM      6  S   UNL d   1      52.179  32.068  53.674  0.00  0.00    -0.052 SA
ATOM      7  N   UNL d   1      52.883  34.756  52.807  0.00  0.00    -0.128 N 
ENDROOT
BRANCH   3   8
ATOM      8  C   UNL d   1      51.462  34.220  51.849  0.00  0.00     0.288 C 
ATOM      9  N   UNL d   1      50.726  34.556  52.008  0.00  0.00    -0.204 NA
ATOM     10  O   UNL d   1      51.805  34.321  51.106  0.00  0.00    -0.265 OA
BRANCH   9  11
ATOM     11  C   UNL d   1      50.376  34.458  52.754  0.00  0.00     0.127 C 
BRANCH  11  12
ATOM     12  C   UNL d   1      49.688  34.864  52.952  0.00  0.00     0.119 A 
ATOM     13  O   UNL d   1      49.581  35.329  53.622  0.00  0.00    -0.304 OA
ATOM     14  C   UNL d   1      48.809  35.637  53.609  0.00  0.00     0.123 A 
ATOM     15  C   UNL d   1      48.445  35.352  52.917  0.00  0.00     0.029 A 
ATOM     16  C   UNL d   1      48.985  34.877  52.514  0.00  0.00     0.028 A 
ENDBRANCH  11  12
ENDBRANCH   9  11
ENDBRANCH   3   8
BRANCH   1  17
ATOM     17  C   UNL d   1      53.331  33.427  53.939  0.00  0.00     0.067 A 
ATOM     18  C   UNL d   1      53.232  33.784  54.669  0.00  0.00     0.018 A 
ATOM     19  C   UNL d   1      53.854  33.791  55.215  0.00  0.00     0.002 A 
ATOM     20  C   UNL d   1      54.572  33.437  55.019  0.00  0.00     0.000 A 
ATOM     21  C   UNL d   1      54.668  33.072  54.272  0.00  0.00     0.002 A 
ATOM     22  C   UNL d   1      54.047  33.071  53.740  0.00  0.00     0.018 A 
ENDBRANCH   1  17
TORSDOF 4
ENDMDL
MODEL 3
REMARK VINA RESULT:      -6.3      1.750      4.342
REMARK  4 active torsions:
REMARK  status: ('A' for Active; 'I' for Inactive)
REMARK    1  A    between atoms: C_8  and  N_1 
REMARK    2  A    between atoms: C_6  and  C_3 
REMARK       I    between atoms: N_9  and  C_6 
REMARK    3  A    between atoms: C_13  and  N_9 
REMARK    4  A    between atoms: C_14  and  C_13 
ROOT
ATOM      1  N   UNL d   1      53.288  30.602  53.729  0.00  0.00    -0.276 N 
ATOM      2  C   UNL d   1      53.533  31.364  53.937  0.00  0.00     0.181 A 
ATOM      3  C   UNL d   1      53.387  31.866  53.305  0.00  0.00     0.126 A 
ATOM      4  C   UNL d   1      52.988  30.639  52.956  0.00  0.00     0.152 A 
ATOM      5  S   UNL d   1      53.050  31.421  52.694  0.00  0.00    -0.051 SA
ATOM      6  S   UNL d   1      52.680  30.002  52.522  0.00  0.00    -0.052 SA
ATOM      7  N   UNL d   1      53.867  31.581  54.661  0.00  0.00    -0.128 N 
ENDROOT
BRANCH   3   8
ATOM      8  C   UNL d   1      53.547  32.677  53.275  0.00  0.00     0.288 C 
ATOM      9  N   UNL d   1      52.930  33.215  53.177  0.00  0.00    -0.204 NA
ATOM     10  O   UNL d   1      54.321  32.953  53.342  0.00  0.00    -0.265 OA
BRANCH   9  11
ATOM     11  C   UNL d   1      52.148  32.942  53.109  0.00  0.00     0.127 C 
BRANCH  11  12
ATOM     12  C   UNL d   1      51.525  33.474  53.028  0.00  0.00     0.119 A 
ATOM     13  O   UNL d   1      50.848  33.495  53.496  0.00  0.00    -0.304 OA
ATOM     14  C   UNL d   1      50.362  34.113  53.228  0.00  0.00     0.123 A 
ATOM     15  C   UNL d   1      50.753  34.470  52.586  0.00  0.00     0.029 A 
ATOM     16  C   UNL d   1      51.467  34.077  52.464  0.00  0.00     0.028 A 
ENDBRANCH  11  12
ENDBRANCH   9  11
ENDBRANCH   3   8
BRANCH   1  17
ATOM     17  C   UNL d   1      53.331  29.921  54.200  0.00  0.00     0.067 A 
ATOM     18  C   UNL d   1      53.845  29.317  53.999  0.00  0.00     0.018 A 
ATOM     19  C   UNL d   1      53.889  28.637  54.469  0.00  0.00     0.002 A 
ATOM     20  C   UNL d   1      53.412  28.573  55.138  0.00  0.00     0.000 A 
ATOM     21  C   UNL d   1      52.888  29.194  55.339  0.00  0.00     0.002 A 
ATOM     22  C   UNL d   1      52.854  29.862  54.867  0.00  0.00     0.018 A 
ENDBRANCH   1  17
TORSDOF 4
ENDMDL
MODEL 4
REMARK VINA RESULT:      -6.1      2.384      3.293
REMARK  4 active torsions:
REMARK  status: ('A' for Active; 'I' for Inactive)
REMARK    1  A    between atoms: C_8  and  N_1 
REMARK    2  A    between atoms: C_6  and  C_3 
REMARK       I    between atoms: N_9  and  C_6 
REMARK    3  A    between atoms: C_13  and  N_9 
REMARK    4  A    between atoms: C_14  and  C_13 
ROOT
ATOM      1  N   UNL d   1      51.277  33.744  52.656  0.00  0.00    -0.276 N 
ATOM      2  C   UNL d   1      51.443  33.054  53.081  0.00  0.00     0.181 A 
ATOM      3  C   UNL d   1      52.230  32.857  52.962  0.00  0.00     0.126 A 
ATOM      4  C   UNL d   1      51.976  33.972  52.270  0.00  0.00     0.152 A 
ATOM      5  S   UNL d   1      52.566  33.424  52.459  0.00  0.00    -0.051 SA
ATOM      6  S   UNL d   1      52.066  34.636  51.780  0.00  0.00    -0.052 SA
ATOM      7  N   UNL d   1      50.904  32.635  53.547  0.00  0.00    -0.128 N 
ENDROOT
BRANCH   3   8
ATOM      8  C   UNL d   1      52.629  32.207  53.284  0.00  0.00     0.288 C 
ATOM      9  N   UNL d   1      53.236  32.326  53.829  0.00  0.00    -0.204 NA
ATOM     10  O   UNL d   1      52.423  31.440  53.063  0.00  0.00    -0.265 OA
BRANCH   9  11
ATOM     11  C   UNL d   1      53.448  33.097  54.055  0.00  0.00     0.127 C 
BRANCH  11  12
ATOM     12  C   UNL d   1      54.026  33.222  54.627  0.00  0.00     0.119 A 
ATOM     13  O   UNL d   1      53.955  33.044  55.427  0.00  0.00    -0.304 OA
ATOM     14  C   UNL d   1      54.662  33.257  55.808  0.00  0.00     0.123 A 
ATOM     15  C   UNL d   1      55.168  33.570  55.226  0.00  0.00     0.029 A 
ATOM     16  C   UNL d   1      54.776  33.548  54.500  0.00  0.00     0.028 A 
ENDBRANCH  11  12
ENDBRANCH   9  11
ENDBRANCH   3   8
BRANCH   1  17
ATOM     17  C   UNL d   1      50.551  34.139  52.617  0.00  0.00     0.067 A 
ATOM     18  C   UNL d   1      50.318  34.630  53.230  0.00  0.00     0.018 A 
ATOM     19  C   UNL d   1      49.592  35.026  53.191  0.00  0.00     0.002 A 
ATOM     20  C   UNL d   1      49.107  34.923  52.534  0.00  0.00     0.000 A 
ATOM     21  C   UNL d   1      49.349  34.421  51.909  0.00  0.00     0.002 A 
ATOM     22  C   UNL d   1      50.069  34.034  51.958  0.00  0.00     0.018 A 
ENDBRANCH   1  17
TORSDOF 4
ENDMDL
MODEL 5
REMARK VINA RESULT:      -5.8      1.475      4.214
REMARK  4 active torsions:
REMARK  status: ('A' for Active; 'I' for Inactive)
REMARK    1  A    between atoms: C_8  and  N_1 
REMARK    2  A    between atoms: C_6  and  C_3 
REMARK       I    between atoms: N_9  and  C_6 
REMARK    3  A    between atoms: C_13  and  N_9 
REMARK    4  A    between atoms: C_14  and  C_13 
ROOT
ATOM      1  N   UNL d   1      53.111  31.553  53.285  0.00  0.00    -0.276 N 
ATOM      2  C   UNL d   1      52.463  32.053  53.168  0.00  0.00     0.181 A 
ATOM      3  C   UNL d   1      52.742  32.799  52.971  0.00  0.00     0.126 A 
ATOM      4  C   UNL d   1      53.798  32.001  53.158  0.00  0.00     0.152 A 
ATOM      5  S   UNL d   1      53.570  32.772  52.963  0.00  0.00    -0.051 SA
ATOM      6  S   UNL d   1      54.578  31.723  53.216  0.00  0.00    -0.052 SA
ATOM      7  N   UNL d   1      51.669  31.836  53.238  0.00  0.00    -0.128 N 
ENDROOT
BRANCH   3   8
ATOM      8  C   UNL d   1      52.284  33.468  52.807  0.00  0.00     0.288 C 
ATOM      9  N   UNL d   1      52.345  34.136  53.286  0.00  0.00    -0.204 NA
ATOM     10  O   UNL d   1      51.765  33.471  52.166  0.00  0.00    -0.265 OA
BRANCH   9  11
ATOM     11  C   UNL d   1      52.866  34.138  53.933  0.00  0.00     0.127 C 
BRANCH  11  12
ATOM     12  C   UNL d   1      52.962  34.814  54.392  0.00  0.00     0.119 A 
ATOM     13  O   UNL d   1      53.177  34.828  55.186  0.00  0.00    -0.304 OA
ATOM     14  C   UNL d   1      53.211  35.620  55.436  0.00  0.00     0.123 A 
ATOM     15  C   UNL d   1      53.012  36.091  54.780  0.00  0.00     0.029 A 
ATOM     16  C   UNL d   1      52.859  35.595  54.139  0.00  0.00     0.028 A 
ENDBRANCH  11  12
ENDBRANCH   9  11
ENDBRANCH   3   8
BRANCH   1  17
ATOM     17  C   UNL d   1      53.088  30.751  53.492  0.00  0.00     0.067 A 
ATOM     18  C   UNL d   1      53.239  30.523  54.263  0.00  0.00     0.018 A 
ATOM     19  C   UNL d   1      53.215  29.722  54.471  0.00  0.00     0.002 A 
ATOM     20  C   UNL d   1      53.039  29.158  53.896  0.00  0.00     0.000 A 
ATOM     21  C   UNL d   1      52.885  29.396  53.109  0.00  0.00     0.002 A 
ATOM     22  C   UNL d   1      52.911  30.191  52.916  0.00  0.00     0.018 A 
ENDBRANCH   1  17
TORSDOF 4
ENDMDL
MODEL 6
REMARK VINA RESULT:      -5.5      2.166      4.362
REMARK  4 active torsions:
REMARK  status: ('A' for Active; 'I' for Inactive)
REMARK    1  A    between atoms: C_8  and  N_1 
REMARK    2  A    between atoms: C_6  and  C_3 
REMARK       I    between atoms: N_9  and  C_6 
REMARK    3  A    between atoms: C_13  and  N_9 
REMARK    4  A    between atoms: C_14  and  C_13 
ROOT
ATOM      1  N   UNL d   1      53.207  32.545  53.608  0.00  0.00    -0.276 N 
ATOM      2  C   UNL d   1      53.019  33.112  53.035  0.00  0.00     0.181 A 
ATOM      3  C   UNL d   1      52.991  33.847  53.396  0.00  0.00     0.126 A 
ATOM      4  C   UNL d   1      53.295  32.943  54.331  0.00  0.00     0.152 A 
ATOM      5  S   UNL d   1      53.161  33.749  54.200  0.00  0.00    -0.051 SA
ATOM      6  S   UNL d   1      53.485  32.592  55.060  0.00  0.00    -0.052 SA
ATOM      7  N   UNL d   1      52.883  32.959  52.235  0.00  0.00    -0.128 N 
ENDROOT
BRANCH   3   8
ATOM      8  C   UNL d   1      52.822  34.570  53.028  0.00  0.00     0.288 C 
ATOM      9  N   UNL d   1      52.038  34.804  52.922  0.00  0.00    -0.204 NA
ATOM     10  O   UNL d   1      53.433  35.057  52.765  0.00  0.00    -0.265 OA
BRANCH   9  11
ATOM     11  C   UNL d   1      51.419  34.317  53.185  0.00  0.00     0.127 C 
BRANCH  11  12
ATOM     12  C   UNL d   1      50.635  34.529  53.056  0.00  0.00     0.119 A 
ATOM     13  O   UNL d   1      50.215  35.094  53.482  0.00  0.00    -0.304 OA
ATOM     14  C   UNL d   1      49.444  35.137  53.173  0.00  0.00     0.123 A 
ATOM     15  C   UNL d   1      49.400  34.588  52.550  0.00  0.00     0.029 A 
ATOM     16  C   UNL d   1      50.132  34.214  52.479  0.00  0.00     0.028 A 
ENDBRANCH  11  12
ENDBRANCH   9  11
ENDBRANCH   3   8
BRANCH   1  17
ATOM     17  C   UNL d   1      53.293  31.730  53.490  0.00  0.00     0.067 A 
ATOM     18  C   UNL d   1      54.039  31.392  53.494  0.00  0.00     0.018 A 
ATOM     19  C   UNL d   1      54.126  30.578  53.376  0.00  0.00     0.002 A 
ATOM     20  C   UNL d   1      53.458  30.111  53.254  0.00  0.00     0.000 A 
ATOM     21  C   UNL d   1      52.698  30.461  53.250  0.00  0.00     0.002 A 
ATOM     22  C   UNL d   1      52.624  31.267  53.368  0.00  0.00     0.018 A 
ENDBRANCH   1  17
TORSDOF 4
ENDMDL
