MODEL 1
REMARK VINA RESULT:      -7.5      0.000      0.000
REMARK  5 active torsions:
REMARK  status: ('A' for Active; 'I' for Inactive)
REMARK    1  A    between atoms: N_4  and  C_1 
REMARK       I    between atoms: C_7  and  N_4 
REMARK    2  A    between atoms: C_8  and  C_7 
REMARK    3  A    between atoms: C_12  and  C_8 
REMARK    4  A    between atoms: S_10  and  C_12 
REMARK    5  A    between atoms: C_11  and  S_10 
ROOT
ATOM      1  C   UNL d   1      53.003  32.389  52.958  0.00  0.00     0.070 C 
ENDROOT
BRANCH   1   2
ATOM      2  C   UNL d   1      53.114  31.685  53.357  0.00  0.00     0.281 C 
ATOM      3  N   UNL d   1      52.882  30.967  53.025  0.00  0.00    -0.187 NA
ATOM      4  O   UNL d   1      53.468  31.711  54.109  0.00  0.00    -0.265 OA
BRANCH   3   5
ATOM      5  C   UNL d   1      53.007  30.219  53.464  0.00  0.00     0.194 A 
ATOM      6  N   UNL d   1      52.499  29.607  53.247  0.00  0.00    -0.107 NA
ATOM      7  O   UNL d   1      52.680  28.950  53.700  0.00  0.00    -0.210 OA
ATOM      8  C   UNL d   1      53.307  29.158  54.201  0.00  0.00     0.128 A 
ATOM      9  C   UNL d   1      53.500  29.949  54.044  0.00  0.00     0.068 A 
ATOM     10  C   UNL d   1      53.664  28.665  54.750  0.00  0.00     0.029 C 
ENDBRANCH   3   5
ENDBRANCH   1   2
BRANCH   1  11
ATOM     11  C   UNL d   1      52.376  32.891  53.124  0.00  0.00     0.040 C 
BRANCH  11  12
ATOM     12  S   UNL d   1      52.267  33.582  52.686  0.00  0.00    -0.086 SA
BRANCH  12  13
ATOM     13  C   UNL d   1      51.508  33.935  52.651  0.00  0.00     0.029 A 
ATOM     14  C   UNL d   1      51.158  34.228  53.339  0.00  0.00     0.007 A 
ATOM     15  C   UNL d   1      50.399  34.581  53.303  0.00  0.00     0.012 A 
ATOM     16  C   UNL d   1      50.009  34.631  52.579  0.00  0.00     0.058 A 
ATOM     17  C   UNL d   1      50.363  34.337  51.893  0.00  0.00     0.012 A 
ATOM     18 CL   UNL d   1      49.253  34.984  52.546  0.00  0.00    -0.082 Cl
ATOM     19  C   UNL d   1      51.112  33.990  51.931  0.00  0.00     0.007 A 
ENDBRANCH  12  13
ENDBRANCH  11  12
ENDBRANCH   1  11
TORSDOF 5
ENDMDL
MODEL 2
REMARK VINA RESULT:      -7.3      2.895      5.200
REMARK  5 active torsions:
REMARK  status: ('A' for Active; 'I' for Inactive)
REMARK    1  A    between atoms: N_4  and  C_1 
REMARK       I    between atoms: C_7  and  N_4 
REMARK    2  A    between atoms: C_8  and  C_7 
REMARK    3  A    between atoms: C_12  and  C_8 
REMARK    4  A    between atoms: S_10  and  C_12 
REMARK    5  A    between atoms: C_11  and  S_10 
ROOT
ATOM      1  C   UNL d   1      51.951  33.805  52.921  0.00  0.00     0.070 C 
ENDROOT
BRANCH   1   2
ATOM      2  C   UNL d   1      51.277  34.105  52.570  0.00  0.00     0.281 C 
ATOM      3  N   UNL d   1      50.583  34.209  53.003  0.00  0.00    -0.187 NA
ATOM      4  O   UNL d   1      51.308  34.303  51.763  0.00  0.00    -0.265 OA
BRANCH   3   5
ATOM      5  C   UNL d   1      49.868  34.531  52.615  0.00  0.00     0.194 A 
ATOM      6  N   UNL d   1      49.460  35.093  53.061  0.00  0.00    -0.107 NA
ATOM      7  O   UNL d   1      48.811  35.342  52.631  0.00  0.00    -0.210 OA
ATOM      8  C   UNL d   1      48.816  34.930  51.911  0.00  0.00     0.128 A 
ATOM      9  C   UNL d   1      49.478  34.430  51.914  0.00  0.00     0.068 A 
ATOM     10  C   UNL d   1      48.263  35.009  51.311  0.00  0.00     0.029 C 
ENDBRANCH   3   5
ENDBRANCH   1   2
BRANCH   1  11
ATOM     11  C   UNL d   1      52.152  33.011  52.874  0.00  0.00     0.040 C 
BRANCH  11  12
ATOM     12  S   UNL d   1      52.914  32.761  53.067  0.00  0.00    -0.086 SA
BRANCH  12  13
ATOM     13  C   UNL d   1      53.055  31.952  53.235  0.00  0.00     0.029 A 
ATOM     14  C   UNL d   1      52.649  31.367  52.815  0.00  0.00     0.007 A 
ATOM     15  C   UNL d   1      52.791  30.559  52.984  0.00  0.00     0.012 A 
ATOM     16  C   UNL d   1      53.336  30.356  53.568  0.00  0.00     0.058 A 
ATOM     17  C   UNL d   1      53.739  30.944  53.985  0.00  0.00     0.012 A 
ATOM     18 CL   UNL d   1      53.475  29.550  53.733  0.00  0.00    -0.082 Cl
ATOM     19  C   UNL d   1      53.598  31.741  53.817  0.00  0.00     0.007 A 
ENDBRANCH  12  13
ENDBRANCH  11  12
ENDBRANCH   1  11
TORSDOF 5
ENDMDL
MODEL 3
REMARK VINA RESULT:      -7.2      3.382      5.501
REMARK  5 active torsions:
REMARK  status: ('A' for Active; 'I' for Inactive)
REMARK    1  A    between atoms: N_4  and  C_1 
REMARK       I    between atoms: C_7  and  N_4 
REMARK    2  A    between atoms: C_8  and  C_7 
REMARK    3  A    between atoms: C_12  and  C_8 
REMARK    4  A    between atoms: S_10  and  C_12 
REMARK    5  A    between atoms: C_11  and  S_10 
ROOT
ATOM      1  C   UNL d   1      50.798  34.139  52.160  0.00  0.00     0.070 C 
ENDROOT
BRANCH   1   2
ATOM      2  C   UNL d   1      50.036  34.435  52.160  0.00  0.00     0.281 C 
ATOM      3  N   UNL d   1      49.612  34.514  51.458  0.00  0.00    -0.187 NA
ATOM      4  O   UNL d   1      49.699  34.654  52.887  0.00  0.00    -0.265 OA
BRANCH   3   5
ATOM      5  C   UNL d   1      48.796  34.832  51.472  0.00  0.00     0.194 A 
ATOM      6  N   UNL d   1      48.295  34.514  50.898  0.00  0.00    -0.107 NA
ATOM      7  O   UNL d   1      47.559  34.861  50.979  0.00  0.00    -0.210 OA
ATOM      8  C   UNL d   1      47.604  35.399  51.608  0.00  0.00     0.128 A 
ATOM      9  C   UNL d   1      48.378  35.370  51.905  0.00  0.00     0.068 A 
ATOM     10  C   UNL d   1      46.990  35.869  51.881  0.00  0.00     0.029 C 
ENDBRANCH   3   5
ENDBRANCH   1   2
BRANCH   1  11
ATOM     11  C   UNL d   1      51.283  34.181  52.820  0.00  0.00     0.040 C 
BRANCH  11  12
ATOM     12  S   UNL d   1      52.102  34.230  52.733  0.00  0.00    -0.086 SA
BRANCH  12  13
ATOM     13  C   UNL d   1      52.601  33.971  53.356  0.00  0.00     0.029 A 
ATOM     14  C   UNL d   1      52.871  33.191  53.370  0.00  0.00     0.007 A 
ATOM     15  C   UNL d   1      53.369  32.933  53.993  0.00  0.00     0.012 A 
ATOM     16  C   UNL d   1      53.585  33.464  54.585  0.00  0.00     0.058 A 
ATOM     17  C   UNL d   1      53.312  34.244  54.566  0.00  0.00     0.012 A 
ATOM     18 CL   UNL d   1      54.081  33.205  55.204  0.00  0.00    -0.082 Cl
ATOM     19  C   UNL d   1      52.821  34.495  53.952  0.00  0.00     0.007 A 
ENDBRANCH  12  13
ENDBRANCH  11  12
ENDBRANCH   1  11
TORSDOF 5
ENDMDL
MODEL 4
REMARK VINA RESULT:      -6.9      1.515      1.853
REMARK  5 active torsions:
REMARK  status: ('A' for Active; 'I' for Inactive)
REMARK    1  A    between atoms: N_4  and  C_1 
REMARK       I    between atoms: C_7  and  N_4 
REMARK    2  A    between atoms: C_8  and  C_7 
REMARK    3  A    between atoms: C_12  and  C_8 
REMARK    4  A    between atoms: S_10  and  C_12 
REMARK    5  A    between atoms: C_11  and  S_10 
ROOT
ATOM      1  C   UNL d   1      53.004  31.969  52.911  0.00  0.00     0.070 C 
ENDROOT
BRANCH   1   2
ATOM      2  C   UNL d   1      53.198  31.262  53.272  0.00  0.00     0.281 C 
ATOM      3  N   UNL d   1      52.648  30.652  53.333  0.00  0.00    -0.187 NA
ATOM      4  O   UNL d   1      53.966  31.174  53.577  0.00  0.00    -0.265 OA
BRANCH   3   5
ATOM      5  C   UNL d   1      52.868  29.899  53.723  0.00  0.00     0.194 A 
ATOM      6  N   UNL d   1      52.631  29.222  53.316  0.00  0.00    -0.107 NA
ATOM      7  O   UNL d   1      52.874  28.568  53.743  0.00  0.00    -0.210 OA
ATOM      8  C   UNL d   1      53.265  28.843  54.420  0.00  0.00     0.128 A 
ATOM      9  C   UNL d   1      53.254  29.671  54.395  0.00  0.00     0.068 A 
ATOM     10  C   UNL d   1      53.598  28.373  55.004  0.00  0.00     0.029 C 
ENDBRANCH   3   5
ENDBRANCH   1   2
BRANCH   1  11
ATOM     11  C   UNL d   1      53.161  32.695  53.259  0.00  0.00     0.040 C 
BRANCH  11  12
ATOM     12  S   UNL d   1      52.842  33.387  52.943  0.00  0.00    -0.086 SA
BRANCH  12  13
ATOM     13  C   UNL d   1      52.838  34.089  53.401  0.00  0.00     0.029 A 
ATOM     14  C   UNL d   1      53.531  34.341  53.775  0.00  0.00     0.007 A 
ATOM     15  C   UNL d   1      53.526  35.043  54.233  0.00  0.00     0.012 A 
ATOM     16  C   UNL d   1      52.828  35.475  54.305  0.00  0.00     0.058 A 
ATOM     17  C   UNL d   1      52.138  35.219  53.929  0.00  0.00     0.012 A 
ATOM     18 CL   UNL d   1      52.826  36.173  54.762  0.00  0.00    -0.082 Cl
ATOM     19  C   UNL d   1      52.145  34.527  53.478  0.00  0.00     0.007 A 
ENDBRANCH  12  13
ENDBRANCH  11  12
ENDBRANCH   1  11
TORSDOF 5
ENDMDL
MODEL 5
REMARK VINA RESULT:      -6.7      2.517      2.956
REMARK  5 active torsions:
REMARK  status: ('A' for Active; 'I' for Inactive)
REMARK    1  A    between atoms: N_4  and  C_1 
REMARK       I    between atoms: C_7  and  N_4 
REMARK    2  A    between atoms: C_8  and  C_7 
REMARK    3  A    between atoms: C_12  and  C_8 
REMARK    4  A    between atoms: S_10  and  C_12 
REMARK    5  A    between atoms: C_11  and  S_10 
ROOT
ATOM      1  C   UNL d   1      51.627  33.997  52.550  0.00  0.00     0.070 C 
ENDROOT
BRANCH   1   2
ATOM      2  C   UNL d   1      52.295  33.989  53.021  0.00  0.00     0.281 C 
ATOM      3  N   UNL d   1      52.666  33.281  53.219  0.00  0.00    -0.187 NA
ATOM      4  O   UNL d   1      52.591  34.716  53.296  0.00  0.00    -0.265 OA
BRANCH   3   5
ATOM      5  C   UNL d   1      53.381  33.286  53.725  0.00  0.00     0.194 A 
ATOM      6  N   UNL d   1      54.049  32.950  53.376  0.00  0.00    -0.107 NA
ATOM      7  O   UNL d   1      54.668  32.994  53.909  0.00  0.00    -0.210 OA
ATOM      8  C   UNL d   1      54.380  33.362  54.595  0.00  0.00     0.128 A 
ATOM      9  C   UNL d   1      53.580  33.538  54.466  0.00  0.00     0.068 A 
ATOM     10  C   UNL d   1      54.815  33.520  55.271  0.00  0.00     0.029 C 
ENDBRANCH   3   5
ENDBRANCH   1   2
BRANCH   1  11
ATOM     11  C   UNL d   1      50.941  34.388  52.772  0.00  0.00     0.040 C 
BRANCH  11  12
ATOM     12  S   UNL d   1      50.204  34.112  52.523  0.00  0.00    -0.086 SA
BRANCH  12  13
ATOM     13  C   UNL d   1      49.552  34.638  52.495  0.00  0.00     0.029 A 
ATOM     14  C   UNL d   1      49.349  35.079  53.164  0.00  0.00     0.007 A 
ATOM     15  C   UNL d   1      48.697  35.604  53.135  0.00  0.00     0.012 A 
ATOM     16  C   UNL d   1      48.265  35.676  52.438  0.00  0.00     0.058 A 
ATOM     17  C   UNL d   1      48.472  35.233  51.771  0.00  0.00     0.012 A 
ATOM     18 CL   UNL d   1      47.616  36.200  52.412  0.00  0.00    -0.082 Cl
ATOM     19  C   UNL d   1      49.115  34.716  51.802  0.00  0.00     0.007 A 
ENDBRANCH  12  13
ENDBRANCH  11  12
ENDBRANCH   1  11
TORSDOF 5
ENDMDL
MODEL 6
REMARK VINA RESULT:      -5.2      8.987      9.518
REMARK  5 active torsions:
REMARK  status: ('A' for Active; 'I' for Inactive)
REMARK    1  A    between atoms: N_4  and  C_1 
REMARK       I    between atoms: C_7  and  N_4 
REMARK    2  A    between atoms: C_8  and  C_7 
REMARK    3  A    between atoms: C_12  and  C_8 
REMARK    4  A    between atoms: S_10  and  C_12 
REMARK    5  A    between atoms: C_11  and  S_10 
ROOT
ATOM      1  C   UNL d   1      45.317  27.459  57.875  0.00  0.00     0.070 C 
ENDROOT
BRANCH   1   2
ATOM      2  C   UNL d   1      45.286  26.859  57.321  0.00  0.00     0.281 C 
ATOM      3  N   UNL d   1      44.728  26.256  57.378  0.00  0.00    -0.187 NA
ATOM      4  O   UNL d   1      45.833  26.874  56.695  0.00  0.00    -0.265 OA
BRANCH   3   5
ATOM      5  C   UNL d   1      44.705  25.620  56.777  0.00  0.00     0.194 A 
ATOM      6  N   UNL d   1      44.689  24.856  57.088  0.00  0.00    -0.107 NA
ATOM      7  O   UNL d   1      44.669  24.325  56.466  0.00  0.00    -0.210 OA
ATOM      8  C   UNL d   1      44.672  24.765  55.763  0.00  0.00     0.128 A 
ATOM      9  C   UNL d   1      44.695  25.567  55.971  0.00  0.00     0.068 A 
ATOM     10  C   UNL d   1      44.656  24.454  55.004  0.00  0.00     0.029 C 
ENDBRANCH   3   5
ENDBRANCH   1   2
BRANCH   1  11
ATOM     11  C   UNL d   1      45.172  28.242  57.681  0.00  0.00     0.040 C 
BRANCH  11  12
ATOM     12  S   UNL d   1      45.043  28.802  58.273  0.00  0.00    -0.086 SA
BRANCH  12  13
ATOM     13  C   UNL d   1      44.948  29.609  58.067  0.00  0.00     0.029 A 
ATOM     14  C   UNL d   1      44.598  29.812  57.346  0.00  0.00     0.007 A 
ATOM     15  C   UNL d   1      44.503  30.618  57.141  0.00  0.00     0.012 A 
ATOM     16  C   UNL d   1      44.760  31.202  57.663  0.00  0.00     0.058 A 
ATOM     17  C   UNL d   1      45.109  30.994  58.383  0.00  0.00     0.012 A 
ATOM     18 CL   UNL d   1      44.664  32.005  57.456  0.00  0.00    -0.082 Cl
ATOM     19  C   UNL d   1      45.202  30.199  58.583  0.00  0.00     0.007 A 
ENDBRANCH  12  13
ENDBRANCH  11  12
ENDBRANCH   1  11
TORSDOF 5
ENDMDL
MODEL 7
REMARK VINA RESULT:      -4.9     10.067     10.536
REMARK  5 active torsions:
REMARK  status: ('A' for Active; 'I' for Inactive)
REMARK    1  A    between atoms: N_4  and  C_1 
REMARK       I    between atoms: C_7  and  N_4 
REMARK    2  A    between atoms: C_8  and  C_7 
REMARK    3  A    between atoms: C_12  and  C_8 
REMARK    4  A    between atoms: S_10  and  C_12 
REMARK    5  A    between atoms: C_11  and  S_10 
ROOT
ATOM      1  C   UNL d   1      44.977  29.676  58.959  0.00  0.00     0.070 C 
ENDROOT
BRANCH   1   2
ATOM      2  C   UNL d   1      44.872  28.974  58.554  0.00  0.00     0.281 C 
ATOM      3  N   UNL d   1      45.187  28.868  57.800  0.00  0.00    -0.187 NA
ATOM      4  O   UNL d   1      44.437  28.369  58.923  0.00  0.00    -0.265 OA
BRANCH   3   5
ATOM      5  C   UNL d   1      45.066  28.110  57.377  0.00  0.00     0.194 A 
ATOM      6  N   UNL d   1      44.580  28.164  56.712  0.00  0.00    -0.107 NA
ATOM      7  O   UNL d   1      44.520  27.420  56.378  0.00  0.00    -0.210 OA
ATOM      8  C   UNL d   1      44.972  26.901  56.840  0.00  0.00     0.128 A 
ATOM      9  C   UNL d   1      45.306  27.343  57.457  0.00  0.00     0.068 A 
ATOM     10  C   UNL d   1      45.067  26.098  56.704  0.00  0.00     0.029 C 
ENDBRANCH   3   5
ENDBRANCH   1   2
BRANCH   1  11
ATOM     11  C   UNL d   1      44.724  29.777  59.733  0.00  0.00     0.040 C 
BRANCH  11  12
ATOM     12  S   UNL d   1      44.742  30.523  60.084  0.00  0.00    -0.086 SA
BRANCH  12  13
ATOM     13  C   UNL d   1      44.635  30.594  60.913  0.00  0.00     0.029 A 
ATOM     14  C   UNL d   1      44.738  29.935  61.399  0.00  0.00     0.007 A 
ATOM     15  C   UNL d   1      44.630  30.006  62.227  0.00  0.00     0.012 A 
ATOM     16  C   UNL d   1      44.421  30.737  62.546  0.00  0.00     0.058 A 
ATOM     17  C   UNL d   1      44.319  31.393  62.056  0.00  0.00     0.012 A 
ATOM     18 CL   UNL d   1      44.314  30.806  63.372  0.00  0.00    -0.082 Cl
ATOM     19  C   UNL d   1      44.426  31.320  61.240  0.00  0.00     0.007 A 
ENDBRANCH  12  13
ENDBRANCH  11  12
ENDBRANCH   1  11
TORSDOF 5
ENDMDL
MODEL 8
REMARK VINA RESULT:      -4.9     10.152     10.888
REMARK  5 active torsions:
REMARK  status: ('A' for Active; 'I' for Inactive)
REMARK    1  A    between atoms: N_4  and  C_1 
REMARK       I    between atoms: C_7  and  N_4 
REMARK    2  A    between atoms: C_8  and  C_7 
REMARK    3  A    between atoms: C_12  and  C_8 
REMARK    4  A    between atoms: S_10  and  C_12 
REMARK    5  A    between atoms: C_11  and  S_10 
ROOT
ATOM      1  C   UNL d   1      44.985  30.747  59.524  0.00  0.00     0.070 C 
ENDROOT
BRANCH   1   2
ATOM      2  C   UNL d   1      44.943  30.588  58.723  0.00  0.00     0.281 C 
ATOM      3  N   UNL d   1      44.574  31.112  58.206  0.00  0.00    -0.187 NA
ATOM      4  O   UNL d   1      45.283  29.883  58.444  0.00  0.00    -0.265 OA
BRANCH   3   5
ATOM      5  C   UNL d   1      44.535  30.929  57.350  0.00  0.00     0.194 A 
ATOM      6  N   UNL d   1      44.650  31.580  56.856  0.00  0.00    -0.107 NA
ATOM      7  O   UNL d   1      44.599  31.326  56.080  0.00  0.00    -0.210 OA
ATOM      8  C   UNL d   1      44.452  30.510  56.094  0.00  0.00     0.128 A 
ATOM      9  C   UNL d   1      44.415  30.277  56.888  0.00  0.00     0.068 A 
ATOM     10  C   UNL d   1      44.361  30.030  55.436  0.00  0.00     0.029 C 
ENDBRANCH   3   5
ENDBRANCH   1   2
BRANCH   1  11
ATOM     11  C   UNL d   1      44.846  30.172  60.092  0.00  0.00     0.040 C 
BRANCH  11  12
ATOM     12  S   UNL d   1      44.676  30.386  60.870  0.00  0.00    -0.086 SA
BRANCH  12  13
ATOM     13  C   UNL d   1      44.633  29.795  61.463  0.00  0.00     0.029 A 
ATOM     14  C   UNL d   1      44.707  30.004  62.259  0.00  0.00     0.007 A 
ATOM     15  C   UNL d   1      44.664  29.413  62.851  0.00  0.00     0.012 A 
ATOM     16  C   UNL d   1      44.548  28.627  62.631  0.00  0.00     0.058 A 
ATOM     17  C   UNL d   1      44.474  28.423  61.834  0.00  0.00     0.012 A 
ATOM     18 CL   UNL d   1      44.506  28.040  63.223  0.00  0.00    -0.082 Cl
ATOM     19  C   UNL d   1      44.517  29.008  61.252  0.00  0.00     0.007 A 
ENDBRANCH  12  13
ENDBRANCH  11  12
ENDBRANCH   1  11
TORSDOF 5
ENDMDL
