MODEL 1
REMARK VINA RESULT:      41.1      0.000      0.000
REMARK  4 active torsions:
REMARK  status: ('A' for Active; 'I' for Inactive)
REMARK       I    between atoms: C_6  and  N_7 
REMARK    1  A    between atoms: C_9  and  C_6 
REMARK    2  A    between atoms: N_7  and  C_15 
REMARK    3  A    between atoms: C_15  and  C_14 
REMARK    4  A    between atoms: O_22  and  C_18 
ROOT
ATOM      1  C   UNL d   1     -54.716-102.282 -41.803  0.00  0.00     0.102 C 
ENDROOT
BRANCH   1   2
ATOM      2  N   UNL d   1     -54.787-101.630 -42.289  0.00  0.00    -0.206 NA
ATOM      3  C   UNL d   1     -54.830-101.711 -43.104  0.00  0.00     0.279 C 
ATOM      4  O   UNL d   1     -54.800-102.465 -43.439  0.00  0.00    -0.265 OA
BRANCH   3   5
ATOM      5  C   UNL d   1     -54.902-101.053 -43.596  0.00  0.00     0.058 A 
ATOM      6  C   UNL d   1     -54.892-100.291 -43.278  0.00  0.00     0.007 A 
ATOM      7  C   UNL d   1     -54.965 -99.642 -43.782  0.00  0.00     0.024 A 
ATOM      8  C   UNL d   1     -55.047 -99.738 -44.584  0.00  0.00     0.094 A 
ATOM      9  C   UNL d   1     -55.058-100.514 -44.908  0.00  0.00     0.024 A 
ATOM     10  C   UNL d   1     -54.986-101.173 -44.416  0.00  0.00     0.007 A 
BRANCH   8  11
ATOM     11  O   UNL d   1     -55.121 -99.098 -45.091  0.00  0.00    -0.328 OA
ATOM     12  C   UNL d   1     -55.877 -98.768 -45.215  0.00  0.00     0.181 C 
ENDBRANCH   8  11
ENDBRANCH   3   5
ENDBRANCH   1   2
BRANCH   1  13
ATOM     13  C   UNL d   1     -54.722-102.196 -40.985  0.00  0.00     0.019 A 
ATOM     14  C   UNL d   1     -54.735-102.870 -40.495  0.00  0.00     0.003 A 
ATOM     15  C   UNL d   1     -54.741-102.784 -39.673  0.00  0.00     0.018 A 
ATOM     16  C   UNL d   1     -54.734-102.031 -39.340  0.00  0.00     0.064 A 
ATOM     17  N   UNL d   1     -54.738-101.776 -38.557  0.00  0.00    -0.304 N 
ATOM     18  C   UNL d   1     -54.722-101.359 -39.817  0.00  0.00     0.018 A 
ATOM     19  C   UNL d   1     -54.728-100.955 -38.552  0.00  0.00     0.064 A 
ATOM     20  C   UNL d   1     -54.750-102.266 -37.892  0.00  0.00     0.099 C 
ATOM     21  C   UNL d   1     -54.718-100.700 -39.334  0.00  0.00     0.019 A 
ATOM     22  C   UNL d   1     -54.728-100.470 -37.885  0.00  0.00     0.019 C 
ATOM     23  C   UNL d   1     -54.715-101.442 -40.648  0.00  0.00     0.003 A 
ENDBRANCH   1  13
TORSDOF 4
ENDMDL
