MODEL 1
REMARK VINA RESULT:       1.5      0.000      0.000
REMARK  5 active torsions:
REMARK  status: ('A' for Active; 'I' for Inactive)
REMARK    1  A    between atoms: C_5  and  N_1 
REMARK    2  A    between atoms: C_2  and  N_3 
REMARK    3  A    between atoms: C_7  and  C_2 
REMARK    4  A    between atoms: N_4  and  C_8 
REMARK    5  A    between atoms: N_16  and  C_11 
ROOT
ATOM      1  N   UNL d   1     -41.635-121.662 -52.077  0.00  0.00    -0.293 N 
ATOM      2  N   UNL d   1     -41.930-122.324 -50.602  0.00  0.00    -0.301 N 
ATOM      3  C   UNL d   1     -42.304-122.142 -51.967  0.00  0.00     0.100 A 
ATOM      4  C   UNL d   1     -41.123-121.515 -51.463  0.00  0.00     0.100 A 
ATOM      5  C   UNL d   1     -41.267-121.846 -50.715  0.00  0.00     0.100 A 
ATOM      6  C   UNL d   1     -42.449-122.470 -51.236  0.00  0.00     0.100 A 
ENDROOT
BRANCH   1   7
ATOM      7  C   UNL d   1     -41.492-121.332 -52.822  0.00  0.00     0.120 C 
ATOM      8  S   UNL d   1     -41.140-120.587 -52.889  0.00  0.00    -0.059 SA
BRANCH   7   9
ATOM      9  C   UNL d   1     -41.703-121.749 -53.500  0.00  0.00     0.027 A 
ATOM     10  C   UNL d   1     -41.289-122.425 -53.715  0.00  0.00     0.004 A 
ATOM     11  C   UNL d   1     -41.499-122.845 -54.393  0.00  0.00     0.018 A 
ATOM     12  C   UNL d   1     -42.135-122.576 -54.857  0.00  0.00     0.064 A 
ATOM     13  C   UNL d   1     -42.546-121.897 -54.636  0.00  0.00     0.018 A 
ATOM     14  C   UNL d   1     -42.334-121.483 -53.961  0.00  0.00     0.004 A 
BRANCH  12  15
ATOM     15  N   UNL d   1     -42.345-122.996 -55.536  0.00  0.00    -0.301 N 
ATOM     16  C   UNL d   1     -42.930-122.694 -56.037  0.00  0.00     0.100 C 
ATOM     17  C   UNL d   1     -41.972-123.713 -55.712  0.00  0.00     0.100 C 
ENDBRANCH  12  15
ENDBRANCH   7   9
ENDBRANCH   1   7
BRANCH   2  18
ATOM     18  C   UNL d   1     -42.076-122.656 -49.860  0.00  0.00     0.064 A 
ATOM     19  C   UNL d   1     -41.452-122.926 -49.408  0.00  0.00     0.019 A 
ATOM     20  C   UNL d   1     -41.598-123.258 -48.666  0.00  0.00     0.025 A 
ATOM     21  C   UNL d   1     -42.371-123.314 -48.386  0.00  0.00     0.127 A 
ATOM     22  C   UNL d   1     -43.003-123.039 -48.843  0.00  0.00     0.025 A 
ATOM     23  C   UNL d   1     -42.852-122.712 -49.578  0.00  0.00     0.019 A 
BRANCH  21  24
ATOM     24  N   UNL d   1     -42.517-123.644 -47.646  0.00  0.00    -0.114 N 
ATOM     25  O   UNL d   1     -43.293-123.815 -47.413  0.00  0.00    -0.532 OA
ATOM     26  O   UNL d   1     -41.894-123.807 -47.132  0.00  0.00    -0.532 OA
ENDBRANCH  21  24
ENDBRANCH   2  18
TORSDOF 5
ENDMDL
MODEL 2
REMARK VINA RESULT:       2.4      2.702      5.520
REMARK  5 active torsions:
REMARK  status: ('A' for Active; 'I' for Inactive)
REMARK    1  A    between atoms: C_5  and  N_1 
REMARK    2  A    between atoms: C_2  and  N_3 
REMARK    3  A    between atoms: C_7  and  C_2 
REMARK    4  A    between atoms: N_4  and  C_8 
REMARK    5  A    between atoms: N_16  and  C_11 
ROOT
ATOM      1  N   UNL d   1     -41.749-121.682 -51.214  0.00  0.00    -0.293 N 
ATOM      2  N   UNL d   1     -42.003-121.881 -52.826  0.00  0.00    -0.301 N 
ATOM      3  C   UNL d   1     -42.512-121.577 -51.528  0.00  0.00     0.100 A 
ATOM      4  C   UNL d   1     -41.126-121.883 -51.696  0.00  0.00     0.100 A 
ATOM      5  C   UNL d   1     -41.247-121.984 -52.511  0.00  0.00     0.100 A 
ATOM      6  C   UNL d   1     -42.637-121.675 -52.326  0.00  0.00     0.100 A 
ENDROOT
BRANCH   1   7
ATOM      7  C   UNL d   1     -41.629-121.580 -50.402  0.00  0.00     0.120 C 
ATOM      8  S   UNL d   1     -41.129-120.983 -50.125  0.00  0.00    -0.059 SA
BRANCH   7   9
ATOM      9  C   UNL d   1     -42.009-122.078 -49.868  0.00  0.00     0.027 A 
ATOM     10  C   UNL d   1     -41.777-122.863 -49.796  0.00  0.00     0.004 A 
ATOM     11  C   UNL d   1     -42.158-123.363 -49.262  0.00  0.00     0.018 A 
ATOM     12  C   UNL d   1     -42.779-123.064 -48.797  0.00  0.00     0.064 A 
ATOM     13  C   UNL d   1     -43.008-122.276 -48.874  0.00  0.00     0.018 A 
ATOM     14  C   UNL d   1     -42.626-121.783 -49.406  0.00  0.00     0.004 A 
BRANCH  12  15
ATOM     15  N   UNL d   1     -43.160-123.565 -48.263  0.00  0.00    -0.301 N 
ATOM     16  C   UNL d   1     -42.760-123.815 -47.583  0.00  0.00     0.100 C 
ATOM     17  C   UNL d   1     -43.935-123.815 -48.407  0.00  0.00     0.100 C 
ENDBRANCH  12  15
ENDBRANCH   7   9
ENDBRANCH   1   7
BRANCH   2  18
ATOM     18  C   UNL d   1     -42.128-121.981 -53.636  0.00  0.00     0.064 A 
ATOM     19  C   UNL d   1     -42.607-121.456 -54.039  0.00  0.00     0.019 A 
ATOM     20  C   UNL d   1     -42.732-121.556 -54.850  0.00  0.00     0.025 A 
ATOM     21  C   UNL d   1     -42.374-122.185 -55.246  0.00  0.00     0.127 A 
ATOM     22  C   UNL d   1     -41.890-122.716 -54.838  0.00  0.00     0.025 A 
ATOM     23  C   UNL d   1     -41.770-122.611 -54.034  0.00  0.00     0.019 A 
BRANCH  21  24
ATOM     24  N   UNL d   1     -42.498-122.285 -56.053  0.00  0.00    -0.114 N 
ATOM     25  O   UNL d   1     -43.154-122.713 -56.323  0.00  0.00    -0.532 OA
ATOM     26  O   UNL d   1     -41.973-121.961 -56.600  0.00  0.00    -0.532 OA
ENDBRANCH  21  24
ENDBRANCH   2  18
TORSDOF 5
ENDMDL
