MODEL 1
REMARK VINA RESULT:      -7.9      0.000      0.000
REMARK  6 active torsions:
REMARK  status: ('A' for Active; 'I' for Inactive)
REMARK    1  A    between atoms: N_2  and  S_1 
REMARK    2  A    between atoms: C_3  and  S_1 
REMARK    3  A    between atoms: C_6  and  N_2 
REMARK    4  A    between atoms: C_12  and  C_6 
REMARK    5  A    between atoms: C_7  and  S_9 
REMARK    6  A    between atoms: S_9  and  C_12 
ROOT
ATOM      1  N   UNL d   1      51.862  33.412  52.719  0.00  0.00    -0.188 NA
ENDROOT
BRANCH   1   2
ATOM      2  S   UNL d   1      52.485  33.426  53.260  0.00  0.00     0.281 S 
ATOM      3  O   UNL d   1      52.744  34.163  52.967  0.00  0.00    -0.199 OA
ATOM      4  O   UNL d   1      52.240  32.698  53.561  0.00  0.00    -0.199 OA
BRANCH   2   5
ATOM      5  C   UNL d   1      53.124  33.441  53.815  0.00  0.00     0.105 A 
ATOM      6  C   UNL d   1      53.694  32.843  53.806  0.00  0.00     0.014 A 
ATOM      7  C   UNL d   1      54.302  32.855  54.333  0.00  0.00     0.012 A 
ATOM      8  C   UNL d   1      54.369  33.469  54.897  0.00  0.00     0.058 A 
ATOM      9  C   UNL d   1      53.791  34.059  54.893  0.00  0.00     0.012 A 
ATOM     10 CL   UNL d   1      54.994  33.496  55.450  0.00  0.00    -0.082 Cl
ATOM     11  C   UNL d   1      53.171  34.042  54.352  0.00  0.00     0.014 A 
ENDBRANCH   2   5
ENDBRANCH   1   2
BRANCH   1  12
ATOM     12  C   UNL d   1      51.213  33.911  52.826  0.00  0.00     0.107 C 
ATOM     13  C   UNL d   1      50.877  33.367  53.345  0.00  0.00     0.026 C 
ATOM     14  C   UNL d   1      51.565  34.463  52.293  0.00  0.00     0.026 C 
BRANCH  12  15
ATOM     15  C   UNL d   1      50.570  34.412  52.928  0.00  0.00     0.087 C 
BRANCH  15  16
ATOM     16  S   UNL d   1      49.927  34.373  52.418  0.00  0.00    -0.093 SA
BRANCH  16  17
ATOM     17  C   UNL d   1      49.291  34.874  52.497  0.00  0.00     0.107 A 
ATOM     18  N   UNL d   1      49.187  35.310  53.182  0.00  0.00    -0.238 NA
ATOM     19  C   UNL d   1      48.555  35.812  53.269  0.00  0.00     0.100 A 
ATOM     20  C   UNL d   1      47.998  35.883  52.638  0.00  0.00     0.021 A 
ATOM     21  C   UNL d   1      48.102  35.448  51.952  0.00  0.00     0.004 A 
ATOM     22  C   UNL d   1      48.749  34.942  51.878  0.00  0.00     0.025 A 
ENDBRANCH  16  17
ENDBRANCH  15  16
ENDBRANCH  12  15
ENDBRANCH   1  12
TORSDOF 6
ENDMDL
MODEL 2
REMARK VINA RESULT:      -7.1      2.060      4.896
REMARK  6 active torsions:
REMARK  status: ('A' for Active; 'I' for Inactive)
REMARK    1  A    between atoms: N_2  and  S_1 
REMARK    2  A    between atoms: C_3  and  S_1 
REMARK    3  A    between atoms: C_6  and  N_2 
REMARK    4  A    between atoms: C_12  and  C_6 
REMARK    5  A    between atoms: C_7  and  S_9 
REMARK    6  A    between atoms: S_9  and  C_12 
ROOT
ATOM      1  N   UNL d   1      51.225  33.638  52.397  0.00  0.00    -0.188 NA
ENDROOT
BRANCH   1   2
ATOM      2  S   UNL d   1      50.532  34.086  52.404  0.00  0.00     0.281 S 
ATOM      3  O   UNL d   1      50.266  33.695  53.091  0.00  0.00    -0.199 OA
ATOM      4  O   UNL d   1      50.782  34.482  51.724  0.00  0.00    -0.199 OA
BRANCH   2   5
ATOM      5  C   UNL d   1      49.821  34.546  52.410  0.00  0.00     0.105 A 
ATOM      6  C   UNL d   1      49.619  34.985  53.080  0.00  0.00     0.014 A 
ATOM      7  C   UNL d   1      48.944  35.423  53.089  0.00  0.00     0.012 A 
ATOM      8  C   UNL d   1      48.437  35.443  52.424  0.00  0.00     0.058 A 
ATOM      9  C   UNL d   1      48.654  34.998  51.762  0.00  0.00     0.012 A 
ATOM     10 CL   UNL d   1      47.733  35.892  52.416  0.00  0.00    -0.082 Cl
ATOM     11  C   UNL d   1      49.345  34.552  51.759  0.00  0.00     0.014 A 
ENDBRANCH   2   5
ENDBRANCH   1   2
BRANCH   1  12
ATOM     12  C   UNL d   1      51.767  33.710  53.014  0.00  0.00     0.107 C 
ATOM     13  C   UNL d   1      52.098  34.370  52.650  0.00  0.00     0.026 C 
ATOM     14  C   UNL d   1      51.422  33.032  53.381  0.00  0.00     0.026 C 
BRANCH  12  15
ATOM     15  C   UNL d   1      52.305  33.776  53.632  0.00  0.00     0.087 C 
BRANCH  15  16
ATOM     16  S   UNL d   1      53.044  33.420  53.582  0.00  0.00    -0.093 SA
BRANCH  16  17
ATOM     17  C   UNL d   1      53.571  33.447  54.200  0.00  0.00     0.107 A 
ATOM     18  N   UNL d   1      53.839  34.165  54.487  0.00  0.00    -0.238 NA
ATOM     19  C   UNL d   1      54.366  34.201  55.104  0.00  0.00     0.100 A 
ATOM     20  C   UNL d   1      54.639  33.481  55.452  0.00  0.00     0.021 A 
ATOM     21  C   UNL d   1      54.371  32.763  55.165  0.00  0.00     0.004 A 
ATOM     22  C   UNL d   1      53.836  32.742  54.538  0.00  0.00     0.025 A 
ENDBRANCH  16  17
ENDBRANCH  15  16
ENDBRANCH  12  15
ENDBRANCH   1  12
TORSDOF 6
ENDMDL
MODEL 3
REMARK VINA RESULT:      -6.9      2.391      5.017
REMARK  6 active torsions:
REMARK  status: ('A' for Active; 'I' for Inactive)
REMARK    1  A    between atoms: N_2  and  S_1 
REMARK    2  A    between atoms: C_3  and  S_1 
REMARK    3  A    between atoms: C_6  and  N_2 
REMARK    4  A    between atoms: C_12  and  C_6 
REMARK    5  A    between atoms: C_7  and  S_9 
REMARK    6  A    between atoms: S_9  and  C_12 
ROOT
ATOM      1  N   UNL d   1      51.149  34.357  52.937  0.00  0.00    -0.188 NA
ENDROOT
BRANCH   1   2
ATOM      2  S   UNL d   1      50.430  34.508  52.562  0.00  0.00     0.281 S 
ATOM      3  O   UNL d   1      50.795  34.469  51.812  0.00  0.00    -0.199 OA
ATOM      4  O   UNL d   1      50.056  34.549  53.295  0.00  0.00    -0.199 OA
BRANCH   2   5
ATOM      5  C   UNL d   1      49.692  34.663  52.176  0.00  0.00     0.105 A 
ATOM      6  C   UNL d   1      49.554  34.372  51.416  0.00  0.00     0.014 A 
ATOM      7  C   UNL d   1      48.852  34.519  51.048  0.00  0.00     0.012 A 
ATOM      8  C   UNL d   1      48.255  34.965  51.426  0.00  0.00     0.058 A 
ATOM      9  C   UNL d   1      48.410  35.249  52.186  0.00  0.00     0.012 A 
ATOM     10 CL   UNL d   1      47.523  35.126  51.058  0.00  0.00    -0.082 Cl
ATOM     11  C   UNL d   1      49.128  35.096  52.558  0.00  0.00     0.014 A 
ENDBRANCH   2   5
ENDBRANCH   1   2
BRANCH   1  12
ATOM     12  C   UNL d   1      51.505  33.616  52.861  0.00  0.00     0.107 C 
ATOM     13  C   UNL d   1      50.998  33.310  53.433  0.00  0.00     0.026 C 
ATOM     14  C   UNL d   1      52.022  33.937  52.275  0.00  0.00     0.026 C 
BRANCH  12  15
ATOM     15  C   UNL d   1      51.864  32.881  52.781  0.00  0.00     0.087 C 
BRANCH  15  16
ATOM     16  S   UNL d   1      52.566  32.715  53.173  0.00  0.00    -0.093 SA
BRANCH  16  17
ATOM     17  C   UNL d   1      52.866  31.960  53.206  0.00  0.00     0.107 A 
ATOM     18  N   UNL d   1      52.516  31.354  52.781  0.00  0.00    -0.238 NA
ATOM     19  C   UNL d   1      52.810  30.598  52.809  0.00  0.00     0.100 A 
ATOM     20  C   UNL d   1      53.488  30.438  53.286  0.00  0.00     0.021 A 
ATOM     21  C   UNL d   1      53.838  31.044  53.712  0.00  0.00     0.004 A 
ATOM     22  C   UNL d   1      53.529  31.808  53.674  0.00  0.00     0.025 A 
ENDBRANCH  16  17
ENDBRANCH  15  16
ENDBRANCH  12  15
ENDBRANCH   1  12
TORSDOF 6
ENDMDL
MODEL 4
REMARK VINA RESULT:      -6.8      2.147      2.598
REMARK  6 active torsions:
REMARK  status: ('A' for Active; 'I' for Inactive)
REMARK    1  A    between atoms: N_2  and  S_1 
REMARK    2  A    between atoms: C_3  and  S_1 
REMARK    3  A    between atoms: C_6  and  N_2 
REMARK    4  A    between atoms: C_12  and  C_6 
REMARK    5  A    between atoms: C_7  and  S_9 
REMARK    6  A    between atoms: S_9  and  C_12 
ROOT
ATOM      1  N   UNL d   1      53.066  32.329  52.821  0.00  0.00    -0.188 NA
ENDROOT
BRANCH   1   2
ATOM      2  S   UNL d   1      53.143  31.592  53.183  0.00  0.00     0.281 S 
ATOM      3  O   UNL d   1      53.546  31.933  53.829  0.00  0.00    -0.199 OA
ATOM      4  O   UNL d   1      52.746  31.240  52.552  0.00  0.00    -0.199 OA
BRANCH   2   5
ATOM      5  C   UNL d   1      53.223  30.835  53.555  0.00  0.00     0.105 A 
ATOM      6  C   UNL d   1      53.126  30.145  53.112  0.00  0.00     0.014 A 
ATOM      7  C   UNL d   1      53.202  29.424  53.463  0.00  0.00     0.012 A 
ATOM      8  C   UNL d   1      53.378  29.361  54.279  0.00  0.00     0.058 A 
ATOM      9  C   UNL d   1      53.472  30.061  54.707  0.00  0.00     0.012 A 
ATOM     10 CL   UNL d   1      53.459  28.622  54.658  0.00  0.00    -0.082 Cl
ATOM     11  C   UNL d   1      53.394  30.795  54.343  0.00  0.00     0.014 A 
ENDBRANCH   2   5
ENDBRANCH   1   2
BRANCH   1  12
ATOM     12  C   UNL d   1      52.394  32.787  52.960  0.00  0.00     0.107 C 
ATOM     13  C   UNL d   1      51.953  32.295  52.469  0.00  0.00     0.026 C 
ATOM     14  C   UNL d   1      52.852  33.287  53.463  0.00  0.00     0.026 C 
BRANCH  12  15
ATOM     15  C   UNL d   1      51.728  33.247  53.103  0.00  0.00     0.087 C 
BRANCH  15  16
ATOM     16  S   UNL d   1      51.543  33.877  52.608  0.00  0.00    -0.093 SA
BRANCH  16  17
ATOM     17  C   UNL d   1      50.817  34.242  52.638  0.00  0.00     0.107 A 
ATOM     18  N   UNL d   1      50.546  34.574  53.336  0.00  0.00    -0.238 NA
ATOM     19  C   UNL d   1      49.822  34.940  53.375  0.00  0.00     0.100 A 
ATOM     20  C   UNL d   1      49.343  34.975  52.680  0.00  0.00     0.021 A 
ATOM     21  C   UNL d   1      49.614  34.642  51.982  0.00  0.00     0.004 A 
ATOM     22  C   UNL d   1      50.351  34.274  51.958  0.00  0.00     0.025 A 
ENDBRANCH  16  17
ENDBRANCH  15  16
ENDBRANCH  12  15
ENDBRANCH   1  12
TORSDOF 6
ENDMDL
MODEL 5
REMARK VINA RESULT:      -6.8      2.772      4.945
REMARK  6 active torsions:
REMARK  status: ('A' for Active; 'I' for Inactive)
REMARK    1  A    between atoms: N_2  and  S_1 
REMARK    2  A    between atoms: C_3  and  S_1 
REMARK    3  A    between atoms: C_6  and  N_2 
REMARK    4  A    between atoms: C_12  and  C_6 
REMARK    5  A    between atoms: C_7  and  S_9 
REMARK    6  A    between atoms: S_9  and  C_12 
ROOT
ATOM      1  N   UNL d   1      53.311  32.369  52.979  0.00  0.00    -0.188 NA
ENDROOT
BRANCH   1   2
ATOM      2  S   UNL d   1      53.219  33.120  53.307  0.00  0.00     0.281 S 
ATOM      3  O   UNL d   1      52.388  33.053  53.269  0.00  0.00    -0.199 OA
ATOM      4  O   UNL d   1      54.038  33.201  53.352  0.00  0.00    -0.199 OA
BRANCH   2   5
ATOM      5  C   UNL d   1      53.124  33.891  53.644  0.00  0.00     0.105 A 
ATOM      6  C   UNL d   1      52.721  34.478  53.226  0.00  0.00     0.014 A 
ATOM      7  C   UNL d   1      52.630  35.212  53.545  0.00  0.00     0.012 A 
ATOM      8  C   UNL d   1      52.940  35.393  54.301  0.00  0.00     0.058 A 
ATOM      9  C   UNL d   1      53.340  34.794  54.705  0.00  0.00     0.012 A 
ATOM     10 CL   UNL d   1      52.854  36.149  54.645  0.00  0.00    -0.082 Cl
ATOM     11  C   UNL d   1      53.430  34.046  54.375  0.00  0.00     0.014 A 
ENDBRANCH   2   5
ENDBRANCH   1   2
BRANCH   1  12
ATOM     12  C   UNL d   1      53.311  31.704  53.467  0.00  0.00     0.107 C 
ATOM     13  C   UNL d   1      54.101  31.838  53.656  0.00  0.00     0.026 C 
ATOM     14  C   UNL d   1      52.500  31.572  53.269  0.00  0.00     0.026 C 
BRANCH  12  15
ATOM     15  C   UNL d   1      53.304  31.040  53.952  0.00  0.00     0.087 C 
BRANCH  15  16
ATOM     16  S   UNL d   1      53.237  30.288  53.628  0.00  0.00    -0.093 SA
BRANCH  16  17
ATOM     17  C   UNL d   1      53.314  29.620  54.085  0.00  0.00     0.107 A 
ATOM     18  N   UNL d   1      52.941  29.569  54.813  0.00  0.00    -0.238 NA
ATOM     19  C   UNL d   1      53.012  28.905  55.276  0.00  0.00     0.100 A 
ATOM     20  C   UNL d   1      53.480  28.260  54.997  0.00  0.00     0.021 A 
ATOM     21  C   UNL d   1      53.853  28.311  54.270  0.00  0.00     0.004 A 
ATOM     22  C   UNL d   1      53.772  28.991  53.811  0.00  0.00     0.025 A 
ENDBRANCH  16  17
ENDBRANCH  15  16
ENDBRANCH  12  15
ENDBRANCH   1  12
TORSDOF 6
ENDMDL
