MODEL 1
REMARK VINA RESULT:      -6.1      0.000      0.000
REMARK  3 active torsions:
REMARK  status: ('A' for Active; 'I' for Inactive)
REMARK    1  A    between atoms: C_6  and  C_2 
REMARK    2  A    between atoms: C_7  and  C_6 
REMARK    3  A    between atoms: C_8  and  C_7 
ROOT
ATOM      1  N   UNL d   1     -41.329-123.079 -53.132  0.00  0.00    -0.225 NA
ATOM      2  C   UNL d   1     -41.608-122.490 -52.589  0.00  0.00     0.163 A 
ATOM      3  N   UNL d   1     -41.940-121.882 -53.031  0.00  0.00    -0.225 NA
ATOM      4  C   UNL d   1     -41.496-122.819 -53.879  0.00  0.00     0.101 A 
ATOM      5  C   UNL d   1     -41.884-122.061 -53.845  0.00  0.00     0.101 A 
ATOM      6  C   UNL d   1     -41.360-123.150 -54.651  0.00  0.00     0.021 A 
ATOM      7  C   UNL d   1     -42.120-121.660 -54.527  0.00  0.00     0.021 A 
ATOM      8  C   UNL d   1     -41.981-121.993 -55.240  0.00  0.00     0.002 A 
ATOM      9  C   UNL d   1     -41.606-122.727 -55.301  0.00  0.00     0.002 A 
ENDROOT
BRANCH   2  10
ATOM     10  C   UNL d   1     -41.453-122.725 -51.812  0.00  0.00     0.039 C 
BRANCH  10  11
ATOM     11  C   UNL d   1     -41.730-122.272 -51.191  0.00  0.00     0.003 C 
BRANCH  11  12
ATOM     12  C   UNL d   1     -41.784-122.604 -50.435  0.00  0.00     0.000 A 
ATOM     13  C   UNL d   1     -41.129-122.963 -50.082  0.00  0.00     0.001 A 
ATOM     14  C   UNL d   1     -41.211-123.285 -49.332  0.00  0.00     0.011 A 
ATOM     15  C   UNL d   1     -41.918-123.257 -48.932  0.00  0.00     0.058 A 
ATOM     16  C   UNL d   1     -42.571-122.898 -49.286  0.00  0.00     0.011 A 
ATOM     17 CL   UNL d   1     -41.973-123.590 -48.173  0.00  0.00    -0.082 Cl
ATOM     18  C   UNL d   1     -42.495-122.575 -50.035  0.00  0.00     0.001 A 
ENDBRANCH  11  12
ENDBRANCH  10  11
ENDBRANCH   2  10
TORSDOF 3
ENDMDL
MODEL 2
REMARK VINA RESULT:      -5.9      2.025      4.718
REMARK  3 active torsions:
REMARK  status: ('A' for Active; 'I' for Inactive)
REMARK    1  A    between atoms: C_6  and  C_2 
REMARK    2  A    between atoms: C_7  and  C_6 
REMARK    3  A    between atoms: C_8  and  C_7 
ROOT
ATOM      1  N   UNL d   1     -42.333-122.378 -50.820  0.00  0.00    -0.225 NA
ATOM      2  C   UNL d   1     -41.663-122.555 -51.310  0.00  0.00     0.163 A 
ATOM      3  N   UNL d   1     -41.123-122.971 -50.850  0.00  0.00    -0.225 NA
ATOM      4  C   UNL d   1     -42.185-122.685 -50.087  0.00  0.00     0.101 A 
ATOM      5  C   UNL d   1     -41.423-123.067 -50.078  0.00  0.00     0.101 A 
ATOM      6  C   UNL d   1     -42.632-122.694 -49.362  0.00  0.00     0.021 A 
ATOM      7  C   UNL d   1     -41.126-123.431 -49.399  0.00  0.00     0.021 A 
ATOM      8  C   UNL d   1     -41.566-123.425 -48.732  0.00  0.00     0.002 A 
ATOM      9  C   UNL d   1     -42.307-123.062 -48.713  0.00  0.00     0.002 A 
ENDROOT
BRANCH   2  10
ATOM     10  C   UNL d   1     -41.781-122.255 -52.070  0.00  0.00     0.039 C 
BRANCH  10  11
ATOM     11  C   UNL d   1     -41.321-122.528 -52.688  0.00  0.00     0.003 C 
BRANCH  11  12
ATOM     12  C   UNL d   1     -41.551-122.376 -53.468  0.00  0.00     0.000 A 
ATOM     13  C   UNL d   1     -42.032-121.730 -53.649  0.00  0.00     0.001 A 
ATOM     14  C   UNL d   1     -42.246-121.602 -54.431  0.00  0.00     0.011 A 
ATOM     15  C   UNL d   1     -41.995-122.096 -55.026  0.00  0.00     0.058 A 
ATOM     16  C   UNL d   1     -41.514-122.741 -54.843  0.00  0.00     0.011 A 
ATOM     17 CL   UNL d   1     -42.225-121.943 -55.810  0.00  0.00    -0.082 Cl
ATOM     18  C   UNL d   1     -41.298-122.873 -54.064  0.00  0.00     0.001 A 
ENDBRANCH  11  12
ENDBRANCH  10  11
ENDBRANCH   2  10
TORSDOF 3
ENDMDL
