MODEL 1
REMARK VINA RESULT:      -3.3      0.000      0.000
REMARK  2 active torsions:
REMARK  status: ('A' for Active; 'I' for Inactive)
REMARK    1  A    between atoms: C_10  and  N_3 
REMARK    2  A    between atoms: C_11  and  C_4 
ROOT
ATOM      1  C   UNL d   1     -41.524-122.247 -51.332  0.00  0.00     0.154 A 
ATOM      2  C   UNL d   1     -41.495-122.262 -52.151  0.00  0.00     0.094 A 
ATOM      3  N   UNL d   1     -41.733-123.003 -51.069  0.00  0.00    -0.290 N 
ATOM      4  C   UNL d   1     -41.686-123.027 -52.401  0.00  0.00     0.025 A 
ATOM      5  C   UNL d   1     -41.831-123.479 -51.733  0.00  0.00     0.082 A 
ATOM      6  N   UNL d   1     -41.358-121.551 -50.922  0.00  0.00    -0.206 NA
ATOM      7  C   UNL d   1     -41.300-121.581 -52.574  0.00  0.00     0.284 A 
ATOM      8  N   UNL d   1     -41.133-120.884 -52.163  0.00  0.00    -0.186 NA
ATOM      9  C   UNL d   1     -41.162-120.869 -51.345  0.00  0.00     0.203 A 
ATOM     10  O   UNL d   1     -41.271-121.596 -53.392  0.00  0.00    -0.265 OA
ENDROOT
BRANCH   3  11
ATOM     11  C   UNL d   1     -41.834-123.271 -50.306  0.00  0.00     0.065 A 
ATOM     12  C   UNL d   1     -42.593-123.392 -50.008  0.00  0.00     0.018 A 
ATOM     13  C   UNL d   1     -42.696-123.663 -49.234  0.00  0.00     0.002 A 
ATOM     14  C   UNL d   1     -42.032-123.816 -48.752  0.00  0.00     0.000 A 
ATOM     15  C   UNL d   1     -41.276-123.691 -49.059  0.00  0.00     0.002 A 
ATOM     16  C   UNL d   1     -41.177-123.420 -49.831  0.00  0.00     0.018 A 
ENDBRANCH   3  11
BRANCH   4  17
ATOM     17  C   UNL d   1     -41.690-123.169 -53.214  0.00  0.00     0.002 A 
ATOM     18  C   UNL d   1     -42.260-122.810 -53.694  0.00  0.00     0.000 A 
ATOM     19  C   UNL d   1     -42.264-122.952 -54.508  0.00  0.00     0.000 A 
ATOM     20  C   UNL d   1     -41.700-123.451 -54.839  0.00  0.00     0.000 A 
ATOM     21  C   UNL d   1     -41.130-123.809 -54.358  0.00  0.00     0.000 A 
ATOM     22  C   UNL d   1     -41.126-123.669 -53.550  0.00  0.00     0.000 A 
ENDBRANCH   4  17
TORSDOF 2
ENDMDL
MODEL 2
REMARK VINA RESULT:      -3.0      0.912      3.600
REMARK  2 active torsions:
REMARK  status: ('A' for Active; 'I' for Inactive)
REMARK    1  A    between atoms: C_10  and  N_3 
REMARK    2  A    between atoms: C_11  and  C_4 
ROOT
ATOM      1  C   UNL d   1     -41.454-121.986 -52.229  0.00  0.00     0.154 A 
ATOM      2  C   UNL d   1     -41.504-122.152 -51.428  0.00  0.00     0.094 A 
ATOM      3  N   UNL d   1     -41.621-122.680 -52.646  0.00  0.00    -0.290 N 
ATOM      4  C   UNL d   1     -41.703-122.950 -51.343  0.00  0.00     0.025 A 
ATOM      5  C   UNL d   1     -41.773-123.271 -52.093  0.00  0.00     0.082 A 
ATOM      6  N   UNL d   1     -41.263-121.226 -52.486  0.00  0.00    -0.206 NA
ATOM      7  C   UNL d   1     -41.364-121.560 -50.871  0.00  0.00     0.284 A 
ATOM      8  N   UNL d   1     -41.173-120.799 -51.128  0.00  0.00    -0.186 NA
ATOM      9  C   UNL d   1     -41.123-120.633 -51.928  0.00  0.00     0.203 A 
ATOM     10  O   UNL d   1     -41.414-121.725 -50.070  0.00  0.00    -0.265 OA
ENDROOT
BRANCH   3  11
ATOM     11  C   UNL d   1     -41.642-122.803 -53.451  0.00  0.00     0.065 A 
ATOM     12  C   UNL d   1     -42.103-122.317 -53.931  0.00  0.00     0.018 A 
ATOM     13  C   UNL d   1     -42.125-122.440 -54.747  0.00  0.00     0.002 A 
ATOM     14  C   UNL d   1     -41.680-123.058 -55.090  0.00  0.00     0.000 A 
ATOM     15  C   UNL d   1     -41.221-123.540 -54.601  0.00  0.00     0.002 A 
ATOM     16  C   UNL d   1     -41.202-123.413 -53.787  0.00  0.00     0.018 A 
ENDBRANCH   3  11
BRANCH   4  17
ATOM     17  C   UNL d   1     -41.783-123.239 -50.574  0.00  0.00     0.002 A 
ATOM     18  C   UNL d   1     -42.524-123.247 -50.209  0.00  0.00     0.000 A 
ATOM     19  C   UNL d   1     -42.605-123.536 -49.440  0.00  0.00     0.000 A 
ATOM     20  C   UNL d   1     -41.944-123.817 -49.037  0.00  0.00     0.000 A 
ATOM     21  C   UNL d   1     -41.203-123.809 -49.403  0.00  0.00     0.000 A 
ATOM     22  C   UNL d   1     -41.122-123.522 -50.167  0.00  0.00     0.000 A 
ENDBRANCH   4  17
TORSDOF 2
ENDMDL
MODEL 3
REMARK VINA RESULT:      -2.0      1.669      4.237
REMARK  2 active torsions:
REMARK  status: ('A' for Active; 'I' for Inactive)
REMARK    1  A    between atoms: C_10  and  N_3 
REMARK    2  A    between atoms: C_11  and  C_4 
ROOT
ATOM      1  C   UNL d   1     -42.520-122.643 -50.536  0.00  0.00     0.154 A 
ATOM      2  C   UNL d   1     -42.458-122.681 -49.720  0.00  0.00     0.094 A 
ATOM      3  N   UNL d   1     -41.790-122.857 -50.860  0.00  0.00    -0.290 N 
ATOM      4  C   UNL d   1     -41.688-122.917 -49.532  0.00  0.00     0.025 A 
ATOM      5  C   UNL d   1     -41.281-123.024 -50.235  0.00  0.00     0.082 A 
ATOM      6  N   UNL d   1     -43.231-122.421 -50.890  0.00  0.00    -0.206 NA
ATOM      7  C   UNL d   1     -43.105-122.496 -49.244  0.00  0.00     0.284 A 
ATOM      8  N   UNL d   1     -43.818-122.273 -49.598  0.00  0.00    -0.186 NA
ATOM      9  C   UNL d   1     -43.880-122.236 -50.413  0.00  0.00     0.203 A 
ATOM     10  O   UNL d   1     -43.043-122.533 -48.428  0.00  0.00    -0.265 OA
ENDROOT
BRANCH   3  11
ATOM     11  C   UNL d   1     -41.570-122.905 -51.643  0.00  0.00     0.065 A 
ATOM     12  C   UNL d   1     -41.359-122.223 -52.056  0.00  0.00     0.018 A 
ATOM     13  C   UNL d   1     -41.137-122.272 -52.850  0.00  0.00     0.002 A 
ATOM     14  C   UNL d   1     -41.124-123.011 -53.237  0.00  0.00     0.000 A 
ATOM     15  C   UNL d   1     -41.336-123.689 -52.815  0.00  0.00     0.002 A 
ATOM     16  C   UNL d   1     -41.558-123.636 -52.023  0.00  0.00     0.018 A 
ENDBRANCH   3  11
BRANCH   4  17
ATOM     17  C   UNL d   1     -41.501-122.991 -48.732  0.00  0.00     0.002 A 
ATOM     18  C   UNL d   1     -41.362-122.318 -48.274  0.00  0.00     0.000 A 
ATOM     19  C   UNL d   1     -41.175-122.392 -47.473  0.00  0.00     0.000 A 
ATOM     20  C   UNL d   1     -41.126-123.139 -47.132  0.00  0.00     0.000 A 
ATOM     21  C   UNL d   1     -41.265-123.813 -47.591  0.00  0.00     0.000 A 
ATOM     22  C   UNL d   1     -41.451-123.740 -48.386  0.00  0.00     0.000 A 
ENDBRANCH   4  17
TORSDOF 2
ENDMDL
MODEL 4
REMARK VINA RESULT:      -1.3      1.550      2.507
REMARK  2 active torsions:
REMARK  status: ('A' for Active; 'I' for Inactive)
REMARK    1  A    between atoms: C_10  and  N_3 
REMARK    2  A    between atoms: C_11  and  C_4 
ROOT
ATOM      1  C   UNL d   1     -42.650-122.647 -49.406  0.00  0.00     0.154 A 
ATOM      2  C   UNL d   1     -42.556-122.623 -50.219  0.00  0.00     0.094 A 
ATOM      3  N   UNL d   1     -41.932-122.884 -49.071  0.00  0.00    -0.290 N 
ATOM      4  C   UNL d   1     -41.779-122.846 -50.394  0.00  0.00     0.025 A 
ATOM      5  C   UNL d   1     -41.399-123.005 -49.686  0.00  0.00     0.082 A 
ATOM      6  N   UNL d   1     -43.375-122.451 -49.065  0.00  0.00    -0.206 NA
ATOM      7  C   UNL d   1     -43.184-122.403 -50.706  0.00  0.00     0.284 A 
ATOM      8  N   UNL d   1     -43.910-122.206 -50.364  0.00  0.00    -0.186 NA
ATOM      9  C   UNL d   1     -44.005-122.230 -49.551  0.00  0.00     0.203 A 
ATOM     10  O   UNL d   1     -43.090-122.379 -51.519  0.00  0.00    -0.265 OA
ENDROOT
BRANCH   3  11
ATOM     11  C   UNL d   1     -41.744-122.991 -48.285  0.00  0.00     0.065 A 
ATOM     12  C   UNL d   1     -41.378-122.386 -47.862  0.00  0.00     0.018 A 
ATOM     13  C   UNL d   1     -41.186-122.494 -47.066  0.00  0.00     0.002 A 
ATOM     14  C   UNL d   1     -41.362-123.216 -46.687  0.00  0.00     0.000 A 
ATOM     15  C   UNL d   1     -41.728-123.817 -47.119  0.00  0.00     0.002 A 
ATOM     16  C   UNL d   1     -41.918-123.705 -47.913  0.00  0.00     0.018 A 
ENDBRANCH   3  11
BRANCH   4  17
ATOM     17  C   UNL d   1     -41.560-122.860 -51.190  0.00  0.00     0.002 A 
ATOM     18  C   UNL d   1     -41.551-123.575 -51.605  0.00  0.00     0.000 A 
ATOM     19  C   UNL d   1     -41.333-123.590 -52.400  0.00  0.00     0.000 A 
ATOM     20  C   UNL d   1     -41.123-122.891 -52.781  0.00  0.00     0.000 A 
ATOM     21  C   UNL d   1     -41.132-122.175 -52.365  0.00  0.00     0.000 A 
ATOM     22  C   UNL d   1     -41.349-122.161 -51.574  0.00  0.00     0.000 A 
ENDBRANCH   4  17
TORSDOF 2
ENDMDL
