MODEL 1
REMARK VINA RESULT:       6.3      0.000      0.000
REMARK  4 active torsions:
REMARK  status: ('A' for Active; 'I' for Inactive)
REMARK    1  A    between atoms: C_6  and  C_1 
REMARK       I    between atoms: N_9  and  C_6 
REMARK    2  A    between atoms: C_13  and  N_9 
REMARK    3  A    between atoms: O_12  and  C_14 
REMARK    4  A    between atoms: C_14  and  C_13 
ROOT
ATOM      1  C   UNL d   1      46.339 -19.020  43.659  0.00  0.00     0.084 A 
ATOM      2  C   UNL d   1      46.239 -19.816  43.864  0.00  0.00     0.137 A 
ATOM      3  S   UNL d   1      46.279 -20.263  43.170  0.00  0.00    -0.066 SA
ATOM      4  C   UNL d   1      46.440 -18.980  42.845  0.00  0.00     0.013 A 
ATOM      5  C   UNL d   1      46.404 -19.740  42.542  0.00  0.00     0.031 A 
ATOM      6  N   UNL d   1      46.119 -20.114  44.630  0.00  0.00    -0.141 N 
ATOM      7  C   UNL d   1      46.562 -18.340  42.336  0.00  0.00     0.001 A 
ATOM      8  C   UNL d   1      46.488 -19.878  41.731  0.00  0.00     0.006 A 
ATOM      9  C   UNL d   1      46.646 -18.475  41.524  0.00  0.00     0.000 A 
ATOM     10  C   UNL d   1      46.609 -19.242  41.225  0.00  0.00     0.001 A 
ENDROOT
BRANCH   1  11
ATOM     11  C   UNL d   1      46.337 -18.385  44.190  0.00  0.00     0.281 C 
ATOM     12  O   UNL d   1      46.642 -18.483  44.948  0.00  0.00    -0.265 OA
ATOM     13  N   UNL d   1      46.031 -17.654  43.965  0.00  0.00    -0.204 NA
BRANCH  13  14
ATOM     14  C   UNL d   1      46.028 -17.019  44.495  0.00  0.00     0.128 C 
BRANCH  14  15
ATOM     15  C   UNL d   1      45.618 -16.327  44.315  0.00  0.00     0.137 C 
BRANCH  15  16
ATOM     16  O   UNL d   1      45.688 -15.666  44.800  0.00  0.00    -0.325 OA
ATOM     17  C   UNL d   1      45.409 -14.932  44.547  0.00  0.00     0.182 C 
ENDBRANCH  15  16
ENDBRANCH  14  15
ENDBRANCH  13  14
ENDBRANCH   1  11
TORSDOF 4
ENDMDL
