MODEL 1
REMARK VINA RESULT:      -7.0      0.000      0.000
REMARK  4 active torsions:
REMARK  status: ('A' for Active; 'I' for Inactive)
REMARK    1  A    between atoms: C_7  and  N_2 
REMARK    2  A    between atoms: C_10  and  C_7 
REMARK    3  A    between atoms: O_8  and  C_10 
REMARK    4  A    between atoms: C_9  and  O_8 
ROOT
ATOM      1  C   UNL d   1     -50.440  13.714  21.977  0.00  0.00     0.296 A 
ATOM      2  N   UNL d   1     -49.731  14.075  22.190  0.00  0.00    -0.266 N 
ATOM      3  S   UNL d   1     -51.061  14.137  22.348  0.00  0.00    -0.025 SA
ATOM      4  C   UNL d   1     -49.906  14.715  22.687  0.00  0.00     0.074 A 
ATOM      5  C   UNL d   1     -50.721  14.753  22.784  0.00  0.00     0.050 A 
ATOM      6  O   UNL d   1     -50.528  13.058  21.490  0.00  0.00    -0.259 OA
ATOM      7  C   UNL d   1     -49.416  15.266  23.061  0.00  0.00     0.018 A 
ATOM      8  C   UNL d   1     -51.063  15.342  23.257  0.00  0.00     0.008 A 
ATOM      9  C   UNL d   1     -49.753  15.855  23.534  0.00  0.00     0.002 A 
ATOM     10  C   UNL d   1     -50.567  15.893  23.631  0.00  0.00     0.001 A 
ENDROOT
BRANCH   2  11
ATOM     11  C   UNL d   1     -48.977  13.841  21.950  0.00  0.00     0.110 C 
BRANCH  11  12
ATOM     12  C   UNL d   1     -48.580  13.241  22.350  0.00  0.00     0.142 C 
BRANCH  12  13
ATOM     13  O   UNL d   1     -47.863  12.942  22.066  0.00  0.00    -0.304 OA
BRANCH  13  14
ATOM     14  C   UNL d   1     -47.303  12.637  22.589  0.00  0.00     0.100 A 
ATOM     15  C   UNL d   1     -46.555  12.982  22.639  0.00  0.00     0.025 A 
ATOM     16  C   UNL d   1     -45.998  12.678  23.159  0.00  0.00     0.002 A 
ATOM     17  C   UNL d   1     -46.190  12.028  23.630  0.00  0.00     0.000 A 
ATOM     18  C   UNL d   1     -46.941  11.683  23.578  0.00  0.00     0.002 A 
ATOM     19  C   UNL d   1     -47.493  11.995  23.053  0.00  0.00     0.025 A 
ENDBRANCH  13  14
ENDBRANCH  12  13
ENDBRANCH  11  12
ENDBRANCH   2  11
TORSDOF 4
ENDMDL
MODEL 2
REMARK VINA RESULT:      -6.8      1.335      1.936
REMARK  4 active torsions:
REMARK  status: ('A' for Active; 'I' for Inactive)
REMARK    1  A    between atoms: C_7  and  N_2 
REMARK    2  A    between atoms: C_10  and  C_7 
REMARK    3  A    between atoms: O_8  and  C_10 
REMARK    4  A    between atoms: C_9  and  O_8 
ROOT
ATOM      1  C   UNL d   1     -49.483  14.771  22.482  0.00  0.00     0.296 A 
ATOM      2  N   UNL d   1     -49.198  14.138  22.924  0.00  0.00    -0.266 N 
ATOM      3  S   UNL d   1     -50.237  14.555  22.186  0.00  0.00    -0.025 SA
ATOM      4  C   UNL d   1     -49.766  13.533  22.906  0.00  0.00     0.074 A 
ATOM      5  C   UNL d   1     -50.402  13.789  22.454  0.00  0.00     0.050 A 
ATOM      6  O   UNL d   1     -49.102  15.487  22.350  0.00  0.00    -0.259 OA
ATOM      7  C   UNL d   1     -49.774  12.782  23.250  0.00  0.00     0.018 A 
ATOM      8  C   UNL d   1     -51.061  13.298  22.336  0.00  0.00     0.008 A 
ATOM      9  C   UNL d   1     -50.428  12.289  23.135  0.00  0.00     0.002 A 
ATOM     10  C   UNL d   1     -51.064  12.544  22.683  0.00  0.00     0.001 A 
ENDROOT
BRANCH   2  11
ATOM     11  C   UNL d   1     -48.474  14.109  23.318  0.00  0.00     0.110 C 
BRANCH  11  12
ATOM     12  C   UNL d   1     -47.792  13.876  22.920  0.00  0.00     0.142 C 
BRANCH  12  13
ATOM     13  O   UNL d   1     -47.057  13.868  23.300  0.00  0.00    -0.304 OA
BRANCH  13  14
ATOM     14  C   UNL d   1     -46.424  13.450  22.976  0.00  0.00     0.100 A 
ATOM     15  C   UNL d   1     -45.935  13.813  22.419  0.00  0.00     0.025 A 
ATOM     16  C   UNL d   1     -45.305  13.396  22.096  0.00  0.00     0.002 A 
ATOM     17  C   UNL d   1     -45.166  12.618  22.331  0.00  0.00     0.000 A 
ATOM     18  C   UNL d   1     -45.659  12.257  22.890  0.00  0.00     0.002 A 
ATOM     19  C   UNL d   1     -46.288  12.682  23.208  0.00  0.00     0.025 A 
ENDBRANCH  13  14
ENDBRANCH  12  13
ENDBRANCH  11  12
ENDBRANCH   2  11
TORSDOF 4
ENDMDL
MODEL 3
REMARK VINA RESULT:      -6.8      1.197      1.730
REMARK  4 active torsions:
REMARK  status: ('A' for Active; 'I' for Inactive)
REMARK    1  A    between atoms: C_7  and  N_2 
REMARK    2  A    between atoms: C_10  and  C_7 
REMARK    3  A    between atoms: O_8  and  C_10 
REMARK    4  A    between atoms: C_9  and  O_8 
ROOT
ATOM      1  C   UNL d   1     -49.616  12.176  22.513  0.00  0.00     0.296 A 
ATOM      2  N   UNL d   1     -49.327  12.861  22.868  0.00  0.00    -0.266 N 
ATOM      3  S   UNL d   1     -50.324  12.379  22.111  0.00  0.00    -0.025 SA
ATOM      4  C   UNL d   1     -49.846  13.483  22.691  0.00  0.00     0.074 A 
ATOM      5  C   UNL d   1     -50.456  13.188  22.227  0.00  0.00     0.050 A 
ATOM      6  O   UNL d   1     -49.278  11.429  22.544  0.00  0.00    -0.259 OA
ATOM      7  C   UNL d   1     -49.829  14.283  22.900  0.00  0.00     0.018 A 
ATOM      8  C   UNL d   1     -51.064  13.687  21.962  0.00  0.00     0.008 A 
ATOM      9  C   UNL d   1     -50.433  14.784  22.638  0.00  0.00     0.002 A 
ATOM     10  C   UNL d   1     -51.044  14.489  22.174  0.00  0.00     0.001 A 
ENDROOT
BRANCH   2  11
ATOM     11  C   UNL d   1     -48.640  12.917  23.321  0.00  0.00     0.110 C 
BRANCH  11  12
ATOM     12  C   UNL d   1     -47.901  12.907  22.960  0.00  0.00     0.142 C 
BRANCH  12  13
ATOM     13  O   UNL d   1     -47.212  13.055  23.395  0.00  0.00    -0.304 OA
BRANCH  13  14
ATOM     14  C   UNL d   1     -46.475  13.046  23.024  0.00  0.00     0.100 A 
ATOM     15  C   UNL d   1     -46.020  12.357  23.028  0.00  0.00     0.025 A 
ATOM     16  C   UNL d   1     -45.287  12.349  22.658  0.00  0.00     0.002 A 
ATOM     17  C   UNL d   1     -45.010  13.031  22.285  0.00  0.00     0.000 A 
ATOM     18  C   UNL d   1     -45.468  13.721  22.283  0.00  0.00     0.002 A 
ATOM     19  C   UNL d   1     -46.202  13.719  22.656  0.00  0.00     0.025 A 
ENDBRANCH  13  14
ENDBRANCH  12  13
ENDBRANCH  11  12
ENDBRANCH   2  11
TORSDOF 4
ENDMDL
MODEL 4
REMARK VINA RESULT:      -6.1      9.204     10.558
REMARK  4 active torsions:
REMARK  status: ('A' for Active; 'I' for Inactive)
REMARK    1  A    between atoms: C_7  and  N_2 
REMARK    2  A    between atoms: C_10  and  C_7 
REMARK    3  A    between atoms: O_8  and  C_10 
REMARK    4  A    between atoms: C_9  and  O_8 
ROOT
ATOM      1  C   UNL d   1     -40.310  15.163  17.290  0.00  0.00     0.296 A 
ATOM      2  N   UNL d   1     -40.111  14.529  17.777  0.00  0.00    -0.266 N 
ATOM      3  S   UNL d   1     -39.801  15.139  16.624  0.00  0.00    -0.025 SA
ATOM      4  C   UNL d   1     -39.487  14.115  17.421  0.00  0.00     0.074 A 
ATOM      5  C   UNL d   1     -39.297  14.489  16.715  0.00  0.00     0.050 A 
ATOM      6  O   UNL d   1     -40.897  15.719  17.427  0.00  0.00    -0.259 OA
ATOM      7  C   UNL d   1     -39.072  13.441  17.660  0.00  0.00     0.018 A 
ATOM      8  C   UNL d   1     -38.688  14.197  16.232  0.00  0.00     0.008 A 
ATOM      9  C   UNL d   1     -38.464  13.147  17.183  0.00  0.00     0.002 A 
ATOM     10  C   UNL d   1     -38.275  13.521  16.477  0.00  0.00     0.001 A 
ENDROOT
BRANCH   2  11
ATOM     11  C   UNL d   1     -40.470  14.339  18.495  0.00  0.00     0.110 C 
BRANCH  11  12
ATOM     12  C   UNL d   1     -40.275  14.751  19.180  0.00  0.00     0.142 C 
BRANCH  12  13
ATOM     13  O   UNL d   1     -40.599  14.540  19.912  0.00  0.00    -0.304 OA
BRANCH  13  14
ATOM     14  C   UNL d   1     -40.301  14.863  20.609  0.00  0.00     0.100 A 
ATOM     15  C   UNL d   1     -40.566  15.601  20.868  0.00  0.00     0.025 A 
ATOM     16  C   UNL d   1     -40.268  15.922  21.562  0.00  0.00     0.002 A 
ATOM     17  C   UNL d   1     -39.705  15.505  21.997  0.00  0.00     0.000 A 
ATOM     18  C   UNL d   1     -39.440  14.765  21.735  0.00  0.00     0.002 A 
ATOM     19  C   UNL d   1     -39.745  14.451  21.038  0.00  0.00     0.025 A 
ENDBRANCH  13  14
ENDBRANCH  12  13
ENDBRANCH  11  12
ENDBRANCH   2  11
TORSDOF 4
ENDMDL
MODEL 5
REMARK VINA RESULT:      -5.8      1.188      1.658
REMARK  4 active torsions:
REMARK  status: ('A' for Active; 'I' for Inactive)
REMARK    1  A    between atoms: C_7  and  N_2 
REMARK    2  A    between atoms: C_10  and  C_7 
REMARK    3  A    between atoms: O_8  and  C_10 
REMARK    4  A    between atoms: C_9  and  O_8 
ROOT
ATOM      1  C   UNL d   1     -48.649  15.169  22.645  0.00  0.00     0.296 A 
ATOM      2  N   UNL d   1     -48.836  14.368  22.601  0.00  0.00    -0.266 N 
ATOM      3  S   UNL d   1     -49.293  15.560  23.014  0.00  0.00    -0.025 SA
ATOM      4  C   UNL d   1     -49.586  14.259  22.939  0.00  0.00     0.074 A 
ATOM      5  C   UNL d   1     -49.865  14.988  23.192  0.00  0.00     0.050 A 
ATOM      6  O   UNL d   1     -47.960  15.526  22.377  0.00  0.00    -0.259 OA
ATOM      7  C   UNL d   1     -50.044  13.578  23.043  0.00  0.00     0.018 A 
ATOM      8  C   UNL d   1     -50.609  15.054  23.555  0.00  0.00     0.008 A 
ATOM      9  C   UNL d   1     -50.785  13.638  23.405  0.00  0.00     0.002 A 
ATOM     10  C   UNL d   1     -51.064  14.368  23.658  0.00  0.00     0.001 A 
ENDROOT
BRANCH   2  11
ATOM     11  C   UNL d   1     -48.361  13.777  22.278  0.00  0.00     0.110 C 
BRANCH  11  12
ATOM     12  C   UNL d   1     -47.868  13.328  22.760  0.00  0.00     0.142 C 
BRANCH  12  13
ATOM     13  O   UNL d   1     -47.195  12.955  22.454  0.00  0.00    -0.304 OA
BRANCH  13  14
ATOM     14  C   UNL d   1     -46.836  12.339  22.868  0.00  0.00     0.100 A 
ATOM     15  C   UNL d   1     -47.299  11.799  23.286  0.00  0.00     0.025 A 
ATOM     16  C   UNL d   1     -46.940  11.186  23.698  0.00  0.00     0.002 A 
ATOM     17  C   UNL d   1     -46.119  11.114  23.691  0.00  0.00     0.000 A 
ATOM     18  C   UNL d   1     -45.656  11.657  23.271  0.00  0.00     0.002 A 
ATOM     19  C   UNL d   1     -46.025  12.269  22.861  0.00  0.00     0.025 A 
ENDBRANCH  13  14
ENDBRANCH  12  13
ENDBRANCH  11  12
ENDBRANCH   2  11
TORSDOF 4
ENDMDL
MODEL 6
REMARK VINA RESULT:      -5.1      9.915     10.603
REMARK  4 active torsions:
REMARK  status: ('A' for Active; 'I' for Inactive)
REMARK    1  A    between atoms: C_7  and  N_2 
REMARK    2  A    between atoms: C_10  and  C_7 
REMARK    3  A    between atoms: O_8  and  C_10 
REMARK    4  A    between atoms: C_9  and  O_8 
ROOT
ATOM      1  C   UNL d   1     -38.727  14.418  17.699  0.00  0.00     0.296 A 
ATOM      2  N   UNL d   1     -39.045  14.919  18.270  0.00  0.00    -0.266 N 
ATOM      3  S   UNL d   1     -39.262  14.398  17.053  0.00  0.00    -0.025 SA
ATOM      4  C   UNL d   1     -39.768  15.209  17.986  0.00  0.00     0.074 A 
ATOM      5  C   UNL d   1     -39.901  14.890  17.241  0.00  0.00     0.050 A 
ATOM      6  O   UNL d   1     -38.017  14.009  17.747  0.00  0.00    -0.259 OA
ATOM      7  C   UNL d   1     -40.319  15.727  18.322  0.00  0.00     0.018 A 
ATOM      8  C   UNL d   1     -40.587  15.082  16.815  0.00  0.00     0.008 A 
ATOM      9  C   UNL d   1     -41.004  15.920  17.902  0.00  0.00     0.002 A 
ATOM     10  C   UNL d   1     -41.137  15.601  17.157  0.00  0.00     0.001 A 
ENDROOT
BRANCH   2  11
ATOM     11  C   UNL d   1     -38.703  15.101  18.998  0.00  0.00     0.110 C 
BRANCH  11  12
ATOM     12  C   UNL d   1     -38.725  14.558  19.616  0.00  0.00     0.142 C 
BRANCH  12  13
ATOM     13  O   UNL d   1     -38.372  14.727  20.345  0.00  0.00    -0.304 OA
BRANCH  13  14
ATOM     14  C   UNL d   1     -38.518  14.248  21.000  0.00  0.00     0.100 A 
ATOM     15  C   UNL d   1     -39.141  14.427  21.511  0.00  0.00     0.025 A 
ATOM     16  C   UNL d   1     -39.286  13.949  22.162  0.00  0.00     0.002 A 
ATOM     17  C   UNL d   1     -38.807  13.292  22.302  0.00  0.00     0.000 A 
ATOM     18  C   UNL d   1     -38.182  13.115  21.788  0.00  0.00     0.002 A 
ATOM     19  C   UNL d   1     -38.044  13.600  21.138  0.00  0.00     0.025 A 
ENDBRANCH  13  14
ENDBRANCH  12  13
ENDBRANCH  11  12
ENDBRANCH   2  11
TORSDOF 4
ENDMDL
MODEL 7
REMARK VINA RESULT:      -4.9      9.363     11.336
REMARK  4 active torsions:
REMARK  status: ('A' for Active; 'I' for Inactive)
REMARK    1  A    between atoms: C_7  and  N_2 
REMARK    2  A    between atoms: C_10  and  C_7 
REMARK    3  A    between atoms: O_8  and  C_10 
REMARK    4  A    between atoms: C_9  and  O_8 
ROOT
ATOM      1  C   UNL d   1     -38.248  13.075  18.048  0.00  0.00     0.296 A 
ATOM      2  N   UNL d   1     -38.305  13.896  18.084  0.00  0.00    -0.266 N 
ATOM      3  S   UNL d   1     -38.207  12.860  17.239  0.00  0.00    -0.025 SA
ATOM      4  C   UNL d   1     -38.300  14.190  17.309  0.00  0.00     0.074 A 
ATOM      5  C   UNL d   1     -38.240  13.556  16.791  0.00  0.00     0.050 A 
ATOM      6  O   UNL d   1     -38.234  12.557  18.685  0.00  0.00    -0.259 OA
ATOM      7  C   UNL d   1     -38.343  14.963  17.018  0.00  0.00     0.018 A 
ATOM      8  C   UNL d   1     -38.222  13.680  15.971  0.00  0.00     0.008 A 
ATOM      9  C   UNL d   1     -38.325  15.092  16.202  0.00  0.00     0.002 A 
ATOM     10  C   UNL d   1     -38.266  14.458  15.684  0.00  0.00     0.001 A 
ENDROOT
BRANCH   2  11
ATOM     11  C   UNL d   1     -38.358  14.347  18.773  0.00  0.00     0.110 C 
BRANCH  11  12
ATOM     12  C   UNL d   1     -39.075  14.420  19.169  0.00  0.00     0.142 C 
BRANCH  12  13
ATOM     13  O   UNL d   1     -39.130  14.845  19.878  0.00  0.00    -0.304 OA
BRANCH  13  14
ATOM     14  C   UNL d   1     -39.868  15.024  20.200  0.00  0.00     0.100 A 
ATOM     15  C   UNL d   1     -40.239  14.485  20.703  0.00  0.00     0.025 A 
ATOM     16  C   UNL d   1     -40.974  14.665  21.023  0.00  0.00     0.002 A 
ATOM     17  C   UNL d   1     -41.335  15.383  20.840  0.00  0.00     0.000 A 
ATOM     18  C   UNL d   1     -40.960  15.922  20.335  0.00  0.00     0.002 A 
ATOM     19  C   UNL d   1     -40.224  15.733  20.019  0.00  0.00     0.025 A 
ENDBRANCH  13  14
ENDBRANCH  12  13
ENDBRANCH  11  12
ENDBRANCH   2  11
TORSDOF 4
ENDMDL
MODEL 8
REMARK VINA RESULT:      -4.8      2.163      3.077
REMARK  4 active torsions:
REMARK  status: ('A' for Active; 'I' for Inactive)
REMARK    1  A    between atoms: C_7  and  N_2 
REMARK    2  A    between atoms: C_10  and  C_7 
REMARK    3  A    between atoms: O_8  and  C_10 
REMARK    4  A    between atoms: C_9  and  O_8 
ROOT
ATOM      1  C   UNL d   1     -47.498  13.426  22.660  0.00  0.00     0.296 A 
ATOM      2  N   UNL d   1     -47.522  12.828  23.225  0.00  0.00    -0.266 N 
ATOM      3  S   UNL d   1     -48.262  13.483  22.318  0.00  0.00    -0.025 SA
ATOM      4  C   UNL d   1     -48.290  12.514  23.237  0.00  0.00     0.074 A 
ATOM      5  C   UNL d   1     -48.743  12.915  22.682  0.00  0.00     0.050 A 
ATOM      6  O   UNL d   1     -46.847  13.886  22.462  0.00  0.00    -0.259 OA
ATOM      7  C   UNL d   1     -48.626  11.910  23.691  0.00  0.00     0.018 A 
ATOM      8  C   UNL d   1     -49.542  12.721  22.568  0.00  0.00     0.008 A 
ATOM      9  C   UNL d   1     -49.421  11.713  23.581  0.00  0.00     0.002 A 
ATOM     10  C   UNL d   1     -49.874  12.114  23.026  0.00  0.00     0.001 A 
ENDROOT
BRANCH   2  11
ATOM     11  C   UNL d   1     -46.892  12.583  23.698  0.00  0.00     0.110 C 
BRANCH  11  12
ATOM     12  C   UNL d   1     -46.441  11.928  23.484  0.00  0.00     0.142 C 
BRANCH  12  13
ATOM     13  O   UNL d   1     -45.615  11.943  23.538  0.00  0.00    -0.304 OA
BRANCH  13  14
ATOM     14  C   UNL d   1     -45.185  11.240  23.531  0.00  0.00     0.100 A 
ATOM     15  C   UNL d   1     -44.378  11.253  23.355  0.00  0.00     0.025 A 
ATOM     16  C   UNL d   1     -43.950  10.552  23.348  0.00  0.00     0.002 A 
ATOM     17  C   UNL d   1     -44.329   9.839  23.517  0.00  0.00     0.000 A 
ATOM     18  C   UNL d   1     -45.138   9.829  23.693  0.00  0.00     0.002 A 
ATOM     19  C   UNL d   1     -45.559  10.537  23.698  0.00  0.00     0.025 A 
ENDBRANCH  13  14
ENDBRANCH  12  13
ENDBRANCH  11  12
ENDBRANCH   2  11
TORSDOF 4
ENDMDL
MODEL 9
REMARK VINA RESULT:      -4.7      1.823      4.430
REMARK  4 active torsions:
REMARK  status: ('A' for Active; 'I' for Inactive)
REMARK    1  A    between atoms: C_7  and  N_2 
REMARK    2  A    between atoms: C_10  and  C_7 
REMARK    3  A    between atoms: O_8  and  C_10 
REMARK    4  A    between atoms: C_9  and  O_8 
ROOT
ATOM      1  C   UNL d   1     -46.496  13.788  22.775  0.00  0.00     0.296 A 
ATOM      2  N   UNL d   1     -47.048  13.332  23.183  0.00  0.00    -0.266 N 
ATOM      3  S   UNL d   1     -45.824  13.305  22.636  0.00  0.00    -0.025 SA
ATOM      4  C   UNL d   1     -46.727  12.576  23.297  0.00  0.00     0.074 A 
ATOM      5  C   UNL d   1     -45.978  12.560  22.962  0.00  0.00     0.050 A 
ATOM      6  O   UNL d   1     -46.581  14.571  22.545  0.00  0.00    -0.259 OA
ATOM      7  C   UNL d   1     -47.034  11.904  23.667  0.00  0.00     0.018 A 
ATOM      8  C   UNL d   1     -45.517  11.870  22.991  0.00  0.00     0.008 A 
ATOM      9  C   UNL d   1     -46.579  11.214  23.698  0.00  0.00     0.002 A 
ATOM     10  C   UNL d   1     -45.829  11.197  23.364  0.00  0.00     0.001 A 
ENDROOT
BRANCH   2  11
ATOM     11  C   UNL d   1     -47.793  13.585  23.433  0.00  0.00     0.110 C 
BRANCH  11  12
ATOM     12  C   UNL d   1     -48.410  13.663  22.895  0.00  0.00     0.142 C 
BRANCH  12  13
ATOM     13  O   UNL d   1     -49.188  13.782  23.152  0.00  0.00    -0.304 OA
BRANCH  13  14
ATOM     14  C   UNL d   1     -49.813  13.756  22.614  0.00  0.00     0.100 A 
ATOM     15  C   UNL d   1     -50.094  13.028  22.345  0.00  0.00     0.025 A 
ATOM     16  C   UNL d   1     -50.716  13.004  21.809  0.00  0.00     0.002 A 
ATOM     17  C   UNL d   1     -51.056  13.707  21.544  0.00  0.00     0.000 A 
ATOM     18  C   UNL d   1     -50.771  14.436  21.815  0.00  0.00     0.002 A 
ATOM     19  C   UNL d   1     -50.147  14.451  22.352  0.00  0.00     0.025 A 
ENDBRANCH  13  14
ENDBRANCH  12  13
ENDBRANCH  11  12
ENDBRANCH   2  11
TORSDOF 4
ENDMDL
