MODEL 1
REMARK VINA RESULT:      -6.0      0.000      0.000
REMARK  2 active torsions:
REMARK  status: ('A' for Active; 'I' for Inactive)
REMARK    1  A    between atoms: C_3  and  C_1 
REMARK       I    between atoms: N_6  and  C_3 
REMARK    2  A    between atoms: C_9  and  N_7 
ROOT
ATOM      1  C   UNL d   1      58.521  -0.013  29.601  0.00  0.00     0.270 C 
ATOM      2  N   UNL d   1      58.010  -0.016  30.234  0.00  0.00    -0.269 N 
ATOM      3  N   UNL d   1      56.963  -0.040  31.542  0.00  0.00    -0.286 N 
ATOM      4  O   UNL d   1      58.592   0.682  29.129  0.00  0.00    -0.266 OA
ATOM      5  C   UNL d   1      57.939  -0.708  30.703  0.00  0.00     0.102 A 
ATOM      6  C   UNL d   1      57.551   0.652  30.434  0.00  0.00     0.102 A 
ATOM      7  C   UNL d   1      57.411  -0.707  31.355  0.00  0.00     0.101 A 
ATOM      8  C   UNL d   1      57.034   0.652  31.073  0.00  0.00     0.101 A 
ENDROOT
BRANCH   1   9
ATOM      9  C   UNL d   1      58.979  -0.693  29.409  0.00  0.00     0.120 A 
ATOM     10  C   UNL d   1      59.819  -0.673  29.509  0.00  0.00     0.305 A 
ATOM     11  O   UNL d   1      60.262  -1.336  29.322  0.00  0.00    -0.273 OA
ATOM     12  O   UNL d   1      60.191   0.028  29.799  0.00  0.00    -0.259 OA
ATOM     13  C   UNL d   1      59.908  -2.021  29.039  0.00  0.00     0.103 A 
ATOM     14  C   UNL d   1      59.067  -2.042  28.939  0.00  0.00     0.023 A 
ATOM     15  C   UNL d   1      60.351  -2.691  28.850  0.00  0.00     0.025 A 
ATOM     16  C   UNL d   1      58.626  -1.376  29.128  0.00  0.00     0.012 A 
ATOM     17  C   UNL d   1      58.715  -2.731  28.656  0.00  0.00     0.002 A 
ATOM     18  C   UNL d   1      59.156  -3.390  28.470  0.00  0.00     0.000 A 
ATOM     19  C   UNL d   1      59.997  -3.369  28.570  0.00  0.00     0.002 A 
ENDBRANCH   1   9
BRANCH   3  20
ATOM     20  C   UNL d   1      56.449  -0.047  32.182  0.00  0.00     0.148 A 
ATOM     21  N   UNL d   1      56.177   0.677  32.507  0.00  0.00    -0.227 NA
ATOM     22  C   UNL d   1      55.655   0.681  33.156  0.00  0.00     0.101 A 
ATOM     23  C   UNL d   1      55.410  -0.045  33.475  0.00  0.00     0.021 A 
ATOM     24  C   UNL d   1      55.682  -0.769  33.150  0.00  0.00     0.005 A 
ATOM     25  C   UNL d   1      56.196  -0.762  32.509  0.00  0.00     0.037 A 
ENDBRANCH   3  20
TORSDOF 2
ENDMDL
MODEL 2
REMARK VINA RESULT:      -4.2      1.405      4.700
REMARK  2 active torsions:
REMARK  status: ('A' for Active; 'I' for Inactive)
REMARK    1  A    between atoms: C_3  and  C_1 
REMARK       I    between atoms: N_6  and  C_3 
REMARK    2  A    between atoms: C_9  and  N_7 
ROOT
ATOM      1  C   UNL d   1      57.740  -0.003  30.412  0.00  0.00     0.270 C 
ATOM      2  N   UNL d   1      58.131  -0.639  30.087  0.00  0.00    -0.269 N 
ATOM      3  N   UNL d   1      58.933  -1.957  29.433  0.00  0.00    -0.286 N 
ATOM      4  O   UNL d   1      57.585   0.675  29.937  0.00  0.00    -0.266 OA
ATOM      5  C   UNL d   1      58.285  -1.314  30.560  0.00  0.00     0.102 A 
ATOM      6  C   UNL d   1      58.384  -0.642  29.291  0.00  0.00     0.102 A 
ATOM      7  C   UNL d   1      58.687  -1.967  30.220  0.00  0.00     0.101 A 
ATOM      8  C   UNL d   1      58.778  -1.281  28.959  0.00  0.00     0.101 A 
ENDROOT
BRANCH   1   9
ATOM      9  C   UNL d   1      57.490  -0.013  31.215  0.00  0.00     0.120 A 
ATOM     10  C   UNL d   1      57.983   0.332  31.811  0.00  0.00     0.305 A 
ATOM     11  O   UNL d   1      57.737   0.321  32.592  0.00  0.00    -0.273 OA
ATOM     12  O   UNL d   1      58.720   0.682  31.595  0.00  0.00    -0.259 OA
ATOM     13  C   UNL d   1      57.021  -0.018  32.811  0.00  0.00     0.103 A 
ATOM     14  C   UNL d   1      56.527  -0.363  32.215  0.00  0.00     0.023 A 
ATOM     15  C   UNL d   1      56.770  -0.031  33.596  0.00  0.00     0.025 A 
ATOM     16  C   UNL d   1      56.777  -0.350  31.433  0.00  0.00     0.012 A 
ATOM     17  C   UNL d   1      55.809  -0.702  32.437  0.00  0.00     0.002 A 
ATOM     18  C   UNL d   1      55.566  -0.712  33.214  0.00  0.00     0.000 A 
ATOM     19  C   UNL d   1      56.059  -0.367  33.810  0.00  0.00     0.002 A 
ENDBRANCH   1   9
BRANCH   3  20
ATOM     20  C   UNL d   1      59.326  -2.601  29.108  0.00  0.00     0.148 A 
ATOM     21  N   UNL d   1      60.155  -2.565  28.987  0.00  0.00    -0.227 NA
ATOM     22  C   UNL d   1      60.565  -3.212  28.659  0.00  0.00     0.101 A 
ATOM     23  C   UNL d   1      60.136  -3.892  28.455  0.00  0.00     0.021 A 
ATOM     24  C   UNL d   1      59.306  -3.928  28.577  0.00  0.00     0.005 A 
ATOM     25  C   UNL d   1      58.913  -3.284  28.901  0.00  0.00     0.037 A 
ENDBRANCH   3  20
TORSDOF 2
ENDMDL
MODEL 3
REMARK VINA RESULT:      -3.2      1.566      2.215
REMARK  2 active torsions:
REMARK  status: ('A' for Active; 'I' for Inactive)
REMARK    1  A    between atoms: C_3  and  C_1 
REMARK       I    between atoms: N_6  and  C_3 
REMARK    2  A    between atoms: C_9  and  N_7 
ROOT
ATOM      1  C   UNL d   1      57.814  -1.092  30.376  0.00  0.00     0.270 C 
ATOM      2  N   UNL d   1      57.463  -0.806  31.053  0.00  0.00    -0.269 N 
ATOM      3  N   UNL d   1      56.750  -0.202  32.444  0.00  0.00    -0.286 N 
ATOM      4  O   UNL d   1      57.584  -1.846  30.077  0.00  0.00    -0.266 OA
ATOM      5  C   UNL d   1      57.692  -0.056  31.350  0.00  0.00     0.102 A 
ATOM      6  C   UNL d   1      56.878  -1.237  31.463  0.00  0.00     0.102 A 
ATOM      7  C   UNL d   1      57.327   0.235  32.048  0.00  0.00     0.101 A 
ATOM      8  C   UNL d   1      56.521  -0.952  32.146  0.00  0.00     0.101 A 
ENDROOT
BRANCH   1   9
ATOM      9  C   UNL d   1      58.402  -0.647  29.972  0.00  0.00     0.120 A 
ATOM     10  C   UNL d   1      58.180  -0.158  29.317  0.00  0.00     0.305 A 
ATOM     11  O   UNL d   1      58.755   0.274  28.926  0.00  0.00    -0.273 OA
ATOM     12  O   UNL d   1      57.372  -0.120  29.077  0.00  0.00    -0.259 OA
ATOM     13  C   UNL d   1      59.543   0.243  29.153  0.00  0.00     0.103 A 
ATOM     14  C   UNL d   1      59.766  -0.246  29.808  0.00  0.00     0.023 A 
ATOM     15  C   UNL d   1      60.125   0.677  28.761  0.00  0.00     0.025 A 
ATOM     16  C   UNL d   1      59.188  -0.678  30.199  0.00  0.00     0.012 A 
ATOM     17  C   UNL d   1      60.558  -0.275  30.034  0.00  0.00     0.002 A 
ATOM     18  C   UNL d   1      61.129   0.155  29.644  0.00  0.00     0.000 A 
ATOM     19  C   UNL d   1      60.906   0.644  28.989  0.00  0.00     0.002 A 
ENDBRANCH   1   9
BRANCH   3  20
ATOM     20  C   UNL d   1      56.399   0.091  33.126  0.00  0.00     0.148 A 
ATOM     21  N   UNL d   1      56.866   0.228  33.809  0.00  0.00    -0.227 NA
ATOM     22  C   UNL d   1      56.520   0.525  34.507  0.00  0.00     0.101 A 
ATOM     23  C   UNL d   1      55.705   0.682  34.511  0.00  0.00     0.021 A 
ATOM     24  C   UNL d   1      55.238   0.545  33.827  0.00  0.00     0.005 A 
ATOM     25  C   UNL d   1      55.590   0.252  33.145  0.00  0.00     0.037 A 
ENDBRANCH   3  20
TORSDOF 2
ENDMDL
