MODEL 1
REMARK VINA RESULT:      49.6      0.000      0.000
REMARK  2 active torsions:
REMARK  status: ('A' for Active; 'I' for Inactive)
REMARK    1  A    between atoms: C_12  and  C_4 
REMARK    2  A    between atoms: C_10  and  C_5 
ROOT
ATOM      1  N   UNL d   1     -57.955 -98.821 -44.346  0.00  0.00    -0.208 N 
ATOM      2  N   UNL d   1     -57.989 -98.821 -43.518  0.00  0.00    -0.163 NA
ATOM      3  C   UNL d   1     -58.730 -98.794 -44.632  0.00  0.00     0.088 A 
ATOM      4  C   UNL d   1     -57.322 -98.843 -44.864  0.00  0.00     0.183 A 
ATOM      5  C   UNL d   1     -58.780 -98.793 -43.293  0.00  0.00     0.109 A 
ATOM      6  O   UNL d   1     -57.460 -98.838 -45.676  0.00  0.00    -0.289 OA
ATOM      7  C   UNL d   1     -59.240 -98.777 -43.978  0.00  0.00     0.041 A 
ATOM      8  C   UNL d   1     -58.867 -98.789 -45.436  0.00  0.00     0.041 A 
ATOM      9  C   UNL d   1     -58.231 -98.811 -45.965  0.00  0.00     0.103 A 
ATOM     10  C   UNL d   1     -59.638 -98.762 -45.726  0.00  0.00     0.004 A 
ATOM     11  C   UNL d   1     -58.368 -98.806 -46.776  0.00  0.00     0.025 A 
ATOM     12  C   UNL d   1     -59.776 -98.757 -46.536  0.00  0.00     0.000 A 
ATOM     13  C   UNL d   1     -59.139 -98.779 -47.063  0.00  0.00     0.002 A 
ENDROOT
BRANCH   4  14
ATOM     14  C   UNL d   1     -56.549 -98.870 -44.576  0.00  0.00     0.041 A 
ATOM     15  C   UNL d   1     -55.934 -99.007 -45.093  0.00  0.00     0.004 A 
ATOM     16  C   UNL d   1     -55.153 -99.035 -44.807  0.00  0.00     0.000 A 
ATOM     17  C   UNL d   1     -55.007 -98.924 -43.996  0.00  0.00     0.000 A 
ATOM     18  C   UNL d   1     -55.642 -98.786 -43.483  0.00  0.00     0.000 A 
ATOM     19  C   UNL d   1     -56.413 -98.759 -43.769  0.00  0.00     0.004 A 
ENDBRANCH   4  14
BRANCH   5  20
ATOM     20  C   UNL d   1     -59.067 -98.784 -42.522  0.00  0.00     0.049 A 
ATOM     21  S   UNL d   1     -59.858 -98.783 -42.300  0.00  0.00    -0.085 SA
ATOM     22  C   UNL d   1     -59.892 -98.772 -41.477  0.00  0.00     0.035 A 
ATOM     23  C   UNL d   1     -59.117 -98.765 -41.186  0.00  0.00     0.007 A 
ATOM     24  C   UNL d   1     -58.604 -98.772 -41.824  0.00  0.00     0.009 A 
ENDBRANCH   5  20
TORSDOF 2
ENDMDL
MODEL 2
REMARK VINA RESULT:      51.5      1.120      3.827
REMARK  2 active torsions:
REMARK  status: ('A' for Active; 'I' for Inactive)
REMARK    1  A    between atoms: C_12  and  C_4 
REMARK    2  A    between atoms: C_10  and  C_5 
ROOT
ATOM      1  N   UNL d   1     -57.960 -98.820 -44.528  0.00  0.00    -0.208 N 
ATOM      2  N   UNL d   1     -58.633 -98.815 -45.011  0.00  0.00    -0.163 NA
ATOM      3  C   UNL d   1     -57.295 -98.812 -45.018  0.00  0.00     0.088 A 
ATOM      4  C   UNL d   1     -57.875 -98.831 -43.713  0.00  0.00     0.183 A 
ATOM      5  C   UNL d   1     -58.386 -98.804 -45.796  0.00  0.00     0.109 A 
ATOM      6  O   UNL d   1     -57.122 -98.833 -43.383  0.00  0.00    -0.289 OA
ATOM      7  C   UNL d   1     -57.561 -98.802 -45.804  0.00  0.00     0.041 A 
ATOM      8  C   UNL d   1     -56.548 -98.815 -44.690  0.00  0.00     0.041 A 
ATOM      9  C   UNL d   1     -56.456 -98.825 -43.868  0.00  0.00     0.103 A 
ATOM     10  C   UNL d   1     -55.882 -98.807 -45.176  0.00  0.00     0.004 A 
ATOM     11  C   UNL d   1     -55.703 -98.828 -43.537  0.00  0.00     0.025 A 
ATOM     12  C   UNL d   1     -55.129 -98.809 -44.846  0.00  0.00     0.000 A 
ATOM     13  C   UNL d   1     -55.039 -98.820 -44.023  0.00  0.00     0.002 A 
ENDROOT
BRANCH   4  14
ATOM     14  C   UNL d   1     -58.541 -98.839 -43.226  0.00  0.00     0.041 A 
ATOM     15  C   UNL d   1     -59.283 -98.875 -43.562  0.00  0.00     0.004 A 
ATOM     16  C   UNL d   1     -59.956 -98.883 -43.074  0.00  0.00     0.000 A 
ATOM     17  C   UNL d   1     -59.869 -98.854 -42.248  0.00  0.00     0.000 A 
ATOM     18  C   UNL d   1     -59.108 -98.817 -41.921  0.00  0.00     0.000 A 
ATOM     19  C   UNL d   1     -58.444 -98.809 -42.406  0.00  0.00     0.004 A 
ENDBRANCH   4  14
BRANCH   5  20
ATOM     20  C   UNL d   1     -58.872 -98.797 -46.460  0.00  0.00     0.049 A 
ATOM     21  S   UNL d   1     -59.694 -98.780 -46.459  0.00  0.00    -0.085 SA
ATOM     22  C   UNL d   1     -59.950 -98.777 -47.241  0.00  0.00     0.035 A 
ATOM     23  C   UNL d   1     -59.283 -98.793 -47.732  0.00  0.00     0.007 A 
ATOM     24  C   UNL d   1     -58.616 -98.805 -47.257  0.00  0.00     0.009 A 
ENDBRANCH   5  20
TORSDOF 2
ENDMDL
