MODEL 1
REMARK VINA RESULT:      65.1      0.000      0.000
REMARK  4 active torsions:
REMARK  status: ('A' for Active; 'I' for Inactive)
REMARK    1  A    between atoms: C_10  and  N_2 
REMARK    2  A    between atoms: N_6  and  C_3 
REMARK    3  A    between atoms: N_7  and  N_6 
REMARK    4  A    between atoms: C_11  and  N_7 
ROOT
ATOM      1  C   UNL d   1      60.488  47.670  50.727  0.00  0.00     0.206 A 
ATOM      2  N   UNL d   1      61.197  47.590  50.304  0.00  0.00    -0.209 N 
ATOM      3  C   UNL d   1      60.344  48.492  50.772  0.00  0.00     0.160 A 
ATOM      4  N   UNL d   1      61.470  48.311  50.102  0.00  0.00    -0.162 NA
ATOM      5  C   UNL d   1      60.956  48.878  50.383  0.00  0.00     0.124 A 
ATOM      6  N   UNL d   1      60.013  47.066  51.045  0.00  0.00    -0.125 N 
ATOM      7  C   UNL d   1      61.029  49.706  50.298  0.00  0.00     0.024 C 
ENDROOT
BRANCH   3   8
ATOM      8  N   UNL d   1      59.742  48.903  51.115  0.00  0.00    -0.143 NA
BRANCH   8   9
ATOM      9  N   UNL d   1      59.271  49.413  50.646  0.00  0.00    -0.148 NA
BRANCH   9  10
ATOM     10  C   UNL d   1      58.465  49.513  50.836  0.00  0.00     0.103 A 
ATOM     11  C   UNL d   1      57.893  49.562  50.236  0.00  0.00     0.019 A 
ATOM     12  C   UNL d   1      57.106  49.659  50.412  0.00  0.00     0.002 A 
ATOM     13  C   UNL d   1      58.135  49.510  49.432  0.00  0.00     0.002 C 
ATOM     14  C   UNL d   1      56.538  49.708  49.814  0.00  0.00     0.000 C 
ATOM     15  C   UNL d   1      56.895  49.707  51.208  0.00  0.00     0.000 A 
ATOM     16  C   UNL d   1      57.445  49.660  51.797  0.00  0.00     0.002 A 
ATOM     17  C   UNL d   1      58.239  49.562  51.606  0.00  0.00     0.021 A 
ENDBRANCH   9  10
ENDBRANCH   8   9
ENDBRANCH   3   8
BRANCH   2  18
ATOM     18  C   UNL d   1      61.452  46.818  50.189  0.00  0.00     0.085 A 
ATOM     19  C   UNL d   1      61.287  46.253  50.748  0.00  0.00     0.019 A 
ATOM     20  C   UNL d   1      61.548  45.471  50.627  0.00  0.00     0.002 A 
ATOM     21  C   UNL d   1      61.958  45.263  49.971  0.00  0.00     0.000 A 
ATOM     22  C   UNL d   1      62.131  45.832  49.396  0.00  0.00     0.002 A 
ATOM     23  C   UNL d   1      61.886  46.601  49.493  0.00  0.00     0.019 A 
ENDBRANCH   2  18
TORSDOF 4
ENDMDL
MODEL 2
REMARK VINA RESULT:      66.7      0.664      4.528
REMARK  4 active torsions:
REMARK  status: ('A' for Active; 'I' for Inactive)
REMARK    1  A    between atoms: C_10  and  N_2 
REMARK    2  A    between atoms: N_6  and  C_3 
REMARK    3  A    between atoms: N_7  and  N_6 
REMARK    4  A    between atoms: C_11  and  N_7 
ROOT
ATOM      1  C   UNL d   1      59.705  48.669  50.576  0.00  0.00     0.206 A 
ATOM      2  N   UNL d   1      59.373  49.334  50.945  0.00  0.00    -0.209 N 
ATOM      3  C   UNL d   1      60.507  48.659  50.809  0.00  0.00     0.160 A 
ATOM      4  N   UNL d   1      59.931  49.707  51.374  0.00  0.00    -0.162 NA
ATOM      5  C   UNL d   1      60.636  49.304  51.302  0.00  0.00     0.124 A 
ATOM      6  N   UNL d   1      59.328  48.122  50.077  0.00  0.00    -0.125 N 
ATOM      7  C   UNL d   1      61.365  49.501  51.659  0.00  0.00     0.024 C 
ENDROOT
BRANCH   3   8
ATOM      8  N   UNL d   1      61.102  48.148  50.627  0.00  0.00    -0.143 NA
BRANCH   8   9
ATOM      9  N   UNL d   1      60.967  47.322  50.678  0.00  0.00    -0.148 NA
BRANCH   9  10
ATOM     10  C   UNL d   1      61.398  46.807  50.183  0.00  0.00     0.103 A 
ATOM     11  C   UNL d   1      61.281  45.986  50.221  0.00  0.00     0.019 A 
ATOM     12  C   UNL d   1      61.696  45.478  49.744  0.00  0.00     0.002 A 
ATOM     13  C   UNL d   1      60.719  45.677  50.767  0.00  0.00     0.002 C 
ATOM     14  C   UNL d   1      61.577  44.661  49.784  0.00  0.00     0.000 C 
ATOM     15  C   UNL d   1      62.240  45.807  49.218  0.00  0.00     0.000 A 
ATOM     16  C   UNL d   1      62.361  46.604  49.174  0.00  0.00     0.002 A 
ATOM     17  C   UNL d   1      61.934  47.108  49.663  0.00  0.00     0.021 A 
ENDBRANCH   9  10
ENDBRANCH   8   9
ENDBRANCH   3   8
BRANCH   2  18
ATOM     18  C   UNL d   1      58.575  49.458  50.793  0.00  0.00     0.085 A 
ATOM     19  C   UNL d   1      58.047  49.468  51.410  0.00  0.00     0.019 A 
ATOM     20  C   UNL d   1      57.239  49.594  51.251  0.00  0.00     0.002 A 
ATOM     21  C   UNL d   1      56.971  49.707  50.504  0.00  0.00     0.000 A 
ATOM     22  C   UNL d   1      57.502  49.699  49.871  0.00  0.00     0.002 A 
ATOM     23  C   UNL d   1      58.295  49.577  50.001  0.00  0.00     0.019 A 
ENDBRANCH   2  18
TORSDOF 4
ENDMDL
