MODEL 1
REMARK VINA RESULT:      -7.9      0.000      0.000
REMARK  4 active torsions:
REMARK  status: ('A' for Active; 'I' for Inactive)
REMARK    1  A    between atoms: N_3  and  S_1 
REMARK    2  A    between atoms: N_4  and  S_1 
REMARK    3  A    between atoms: N_2  and  C_7 
REMARK    4  A    between atoms: C_10  and  N_4 
ROOT
ATOM      1  N   UNL d   1     -48.697  12.460  23.496  0.00  0.00    -0.144 NA
ENDROOT
BRANCH   1   2
ATOM      2  S   UNL d   1     -49.212  12.093  22.964  0.00  0.00     0.351 S 
ATOM      3  O   UNL d   1     -48.793  11.387  23.047  0.00  0.00    -0.180 OA
ATOM      4  O   UNL d   1     -49.448  11.423  22.545  0.00  0.00    -0.180 OA
BRANCH   2   5
ATOM      5  N   UNL d   1     -49.831  12.522  22.627  0.00  0.00    -0.215 N 
ATOM      6  C   UNL d   1     -49.920  12.542  21.808  0.00  0.00     0.093 A 
ATOM      7  C   UNL d   1     -50.539  12.971  21.471  0.00  0.00     0.020 A 
ATOM      8  C   UNL d   1     -51.064  13.378  21.955  0.00  0.00     0.003 A 
ATOM      9  C   UNL d   1     -50.978  13.361  22.773  0.00  0.00     0.020 A 
ATOM     10  C   UNL d   1     -50.359  12.932  23.111  0.00  0.00     0.093 A 
ENDBRANCH   2   5
ENDBRANCH   1   2
BRANCH   1  11
ATOM     11  C   UNL d   1     -47.882  12.428  23.371  0.00  0.00     0.095 A 
ATOM     12  C   UNL d   1     -47.509  13.023  22.938  0.00  0.00     0.022 A 
ATOM     13  C   UNL d   1     -46.694  12.991  22.813  0.00  0.00     0.025 A 
ATOM     14  C   UNL d   1     -46.253  12.364  23.120  0.00  0.00     0.127 A 
ATOM     15  C   UNL d   1     -46.627  11.765  23.555  0.00  0.00     0.025 A 
ATOM     16  C   UNL d   1     -47.442  11.797  23.680  0.00  0.00     0.022 A 
BRANCH  14  17
ATOM     17  N   UNL d   1     -45.438  12.332  22.994  0.00  0.00    -0.114 N 
ATOM     18  O   UNL d   1     -45.073  12.899  22.513  0.00  0.00    -0.532 OA
ATOM     19  O   UNL d   1     -44.990  11.736  23.347  0.00  0.00    -0.532 OA
ENDBRANCH  14  17
ENDBRANCH   1  11
TORSDOF 4
ENDMDL
MODEL 2
REMARK VINA RESULT:      -7.6      1.493      1.736
REMARK  4 active torsions:
REMARK  status: ('A' for Active; 'I' for Inactive)
REMARK    1  A    between atoms: N_3  and  S_1 
REMARK    2  A    between atoms: N_4  and  S_1 
REMARK    3  A    between atoms: N_2  and  C_7 
REMARK    4  A    between atoms: C_10  and  N_4 
ROOT
ATOM      1  N   UNL d   1     -48.061  14.080  22.859  0.00  0.00    -0.144 NA
ENDROOT
BRANCH   1   2
ATOM      2  S   UNL d   1     -48.611  14.005  22.248  0.00  0.00     0.351 S 
ATOM      3  O   UNL d   1     -48.029  13.672  21.766  0.00  0.00    -0.180 OA
ATOM      4  O   UNL d   1     -48.796  13.774  21.478  0.00  0.00    -0.180 OA
BRANCH   2   5
ATOM      5  N   UNL d   1     -49.388  14.257  22.359  0.00  0.00    -0.215 N 
ATOM      6  C   UNL d   1     -50.012  13.825  22.036  0.00  0.00     0.093 A 
ATOM      7  C   UNL d   1     -50.789  14.076  22.148  0.00  0.00     0.020 A 
ATOM      8  C   UNL d   1     -50.939  14.758  22.582  0.00  0.00     0.003 A 
ATOM      9  C   UNL d   1     -50.320  15.192  22.907  0.00  0.00     0.020 A 
ATOM     10  C   UNL d   1     -49.542  14.940  22.795  0.00  0.00     0.093 A 
ENDBRANCH   2   5
ENDBRANCH   1   2
BRANCH   1  11
ATOM     11  C   UNL d   1     -47.520  13.473  23.004  0.00  0.00     0.095 A 
ATOM     12  C   UNL d   1     -47.768  12.782  23.380  0.00  0.00     0.022 A 
ATOM     13  C   UNL d   1     -47.228  12.176  23.526  0.00  0.00     0.025 A 
ATOM     14  C   UNL d   1     -46.440  12.261  23.294  0.00  0.00     0.127 A 
ATOM     15  C   UNL d   1     -46.190  12.955  22.916  0.00  0.00     0.025 A 
ATOM     16  C   UNL d   1     -46.730  13.561  22.771  0.00  0.00     0.022 A 
BRANCH  14  17
ATOM     17  N   UNL d   1     -45.900  11.654  23.439  0.00  0.00    -0.114 N 
ATOM     18  O   UNL d   1     -46.170  10.915  23.697  0.00  0.00    -0.532 OA
ATOM     19  O   UNL d   1     -45.093  11.786  23.328  0.00  0.00    -0.532 OA
ENDBRANCH  14  17
ENDBRANCH   1  11
TORSDOF 4
ENDMDL
