MODEL 1
REMARK VINA RESULT:      -7.4      0.000      0.000
REMARK  4 active torsions:
REMARK  status: ('A' for Active; 'I' for Inactive)
REMARK    1  A    between atoms: C_2  and  C_1 
REMARK       I    between atoms: N_5  and  C_1 
REMARK    2  A    between atoms: C_4  and  C_2 
REMARK    3  A    between atoms: C_3  and  C_4 
REMARK    4  A    between atoms: C_9  and  N_5 
ROOT
ATOM      1  C   UNL d   1      53.949  32.203  54.264  0.00  0.00     0.280 C 
ATOM      2  N   UNL d   1      53.938  31.832  53.516  0.00  0.00    -0.208 NA
ATOM      3  O   UNL d   1      53.544  31.880  54.906  0.00  0.00    -0.265 OA
ENDROOT
BRANCH   1   4
ATOM      4  C   UNL d   1      54.370  32.900  54.360  0.00  0.00     0.069 C 
BRANCH   4   5
ATOM      5  C   UNL d   1      54.327  33.315  55.086  0.00  0.00     0.075 C 
BRANCH   5   6
ATOM      6  C   UNL d   1      54.705  34.058  55.158  0.00  0.00     0.211 C 
ATOM      7  O   UNL d   1      54.256  34.759  55.068  0.00  0.00    -0.644 OA
ATOM      8  O   UNL d   1      55.517  34.117  55.319  0.00  0.00    -0.644 OA
ENDBRANCH   5   6
ENDBRANCH   4   5
ENDBRANCH   1   4
BRANCH   2   9
ATOM      9  C   UNL d   1      53.507  31.122  53.423  0.00  0.00     0.085 A 
ATOM     10  C   UNL d   1      52.766  31.131  53.056  0.00  0.00     0.019 A 
ATOM     11  C   UNL d   1      52.341  30.438  52.963  0.00  0.00     0.002 A 
ATOM     12  C   UNL d   1      52.644  29.723  53.232  0.00  0.00     0.000 A 
ATOM     13  C   UNL d   1      53.397  29.704  53.606  0.00  0.00     0.002 A 
ATOM     14  C   UNL d   1      53.812  30.408  53.692  0.00  0.00     0.019 A 
ENDBRANCH   2   9
TORSDOF 4
ENDMDL
MODEL 2
REMARK VINA RESULT:      -7.3      2.255      3.888
REMARK  4 active torsions:
REMARK  status: ('A' for Active; 'I' for Inactive)
REMARK    1  A    between atoms: C_2  and  C_1 
REMARK       I    between atoms: N_5  and  C_1 
REMARK    2  A    between atoms: C_4  and  C_2 
REMARK    3  A    between atoms: C_3  and  C_4 
REMARK    4  A    between atoms: C_9  and  N_5 
ROOT
ATOM      1  C   UNL d   1      52.890  31.932  53.192  0.00  0.00     0.280 C 
ATOM      2  N   UNL d   1      52.744  32.544  53.742  0.00  0.00    -0.208 NA
ATOM      3  O   UNL d   1      52.759  32.044  52.385  0.00  0.00    -0.265 OA
ENDROOT
BRANCH   1   4
ATOM      4  C   UNL d   1      53.169  31.209  53.461  0.00  0.00     0.069 C 
BRANCH   4   5
ATOM      5  C   UNL d   1      52.936  30.504  53.074  0.00  0.00     0.075 C 
BRANCH   5   6
ATOM      6  C   UNL d   1      53.045  29.769  53.457  0.00  0.00     0.211 C 
ATOM      7  O   UNL d   1      52.429  29.202  53.443  0.00  0.00    -0.644 OA
ATOM      8  O   UNL d   1      53.751  29.586  53.852  0.00  0.00    -0.644 OA
ENDBRANCH   5   6
ENDBRANCH   4   5
ENDBRANCH   1   4
BRANCH   2   9
ATOM      9  C   UNL d   1      52.460  33.279  53.463  0.00  0.00     0.085 A 
ATOM     10  C   UNL d   1      52.978  33.917  53.372  0.00  0.00     0.019 A 
ATOM     11  C   UNL d   1      52.705  34.638  53.100  0.00  0.00     0.002 A 
ATOM     12  C   UNL d   1      51.910  34.740  52.913  0.00  0.00     0.000 A 
ATOM     13  C   UNL d   1      51.376  34.096  53.003  0.00  0.00     0.002 A 
ATOM     14  C   UNL d   1      51.666  33.378  53.278  0.00  0.00     0.019 A 
ENDBRANCH   2   9
TORSDOF 4
ENDMDL
MODEL 3
REMARK VINA RESULT:      -7.1      1.460      3.831
REMARK  4 active torsions:
REMARK  status: ('A' for Active; 'I' for Inactive)
REMARK    1  A    between atoms: C_2  and  C_1 
REMARK       I    between atoms: N_5  and  C_1 
REMARK    2  A    between atoms: C_4  and  C_2 
REMARK    3  A    between atoms: C_3  and  C_4 
REMARK    4  A    between atoms: C_9  and  N_5 
ROOT
ATOM      1  C   UNL d   1      53.579  31.677  53.785  0.00  0.00     0.280 C 
ATOM      2  N   UNL d   1      53.291  32.184  54.384  0.00  0.00    -0.208 NA
ATOM      3  O   UNL d   1      54.287  31.839  53.394  0.00  0.00    -0.265 OA
ENDROOT
BRANCH   1   4
ATOM      4  C   UNL d   1      53.149  31.008  53.585  0.00  0.00     0.069 C 
BRANCH   4   5
ATOM      5  C   UNL d   1      53.526  30.260  53.572  0.00  0.00     0.075 C 
BRANCH   5   6
ATOM      6  C   UNL d   1      53.065  29.566  53.640  0.00  0.00     0.211 C 
ATOM      7  O   UNL d   1      53.236  29.017  54.249  0.00  0.00    -0.644 OA
ATOM      8  O   UNL d   1      52.441  29.406  53.117  0.00  0.00    -0.644 OA
ENDBRANCH   5   6
ENDBRANCH   4   5
ENDBRANCH   1   4
BRANCH   2   9
ATOM      9  C   UNL d   1      53.732  32.864  54.584  0.00  0.00     0.085 A 
ATOM     10  C   UNL d   1      53.552  33.594  54.237  0.00  0.00     0.019 A 
ATOM     11  C   UNL d   1      53.982  34.262  54.431  0.00  0.00     0.002 A 
ATOM     12  C   UNL d   1      54.598  34.220  54.973  0.00  0.00     0.000 A 
ATOM     13  C   UNL d   1      54.788  33.483  55.332  0.00  0.00     0.002 A 
ATOM     14  C   UNL d   1      54.348  32.820  55.127  0.00  0.00     0.019 A 
ENDBRANCH   2   9
TORSDOF 4
ENDMDL
MODEL 4
REMARK VINA RESULT:      -7.1      2.784      3.890
REMARK  4 active torsions:
REMARK  status: ('A' for Active; 'I' for Inactive)
REMARK    1  A    between atoms: C_2  and  C_1 
REMARK       I    between atoms: N_5  and  C_1 
REMARK    2  A    between atoms: C_4  and  C_2 
REMARK    3  A    between atoms: C_3  and  C_4 
REMARK    4  A    between atoms: C_9  and  N_5 
ROOT
ATOM      1  C   UNL d   1      52.273  33.827  53.460  0.00  0.00     0.280 C 
ATOM      2  N   UNL d   1      52.587  33.193  53.904  0.00  0.00    -0.208 NA
ATOM      3  O   UNL d   1      52.736  34.479  53.262  0.00  0.00    -0.265 OA
ENDROOT
BRANCH   1   4
ATOM      4  C   UNL d   1      51.490  33.797  53.218  0.00  0.00     0.069 C 
BRANCH   4   5
ATOM      5  C   UNL d   1      51.164  34.435  52.784  0.00  0.00     0.075 C 
BRANCH   5   6
ATOM      6  C   UNL d   1      50.358  34.414  52.563  0.00  0.00     0.211 C 
ATOM      7  O   UNL d   1      50.146  34.131  51.804  0.00  0.00    -0.644 OA
ATOM      8  O   UNL d   1      49.761  34.669  53.080  0.00  0.00    -0.644 OA
ENDBRANCH   5   6
ENDBRANCH   4   5
ENDBRANCH   1   4
BRANCH   2   9
ATOM      9  C   UNL d   1      53.386  33.228  54.149  0.00  0.00     0.085 A 
ATOM     10  C   UNL d   1      53.584  33.579  54.872  0.00  0.00     0.019 A 
ATOM     11  C   UNL d   1      54.364  33.614  55.115  0.00  0.00     0.002 A 
ATOM     12  C   UNL d   1      54.963  33.302  54.646  0.00  0.00     0.000 A 
ATOM     13  C   UNL d   1      54.771  32.944  53.909  0.00  0.00     0.002 A 
ATOM     14  C   UNL d   1      53.982  32.915  53.679  0.00  0.00     0.019 A 
ENDBRANCH   2   9
TORSDOF 4
ENDMDL
MODEL 5
REMARK VINA RESULT:      -6.9      2.445      3.051
REMARK  4 active torsions:
REMARK  status: ('A' for Active; 'I' for Inactive)
REMARK    1  A    between atoms: C_2  and  C_1 
REMARK       I    between atoms: N_5  and  C_1 
REMARK    2  A    between atoms: C_4  and  C_2 
REMARK    3  A    between atoms: C_3  and  C_4 
REMARK    4  A    between atoms: C_9  and  N_5 
ROOT
ATOM      1  C   UNL d   1      52.884  33.759  53.970  0.00  0.00     0.280 C 
ATOM      2  N   UNL d   1      52.431  33.276  53.460  0.00  0.00    -0.208 NA
ATOM      3  O   UNL d   1      52.694  34.553  54.084  0.00  0.00    -0.265 OA
ENDROOT
BRANCH   1   4
ATOM      4  C   UNL d   1      53.528  33.435  54.362  0.00  0.00     0.069 C 
BRANCH   4   5
ATOM      5  C   UNL d   1      53.990  33.915  54.868  0.00  0.00     0.075 C 
BRANCH   5   6
ATOM      6  C   UNL d   1      54.649  33.584  55.262  0.00  0.00     0.211 C 
ATOM      7  O   UNL d   1      55.374  34.002  55.277  0.00  0.00    -0.644 OA
ATOM      8  O   UNL d   1      54.602  32.846  55.640  0.00  0.00    -0.644 OA
ENDBRANCH   5   6
ENDBRANCH   4   5
ENDBRANCH   1   4
BRANCH   2   9
ATOM      9  C   UNL d   1      51.776  33.610  53.063  0.00  0.00     0.085 A 
ATOM     10  C   UNL d   1      51.024  33.585  53.408  0.00  0.00     0.019 A 
ATOM     11  C   UNL d   1      50.380  33.911  53.023  0.00  0.00     0.002 A 
ATOM     12  C   UNL d   1      50.470  34.267  52.288  0.00  0.00     0.000 A 
ATOM     13  C   UNL d   1      51.230  34.296  51.929  0.00  0.00     0.002 A 
ATOM     14  C   UNL d   1      51.868  33.965  52.329  0.00  0.00     0.019 A 
ENDBRANCH   2   9
TORSDOF 4
ENDMDL
