MODEL 1
REMARK VINA RESULT:      40.9      0.000      0.000
REMARK  6 active torsions:
REMARK  status: ('A' for Active; 'I' for Inactive)
REMARK    1  A    between atoms: C_3  and  C_1 
REMARK    2  A    between atoms: C_5  and  C_1 
REMARK    3  A    between atoms: C_2  and  C_5 
REMARK    4  A    between atoms: C_4  and  C_2 
REMARK    5  A    between atoms: C_8  and  C_3 
REMARK    6  A    between atoms: C_7  and  C_4 
ROOT
ATOM      1  C   UNL d   1     -49.613  27.093  34.022  0.00  0.00     0.196 C 
ATOM      2  O   UNL d   1     -49.798  27.626  33.409  0.00  0.00    -0.287 OA
ENDROOT
BRANCH   1   3
ATOM      3  C   UNL d   1     -49.118  27.327  34.633  0.00  0.00     0.042 C 
BRANCH   3   4
ATOM      4  C   UNL d   1     -48.447  27.785  34.489  0.00  0.00     0.003 C 
BRANCH   4   5
ATOM      5  C   UNL d   1     -48.226  28.438  34.997  0.00  0.00     0.000 A 
ATOM      6  C   UNL d   1     -47.894  29.125  34.683  0.00  0.00     0.002 A 
ATOM      7  C   UNL d   1     -47.686  29.742  35.174  0.00  0.00     0.030 A 
ATOM      8  C   UNL d   1     -47.807  29.677  35.982  0.00  0.00     0.140 A 
ATOM      9  C   UNL d   1     -48.139  28.990  36.297  0.00  0.00     0.030 A 
ATOM     10  F   UNL d   1     -47.597  30.303  36.494  0.00  0.00    -0.204 F 
ATOM     11  C   UNL d   1     -48.359  28.347  35.812  0.00  0.00     0.002 A 
ENDBRANCH   4   5
ENDBRANCH   3   4
ENDBRANCH   1   3
BRANCH   1  12
ATOM     12  C   UNL d   1     -49.924  26.338  34.018  0.00  0.00     0.042 C 
BRANCH  12  13
ATOM     13  C   UNL d   1     -50.167  25.993  33.310  0.00  0.00     0.003 C 
BRANCH  13  14
ATOM     14  C   UNL d   1     -50.787  25.421  33.319  0.00  0.00     0.000 A 
ATOM     15  C   UNL d   1     -51.571  25.695  33.305  0.00  0.00     0.002 A 
ATOM     16  C   UNL d   1     -52.183  25.147  33.314  0.00  0.00     0.030 A 
ATOM     17  C   UNL d   1     -52.012  24.329  33.336  0.00  0.00     0.140 A 
ATOM     18  C   UNL d   1     -51.222  24.074  33.349  0.00  0.00     0.030 A 
ATOM     19  F   UNL d   1     -52.638  23.789  33.344  0.00  0.00    -0.204 F 
ATOM     20  C   UNL d   1     -50.610  24.623  33.340  0.00  0.00     0.002 A 
ENDBRANCH  13  14
ENDBRANCH  12  13
ENDBRANCH   1  12
TORSDOF 6
ENDMDL
MODEL 2
REMARK VINA RESULT:      41.1      0.828      1.305
REMARK  6 active torsions:
REMARK  status: ('A' for Active; 'I' for Inactive)
REMARK    1  A    between atoms: C_3  and  C_1 
REMARK    2  A    between atoms: C_5  and  C_1 
REMARK    3  A    between atoms: C_2  and  C_5 
REMARK    4  A    between atoms: C_4  and  C_2 
REMARK    5  A    between atoms: C_8  and  C_3 
REMARK    6  A    between atoms: C_7  and  C_4 
ROOT
ATOM      1  C   UNL d   1     -49.166  27.577  34.412  0.00  0.00     0.196 C 
ATOM      2  O   UNL d   1     -48.899  26.947  34.887  0.00  0.00    -0.287 OA
ENDROOT
BRANCH   1   3
ATOM      3  C   UNL d   1     -48.707  28.252  34.329  0.00  0.00     0.042 C 
BRANCH   3   4
ATOM      4  C   UNL d   1     -48.123  28.443  34.880  0.00  0.00     0.003 C 
BRANCH   4   5
ATOM      5  C   UNL d   1     -47.915  29.254  35.059  0.00  0.00     0.000 A 
ATOM      6  C   UNL d   1     -48.077  29.860  34.523  0.00  0.00     0.002 A 
ATOM      7  C   UNL d   1     -47.875  30.631  34.701  0.00  0.00     0.030 A 
ATOM      8  C   UNL d   1     -47.511  30.801  35.416  0.00  0.00     0.140 A 
ATOM      9  C   UNL d   1     -47.350  30.194  35.952  0.00  0.00     0.030 A 
ATOM     10  F   UNL d   1     -47.301  31.586  35.609  0.00  0.00    -0.204 F 
ATOM     11  C   UNL d   1     -47.548  29.400  35.789  0.00  0.00     0.002 A 
ENDBRANCH   4   5
ENDBRANCH   3   4
ENDBRANCH   1   3
BRANCH   1  12
ATOM     12  C   UNL d   1     -49.884  27.526  34.026  0.00  0.00     0.042 C 
BRANCH  12  13
ATOM     13  C   UNL d   1     -49.959  27.063  33.347  0.00  0.00     0.003 C 
BRANCH  13  14
ATOM     14  C   UNL d   1     -50.515  26.430  33.337  0.00  0.00     0.000 A 
ATOM     15  C   UNL d   1     -50.221  25.653  33.324  0.00  0.00     0.002 A 
ATOM     16  C   UNL d   1     -50.755  25.028  33.313  0.00  0.00     0.030 A 
ATOM     17  C   UNL d   1     -51.577  25.178  33.316  0.00  0.00     0.140 A 
ATOM     18  C   UNL d   1     -51.851  25.962  33.330  0.00  0.00     0.030 A 
ATOM     19  F   UNL d   1     -52.101  24.538  33.306  0.00  0.00    -0.204 F 
ATOM     20  C   UNL d   1     -51.318  26.587  33.340  0.00  0.00     0.002 A 
ENDBRANCH  13  14
ENDBRANCH  12  13
ENDBRANCH   1  12
TORSDOF 6
ENDMDL
MODEL 3
REMARK VINA RESULT:      42.0      0.955      5.664
REMARK  6 active torsions:
REMARK  status: ('A' for Active; 'I' for Inactive)
REMARK    1  A    between atoms: C_3  and  C_1 
REMARK    2  A    between atoms: C_5  and  C_1 
REMARK    3  A    between atoms: C_2  and  C_5 
REMARK    4  A    between atoms: C_4  and  C_2 
REMARK    5  A    between atoms: C_8  and  C_3 
REMARK    6  A    between atoms: C_7  and  C_4 
ROOT
ATOM      1  C   UNL d   1     -48.731  27.940  34.303  0.00  0.00     0.196 C 
ATOM      2  O   UNL d   1     -48.122  27.391  34.159  0.00  0.00    -0.287 OA
ENDROOT
BRANCH   1   3
ATOM      3  C   UNL d   1     -49.508  27.749  34.121  0.00  0.00     0.042 C 
BRANCH   3   4
ATOM      4  C   UNL d   1     -49.699  27.351  33.424  0.00  0.00     0.003 C 
BRANCH   4   5
ATOM      5  C   UNL d   1     -50.297  26.739  33.400  0.00  0.00     0.000 A 
ATOM      6  C   UNL d   1     -51.099  26.930  33.426  0.00  0.00     0.002 A 
ATOM      7  C   UNL d   1     -51.663  26.341  33.403  0.00  0.00     0.030 A 
ATOM      8  C   UNL d   1     -51.429  25.556  33.352  0.00  0.00     0.140 A 
ATOM      9  C   UNL d   1     -50.627  25.365  33.326  0.00  0.00     0.030 A 
ATOM     10  F   UNL d   1     -51.999  24.945  33.328  0.00  0.00    -0.204 F 
ATOM     11  C   UNL d   1     -50.035  25.952  33.349  0.00  0.00     0.002 A 
ENDBRANCH   4   5
ENDBRANCH   3   4
ENDBRANCH   1   3
BRANCH   1  12
ATOM     12  C   UNL d   1     -48.559  28.671  34.625  0.00  0.00     0.042 C 
BRANCH  12  13
ATOM     13  C   UNL d   1     -47.797  28.836  34.895  0.00  0.00     0.003 C 
BRANCH  13  14
ATOM     14  C   UNL d   1     -47.617  29.609  35.177  0.00  0.00     0.000 A 
ATOM     15  C   UNL d   1     -47.485  30.209  34.618  0.00  0.00     0.002 A 
ATOM     16  C   UNL d   1     -47.308  30.966  34.883  0.00  0.00     0.030 A 
ATOM     17  C   UNL d   1     -47.263  31.124  35.702  0.00  0.00     0.140 A 
ATOM     18  C   UNL d   1     -47.398  30.512  36.246  0.00  0.00     0.030 A 
ATOM     19  F   UNL d   1     -47.085  31.892  35.952  0.00  0.00    -0.204 F 
ATOM     20  C   UNL d   1     -47.575  29.754  35.982  0.00  0.00     0.002 A 
ENDBRANCH  13  14
ENDBRANCH  12  13
ENDBRANCH   1  12
TORSDOF 6
ENDMDL
