MODEL 1
REMARK VINA RESULT:      -6.7      0.000      0.000
REMARK  3 active torsions:
REMARK  status: ('A' for Active; 'I' for Inactive)
REMARK    1  A    between atoms: N_4  and  C_1 
REMARK       I    between atoms: C_7  and  N_4 
REMARK    2  A    between atoms: C_10  and  C_7 
REMARK    3  A    between atoms: O_16  and  C_15 
ROOT
ATOM      1  N   UNL d   1     -48.153  12.192  23.444  0.00  0.00    -0.183 NA
ATOM      2  C   UNL d   1     -48.708  11.944  22.883  0.00  0.00     0.281 C 
ATOM      3  O   UNL d   1     -48.472  11.433  22.264  0.00  0.00    -0.265 OA
ENDROOT
BRANCH   1   4
ATOM      4  C   UNL d   1     -47.363  11.937  23.396  0.00  0.00     0.197 A 
ATOM      5  N   UNL d   1     -46.741  12.354  23.033  0.00  0.00    -0.221 NA
ATOM      6  C   UNL d   1     -46.050  11.902  23.111  0.00  0.00     0.092 A 
ATOM      7  C   UNL d   1     -45.275  12.034  22.863  0.00  0.00     0.039 A 
ATOM      8  C   UNL d   1     -46.243  11.204  23.524  0.00  0.00     0.068 A 
ATOM      9  C   UNL d   1     -44.686  11.465  23.026  0.00  0.00     0.082 A 
ATOM     10  N   UNL d   1     -44.881  10.778  23.433  0.00  0.00    -0.301 N 
ATOM     11  C   UNL d   1     -45.657  10.649  23.680  0.00  0.00     0.088 A 
ATOM     12  C   UNL d   1     -44.289  10.211  23.595  0.00  0.00     0.100 C 
ATOM     13  S   UNL d   1     -47.053  11.232  23.695  0.00  0.00    -0.045 SA
ENDBRANCH   1   4
BRANCH   2  14
ATOM     14  C   UNL d   1     -49.493  12.197  22.931  0.00  0.00     0.060 A 
ATOM     15  C   UNL d   1     -49.781  12.748  22.393  0.00  0.00     0.029 A 
ATOM     16  C   UNL d   1     -50.559  12.997  22.442  0.00  0.00     0.094 A 
ATOM     17  C   UNL d   1     -51.053  12.699  23.030  0.00  0.00     0.024 A 
ATOM     18  C   UNL d   1     -50.757  12.147  23.567  0.00  0.00     0.002 A 
ATOM     19  C   UNL d   1     -49.979  11.897  23.517  0.00  0.00     0.005 A 
BRANCH  16  20
ATOM     20  O   UNL d   1     -50.862  13.561  21.894  0.00  0.00    -0.328 OA
ATOM     21  C   UNL d   1     -50.853  14.368  22.072  0.00  0.00     0.181 C 
ENDBRANCH  16  20
ENDBRANCH   2  14
TORSDOF 3
ENDMDL
MODEL 2
REMARK VINA RESULT:      -6.7      2.137      5.184
REMARK  3 active torsions:
REMARK  status: ('A' for Active; 'I' for Inactive)
REMARK    1  A    between atoms: N_4  and  C_1 
REMARK       I    between atoms: C_7  and  N_4 
REMARK    2  A    between atoms: C_10  and  C_7 
REMARK    3  A    between atoms: O_16  and  C_15 
ROOT
ATOM      1  N   UNL d   1     -47.250  13.253  22.525  0.00  0.00    -0.183 NA
ATOM      2  C   UNL d   1     -46.527  13.444  22.879  0.00  0.00     0.281 C 
ATOM      3  O   UNL d   1     -46.478  14.102  23.393  0.00  0.00    -0.265 OA
ENDROOT
BRANCH   1   4
ATOM      4  C   UNL d   1     -47.927  13.710  22.677  0.00  0.00     0.197 A 
ATOM      5  N   UNL d   1     -48.040  14.501  22.444  0.00  0.00    -0.221 NA
ATOM      6  C   UNL d   1     -48.789  14.741  22.709  0.00  0.00     0.092 A 
ATOM      7  C   UNL d   1     -49.193  15.456  22.639  0.00  0.00     0.039 A 
ATOM      8  C   UNL d   1     -49.141  14.099  23.106  0.00  0.00     0.068 A 
ATOM      9  C   UNL d   1     -49.957  15.533  22.970  0.00  0.00     0.082 A 
ATOM     10  N   UNL d   1     -50.300  14.897  23.362  0.00  0.00    -0.301 N 
ATOM     11  C   UNL d   1     -49.892  14.183  23.428  0.00  0.00     0.088 A 
ATOM     12  C   UNL d   1     -51.063  14.977  23.691  0.00  0.00     0.100 C 
ATOM     13  S   UNL d   1     -48.605  13.468  23.083  0.00  0.00    -0.045 SA
ENDBRANCH   1   4
BRANCH   2  14
ATOM     14  C   UNL d   1     -45.854  12.990  22.727  0.00  0.00     0.060 A 
ATOM     15  C   UNL d   1     -45.739  12.280  23.124  0.00  0.00     0.029 A 
ATOM     16  C   UNL d   1     -45.071  11.831  22.972  0.00  0.00     0.094 A 
ATOM     17  C   UNL d   1     -44.515  12.089  22.422  0.00  0.00     0.024 A 
ATOM     18  C   UNL d   1     -44.638  12.803  22.027  0.00  0.00     0.002 A 
ATOM     19  C   UNL d   1     -45.305  13.252  22.179  0.00  0.00     0.005 A 
BRANCH  16  20
ATOM     20  O   UNL d   1     -44.947  11.102  23.376  0.00  0.00    -0.328 OA
ATOM     21  C   UNL d   1     -44.208  10.732  23.357  0.00  0.00     0.181 C 
ENDBRANCH  16  20
ENDBRANCH   2  14
TORSDOF 3
ENDMDL
MODEL 3
REMARK VINA RESULT:      -6.2      1.480      1.864
REMARK  3 active torsions:
REMARK  status: ('A' for Active; 'I' for Inactive)
REMARK    1  A    between atoms: N_4  and  C_1 
REMARK       I    between atoms: C_7  and  N_4 
REMARK    2  A    between atoms: C_10  and  C_7 
REMARK    3  A    between atoms: O_16  and  C_15 
ROOT
ATOM      1  N   UNL d   1     -48.146  13.512  23.190  0.00  0.00    -0.183 NA
ATOM      2  C   UNL d   1     -48.773  13.388  22.664  0.00  0.00     0.281 C 
ATOM      3  O   UNL d   1     -48.629  13.022  21.927  0.00  0.00    -0.265 OA
ENDROOT
BRANCH   1   4
ATOM      4  C   UNL d   1     -47.375  13.274  22.990  0.00  0.00     0.197 A 
ATOM      5  N   UNL d   1     -47.010  12.565  23.228  0.00  0.00    -0.221 NA
ATOM      6  C   UNL d   1     -46.245  12.551  22.906  0.00  0.00     0.092 A 
ATOM      7  C   UNL d   1     -45.639  11.995  22.954  0.00  0.00     0.039 A 
ATOM      8  C   UNL d   1     -46.136  13.251  22.467  0.00  0.00     0.068 A 
ATOM      9  C   UNL d   1     -44.915  12.137  22.562  0.00  0.00     0.082 A 
ATOM     10  N   UNL d   1     -44.812  12.829  22.130  0.00  0.00    -0.301 N 
ATOM     11  C   UNL d   1     -45.422  13.383  22.084  0.00  0.00     0.088 A 
ATOM     12  C   UNL d   1     -44.088  12.968  21.739  0.00  0.00     0.100 C 
ATOM     13  S   UNL d   1     -46.836  13.691  22.523  0.00  0.00    -0.045 SA
ENDBRANCH   1   4
BRANCH   2  14
ATOM     14  C   UNL d   1     -49.539  13.624  22.864  0.00  0.00     0.060 A 
ATOM     15  C   UNL d   1     -49.744  14.420  22.837  0.00  0.00     0.029 A 
ATOM     16  C   UNL d   1     -50.504  14.652  23.035  0.00  0.00     0.094 A 
ATOM     17  C   UNL d   1     -51.063  14.090  23.261  0.00  0.00     0.024 A 
ATOM     18  C   UNL d   1     -50.849  13.294  23.286  0.00  0.00     0.002 A 
ATOM     19  C   UNL d   1     -50.090  13.062  23.088  0.00  0.00     0.005 A 
BRANCH  16  20
ATOM     20  O   UNL d   1     -50.722  15.466  23.009  0.00  0.00    -0.328 OA
ATOM     21  C   UNL d   1     -50.723  15.922  23.698  0.00  0.00     0.181 C 
ENDBRANCH  16  20
ENDBRANCH   2  14
TORSDOF 3
ENDMDL
MODEL 4
REMARK VINA RESULT:      -5.4      9.392     10.221
REMARK  3 active torsions:
REMARK  status: ('A' for Active; 'I' for Inactive)
REMARK    1  A    between atoms: N_4  and  C_1 
REMARK       I    between atoms: C_7  and  N_4 
REMARK    2  A    between atoms: C_10  and  C_7 
REMARK    3  A    between atoms: O_16  and  C_15 
ROOT
ATOM      1  N   UNL d   1     -39.931  15.001  20.584  0.00  0.00    -0.183 NA
ATOM      2  C   UNL d   1     -39.233  15.336  20.875  0.00  0.00     0.281 C 
ATOM      3  O   UNL d   1     -38.710  15.724  20.351  0.00  0.00    -0.265 OA
ENDROOT
BRANCH   1   4
ATOM      4  C   UNL d   1     -40.115  15.048  19.775  0.00  0.00     0.197 A 
ATOM      5  N   UNL d   1     -39.879  14.502  19.193  0.00  0.00    -0.221 NA
ATOM      6  C   UNL d   1     -40.182  14.759  18.464  0.00  0.00     0.092 A 
ATOM      7  C   UNL d   1     -40.126  14.444  17.704  0.00  0.00     0.039 A 
ATOM      8  C   UNL d   1     -40.606  15.465  18.594  0.00  0.00     0.068 A 
ATOM      9  C   UNL d   1     -40.497  14.836  17.066  0.00  0.00     0.082 A 
ATOM     10  N   UNL d   1     -40.914  15.532  17.200  0.00  0.00    -0.301 N 
ATOM     11  C   UNL d   1     -40.967  15.844  17.961  0.00  0.00     0.088 A 
ATOM     12  C   UNL d   1     -41.284  15.922  16.560  0.00  0.00     0.100 C 
ATOM     13  S   UNL d   1     -40.560  15.636  19.404  0.00  0.00    -0.045 SA
ENDBRANCH   1   4
BRANCH   2  14
ATOM     14  C   UNL d   1     -39.050  15.289  21.680  0.00  0.00     0.060 A 
ATOM     15  C   UNL d   1     -38.699  14.611  21.983  0.00  0.00     0.029 A 
ATOM     16  C   UNL d   1     -38.519  14.567  22.780  0.00  0.00     0.094 A 
ATOM     17  C   UNL d   1     -38.689  15.200  23.279  0.00  0.00     0.024 A 
ATOM     18  C   UNL d   1     -39.043  15.878  22.967  0.00  0.00     0.002 A 
ATOM     19  C   UNL d   1     -39.223  15.922  22.170  0.00  0.00     0.005 A 
BRANCH  16  20
ATOM     20  O   UNL d   1     -38.158  13.875  23.099  0.00  0.00    -0.328 OA
ATOM     21  C   UNL d   1     -38.615  13.217  23.299  0.00  0.00     0.181 C 
ENDBRANCH  16  20
ENDBRANCH   2  14
TORSDOF 3
ENDMDL
MODEL 5
REMARK VINA RESULT:      -5.2      1.593      5.027
REMARK  3 active torsions:
REMARK  status: ('A' for Active; 'I' for Inactive)
REMARK    1  A    between atoms: N_4  and  C_1 
REMARK       I    between atoms: C_7  and  N_4 
REMARK    2  A    between atoms: C_10  and  C_7 
REMARK    3  A    between atoms: O_16  and  C_15 
ROOT
ATOM      1  N   UNL d   1     -47.015  11.514  23.017  0.00  0.00    -0.183 NA
ATOM      2  C   UNL d   1     -46.306  11.809  23.326  0.00  0.00     0.281 C 
ATOM      3  O   UNL d   1     -46.279  12.588  23.629  0.00  0.00    -0.265 OA
ENDROOT
BRANCH   1   4
ATOM      4  C   UNL d   1     -47.699  11.987  23.006  0.00  0.00     0.197 A 
ATOM      5  N   UNL d   1     -48.310  11.966  23.571  0.00  0.00    -0.221 NA
ATOM      6  C   UNL d   1     -48.881  12.526  23.349  0.00  0.00     0.092 A 
ATOM      7  C   UNL d   1     -49.597  12.746  23.693  0.00  0.00     0.039 A 
ATOM      8  C   UNL d   1     -48.624  12.894  22.647  0.00  0.00     0.068 A 
ATOM      9  C   UNL d   1     -50.063  13.340  23.334  0.00  0.00     0.082 A 
ATOM     10  N   UNL d   1     -49.805  13.700  22.641  0.00  0.00    -0.301 N 
ATOM     11  C   UNL d   1     -49.088  13.477  22.300  0.00  0.00     0.088 A 
ATOM     12  C   UNL d   1     -50.273  14.293  22.286  0.00  0.00     0.100 C 
ATOM     13  S   UNL d   1     -47.896  12.557  22.442  0.00  0.00    -0.045 SA
ENDBRANCH   1   4
BRANCH   2  14
ATOM     14  C   UNL d   1     -45.627  11.339  23.336  0.00  0.00     0.060 A 
ATOM     15  C   UNL d   1     -44.931  11.614  22.996  0.00  0.00     0.029 A 
ATOM     16  C   UNL d   1     -44.260  11.147  23.007  0.00  0.00     0.094 A 
ATOM     17  C   UNL d   1     -44.279  10.401  23.358  0.00  0.00     0.024 A 
ATOM     18  C   UNL d   1     -44.981  10.132  23.698  0.00  0.00     0.002 A 
ATOM     19  C   UNL d   1     -45.653  10.600  23.687  0.00  0.00     0.005 A 
BRANCH  16  20
ATOM     20  O   UNL d   1     -43.542  11.422  22.660  0.00  0.00    -0.328 OA
ATOM     21  C   UNL d   1     -42.812  11.140  22.925  0.00  0.00     0.181 C 
ENDBRANCH  16  20
ENDBRANCH   2  14
TORSDOF 3
ENDMDL
MODEL 6
REMARK VINA RESULT:      -4.8      8.945     10.716
REMARK  3 active torsions:
REMARK  status: ('A' for Active; 'I' for Inactive)
REMARK    1  A    between atoms: N_4  and  C_1 
REMARK       I    between atoms: C_7  and  N_4 
REMARK    2  A    between atoms: C_10  and  C_7 
REMARK    3  A    between atoms: O_16  and  C_15 
ROOT
ATOM      1  N   UNL d   1     -39.773  14.434  18.351  0.00  0.00    -0.183 NA
ATOM      2  C   UNL d   1     -39.378  14.743  19.010  0.00  0.00     0.281 C 
ATOM      3  O   UNL d   1     -38.571  14.950  18.949  0.00  0.00    -0.265 OA
ENDROOT
BRANCH   1   4
ATOM      4  C   UNL d   1     -39.371  14.328  17.631  0.00  0.00     0.197 A 
ATOM      5  N   UNL d   1     -38.944  13.648  17.411  0.00  0.00    -0.221 NA
ATOM      6  C   UNL d   1     -38.634  13.777  16.652  0.00  0.00     0.092 A 
ATOM      7  C   UNL d   1     -38.171  13.303  16.161  0.00  0.00     0.039 A 
ATOM      8  C   UNL d   1     -38.868  14.536  16.402  0.00  0.00     0.068 A 
ATOM      9  C   UNL d   1     -37.940  13.590  15.410  0.00  0.00     0.082 A 
ATOM     10  N   UNL d   1     -38.173  14.340  15.168  0.00  0.00    -0.301 N 
ATOM     11  C   UNL d   1     -38.636  14.810  15.663  0.00  0.00     0.088 A 
ATOM     12  C   UNL d   1     -37.940  14.622  14.418  0.00  0.00     0.100 C 
ATOM     13  S   UNL d   1     -39.322  14.869  17.010  0.00  0.00    -0.045 SA
ENDBRANCH   1   4
BRANCH   2  14
ATOM     14  C   UNL d   1     -39.778  14.849  19.725  0.00  0.00     0.060 A 
ATOM     15  C   UNL d   1     -39.723  14.279  20.315  0.00  0.00     0.029 A 
ATOM     16  C   UNL d   1     -40.120  14.385  21.023  0.00  0.00     0.094 A 
ATOM     17  C   UNL d   1     -40.574  15.061  21.146  0.00  0.00     0.024 A 
ATOM     18  C   UNL d   1     -40.624  15.629  20.549  0.00  0.00     0.002 A 
ATOM     19  C   UNL d   1     -40.228  15.523  19.841  0.00  0.00     0.005 A 
BRANCH  16  20
ATOM     20  O   UNL d   1     -40.068  13.805  21.632  0.00  0.00    -0.328 OA
ATOM     21  C   UNL d   1     -39.524  13.890  22.248  0.00  0.00     0.181 C 
ENDBRANCH  16  20
ENDBRANCH   2  14
TORSDOF 3
ENDMDL
MODEL 7
REMARK VINA RESULT:      -4.6      9.638     10.863
REMARK  3 active torsions:
REMARK  status: ('A' for Active; 'I' for Inactive)
REMARK    1  A    between atoms: N_4  and  C_1 
REMARK       I    between atoms: C_7  and  N_4 
REMARK    2  A    between atoms: C_10  and  C_7 
REMARK    3  A    between atoms: O_16  and  C_15 
ROOT
ATOM      1  N   UNL d   1     -38.154  14.153  19.087  0.00  0.00    -0.183 NA
ATOM      2  C   UNL d   1     -38.753  13.991  18.539  0.00  0.00     0.281 C 
ATOM      3  O   UNL d   1     -39.519  13.794  18.809  0.00  0.00    -0.265 OA
ENDROOT
BRANCH   1   4
ATOM      4  C   UNL d   1     -38.309  14.122  19.902  0.00  0.00     0.197 A 
ATOM      5  N   UNL d   1     -38.671  14.723  20.350  0.00  0.00    -0.221 NA
ATOM      6  C   UNL d   1     -38.718  14.463  21.137  0.00  0.00     0.092 A 
ATOM      7  C   UNL d   1     -39.019  14.820  21.816  0.00  0.00     0.039 A 
ATOM      8  C   UNL d   1     -38.386  13.700  21.177  0.00  0.00     0.068 A 
ATOM      9  C   UNL d   1     -38.989  14.412  22.545  0.00  0.00     0.082 A 
ATOM     10  N   UNL d   1     -38.660  13.660  22.580  0.00  0.00    -0.301 N 
ATOM     11  C   UNL d   1     -38.360  13.306  21.898  0.00  0.00     0.088 A 
ATOM     12  C   UNL d   1     -38.631  13.255  23.310  0.00  0.00     0.100 C 
ATOM     13  S   UNL d   1     -38.136  13.497  20.414  0.00  0.00    -0.045 SA
ENDBRANCH   1   4
BRANCH   2  14
ATOM     14  C   UNL d   1     -38.597  14.023  17.728  0.00  0.00     0.060 A 
ATOM     15  C   UNL d   1     -38.612  14.744  17.334  0.00  0.00     0.029 A 
ATOM     16  C   UNL d   1     -38.458  14.773  16.531  0.00  0.00     0.094 A 
ATOM     17  C   UNL d   1     -38.288  14.081  16.117  0.00  0.00     0.024 A 
ATOM     18  C   UNL d   1     -38.275  13.361  16.519  0.00  0.00     0.002 A 
ATOM     19  C   UNL d   1     -38.429  13.332  17.322  0.00  0.00     0.005 A 
BRANCH  16  20
ATOM     20  O   UNL d   1     -38.472  15.508  16.120  0.00  0.00    -0.328 OA
ATOM     21  C   UNL d   1     -37.947  15.652  15.499  0.00  0.00     0.181 C 
ENDBRANCH  16  20
ENDBRANCH   2  14
TORSDOF 3
ENDMDL
