MODEL 1
REMARK VINA RESULT:      -5.9      0.000      0.000
REMARK  4 active torsions:
REMARK  status: ('A' for Active; 'I' for Inactive)
REMARK    1  A    between atoms: N_2  and  S_1 
REMARK    2  A    between atoms: N_3  and  S_1 
REMARK    3  A    between atoms: C_8  and  N_3 
REMARK    4  A    between atoms: C_7  and  C_6 
ROOT
ATOM      1  N   UNL d   1     -41.259-123.111 -52.660  0.00  0.00    -0.144 NA
ENDROOT
BRANCH   1   2
ATOM      2  S   UNL d   1     -41.481-122.752 -53.368  0.00  0.00     0.351 S 
ATOM      3  O   UNL d   1     -41.157-122.019 -53.179  0.00  0.00    -0.180 OA
ATOM      4  O   UNL d   1     -41.805-123.484 -53.556  0.00  0.00    -0.180 OA
BRANCH   2   5
ATOM      5  N   UNL d   1     -41.731-122.454 -54.094  0.00  0.00    -0.215 N 
ATOM      6  C   UNL d   1     -42.534-122.280 -54.211  0.00  0.00     0.093 C 
ATOM      7  C   UNL d   1     -42.778-121.986 -54.932  0.00  0.00     0.020 C 
ATOM      8  C   UNL d   1     -42.269-121.963 -55.570  0.00  0.00     0.003 C 
ATOM      9  C   UNL d   1     -41.498-122.241 -55.484  0.00  0.00     0.020 C 
ATOM     10  C   UNL d   1     -41.238-122.542 -54.759  0.00  0.00     0.093 C 
ENDBRANCH   2   5
ENDBRANCH   1   2
BRANCH   1  11
ATOM     11  C   UNL d   1     -41.399-122.724 -51.926  0.00  0.00     0.095 A 
ATOM     12  C   UNL d   1     -41.800-123.124 -51.316  0.00  0.00     0.023 A 
ATOM     13  C   UNL d   1     -41.926-122.747 -50.589  0.00  0.00     0.041 A 
ATOM     14  C   UNL d   1     -41.658-121.967 -50.476  0.00  0.00     0.003 A 
ATOM     15  C   UNL d   1     -41.254-121.555 -51.080  0.00  0.00     0.002 A 
ATOM     16  C   UNL d   1     -41.123-121.944 -51.812  0.00  0.00     0.020 A 
BRANCH  13  17
ATOM     17  C   UNL d   1     -42.444-123.080 -50.036  0.00  0.00     0.196 C 
ATOM     18  O   UNL d   1     -43.245-122.895 -50.064  0.00  0.00    -0.287 OA
ATOM     19  C   UNL d   1     -42.153-123.596 -49.460  0.00  0.00     0.045 C 
ENDBRANCH  13  17
ENDBRANCH   1  11
TORSDOF 4
ENDMDL
MODEL 2
REMARK VINA RESULT:      -3.4      2.207      4.863
REMARK  4 active torsions:
REMARK  status: ('A' for Active; 'I' for Inactive)
REMARK    1  A    between atoms: N_2  and  S_1 
REMARK    2  A    between atoms: N_3  and  S_1 
REMARK    3  A    between atoms: C_8  and  N_3 
REMARK    4  A    between atoms: C_7  and  C_6 
ROOT
ATOM      1  N   UNL d   1     -42.621-122.640 -49.948  0.00  0.00    -0.144 NA
ENDROOT
BRANCH   1   2
ATOM      2  S   UNL d   1     -42.422-122.948 -49.210  0.00  0.00     0.351 S 
ATOM      3  O   UNL d   1     -42.811-123.664 -49.325  0.00  0.00    -0.180 OA
ATOM      4  O   UNL d   1     -42.033-122.232 -49.095  0.00  0.00    -0.180 OA
BRANCH   2   5
ATOM      5  N   UNL d   1     -42.189-123.195 -48.459  0.00  0.00    -0.215 N 
ATOM      6  C   UNL d   1     -42.752-123.513 -47.939  0.00  0.00     0.093 C 
ATOM      7  C   UNL d   1     -42.518-123.756 -47.197  0.00  0.00     0.020 C 
ATOM      8  C   UNL d   1     -41.767-123.592 -46.918  0.00  0.00     0.003 C 
ATOM      9  C   UNL d   1     -41.240-123.176 -47.396  0.00  0.00     0.020 C 
ATOM     10  C   UNL d   1     -41.465-122.924 -48.151  0.00  0.00     0.093 C 
ENDBRANCH   2   5
ENDBRANCH   1   2
BRANCH   1  11
ATOM     11  C   UNL d   1     -42.160-122.832 -50.625  0.00  0.00     0.095 A 
ATOM     12  C   UNL d   1     -41.956-122.237 -51.170  0.00  0.00     0.023 A 
ATOM     13  C   UNL d   1     -41.492-122.423 -51.830  0.00  0.00     0.041 A 
ATOM     14  C   UNL d   1     -41.237-123.207 -51.948  0.00  0.00     0.003 A 
ATOM     15  C   UNL d   1     -41.433-123.814 -51.408  0.00  0.00     0.002 A 
ATOM     16  C   UNL d   1     -41.899-123.618 -50.737  0.00  0.00     0.020 A 
BRANCH  13  17
ATOM     17  C   UNL d   1     -41.408-121.875 -52.445  0.00  0.00     0.196 C 
ATOM     18  O   UNL d   1     -41.610-122.090 -53.213  0.00  0.00    -0.287 OA
ATOM     19  C   UNL d   1     -41.123-121.118 -52.283  0.00  0.00     0.045 C 
ENDBRANCH  13  17
ENDBRANCH   1  11
TORSDOF 4
ENDMDL
