MODEL 1
REMARK VINA RESULT:      -6.8      0.000      0.000
REMARK  9 active torsions:
REMARK  status: ('A' for Active; 'I' for Inactive)
REMARK    1  A    between atoms: C_14  and  N_1 
REMARK    2  A    between atoms: S_6  and  C_2 
REMARK    3  A    between atoms: C_8  and  C_3 
REMARK    4  A    between atoms: C_16  and  S_6 
REMARK    5  A    between atoms: O_11  and  C_8 
REMARK    6  A    between atoms: C_9  and  C_16 
REMARK    7  A    between atoms: O_19  and  C_9 
REMARK    8  A    between atoms: C_12  and  O_11 
REMARK    9  A    between atoms: C_15  and  C_14 
ROOT
ATOM      1  N   UNL d   1      51.879  33.755  53.477  0.00  0.00    -0.266 N 
ATOM      2  C   UNL d   1      52.503  34.101  53.881  0.00  0.00     0.202 A 
ATOM      3  C   UNL d   1      51.404  34.362  53.177  0.00  0.00     0.196 A 
ATOM      4  N   UNL d   1      52.419  34.920  53.834  0.00  0.00    -0.121 NA
ATOM      5  N   UNL d   1      51.735  35.081  53.396  0.00  0.00    -0.126 NA
ENDROOT
BRANCH   3   6
ATOM      6  C   UNL d   1      50.715  34.264  52.734  0.00  0.00     0.162 C 
BRANCH   6   7
ATOM      7  O   UNL d   1      50.079  34.781  52.839  0.00  0.00    -0.300 OA
BRANCH   7   8
ATOM      8  C   UNL d   1      49.474  34.816  52.279  0.00  0.00     0.118 A 
ATOM      9  C   UNL d   1      48.803  35.261  52.433  0.00  0.00     0.104 A 
ATOM     10  N   UNL d   1      48.735  35.672  53.147  0.00  0.00    -0.242 NA
ATOM     11  C   UNL d   1      48.195  35.300  51.879  0.00  0.00     0.020 A 
ATOM     12  C   UNL d   1      48.065  36.116  53.302  0.00  0.00     0.099 A 
ATOM     13  C   UNL d   1      47.449  36.160  52.747  0.00  0.00     0.021 A 
ATOM     14  C   UNL d   1      47.521  35.748  52.035  0.00  0.00     0.003 A 
ATOM     15  C   UNL d   1      48.260  34.891  51.163  0.00  0.00     0.002 A 
ATOM     16  C   UNL d   1      48.938  34.445  51.013  0.00  0.00     0.002 A 
ATOM     17  C   UNL d   1      49.538  34.406  51.562  0.00  0.00     0.026 A 
ENDBRANCH   7   8
ENDBRANCH   6   7
ENDBRANCH   3   6
BRANCH   1  18
ATOM     18  C   UNL d   1      51.745  32.952  53.385  0.00  0.00     0.084 C 
BRANCH  18  19
ATOM     19  C   UNL d   1      52.168  32.531  52.814  0.00  0.00     0.019 C 
ATOM     20  C   UNL d   1      52.088  31.714  52.765  0.00  0.00     0.002 C 
ENDBRANCH  18  19
ENDBRANCH   1  18
BRANCH   2  21
ATOM     21  S   UNL d   1      53.110  33.708  54.267  0.00  0.00    -0.042 SA
BRANCH  21  22
ATOM     22  C   UNL d   1      53.565  34.090  54.839  0.00  0.00     0.107 C 
BRANCH  22  23
ATOM     23  C   UNL d   1      54.253  33.745  55.125  0.00  0.00     0.303 C 
ATOM     24  O   UNL d   1      54.248  32.955  55.377  0.00  0.00    -0.259 OA
BRANCH  23  25
ATOM     25  O   UNL d   1      54.955  34.177  55.165  0.00  0.00    -0.295 OA
ATOM     26  C   UNL d   1      55.682  33.794  55.188  0.00  0.00     0.185 C 
ENDBRANCH  23  25
ENDBRANCH  22  23
ENDBRANCH  21  22
ENDBRANCH   2  21
TORSDOF 9
ENDMDL
MODEL 2
REMARK VINA RESULT:      -6.5      1.394      2.240
REMARK  9 active torsions:
REMARK  status: ('A' for Active; 'I' for Inactive)
REMARK    1  A    between atoms: C_14  and  N_1 
REMARK    2  A    between atoms: S_6  and  C_2 
REMARK    3  A    between atoms: C_8  and  C_3 
REMARK    4  A    between atoms: C_16  and  S_6 
REMARK    5  A    between atoms: O_11  and  C_8 
REMARK    6  A    between atoms: C_9  and  C_16 
REMARK    7  A    between atoms: O_19  and  C_9 
REMARK    8  A    between atoms: C_12  and  O_11 
REMARK    9  A    between atoms: C_15  and  C_14 
ROOT
ATOM      1  N   UNL d   1      51.659  33.912  53.214  0.00  0.00    -0.266 N 
ATOM      2  C   UNL d   1      51.906  33.130  53.221  0.00  0.00     0.202 A 
ATOM      3  C   UNL d   1      50.837  33.917  53.125  0.00  0.00     0.196 A 
ATOM      4  N   UNL d   1      51.242  32.649  53.138  0.00  0.00    -0.121 NA
ATOM      5  N   UNL d   1      50.578  33.139  53.078  0.00  0.00    -0.126 NA
ENDROOT
BRANCH   3   6
ATOM      6  C   UNL d   1      50.358  34.587  53.090  0.00  0.00     0.162 C 
BRANCH   6   7
ATOM      7  O   UNL d   1      49.669  34.579  52.632  0.00  0.00    -0.300 OA
BRANCH   7   8
ATOM      8  C   UNL d   1      49.066  35.123  52.779  0.00  0.00     0.118 A 
ATOM      9  C   UNL d   1      48.489  35.251  52.211  0.00  0.00     0.104 A 
ATOM     10  N   UNL d   1      48.512  34.836  51.497  0.00  0.00    -0.242 NA
ATOM     11  C   UNL d   1      47.883  35.792  52.350  0.00  0.00     0.020 A 
ATOM     12  C   UNL d   1      47.935  34.962  50.930  0.00  0.00     0.099 A 
ATOM     13  C   UNL d   1      47.323  35.507  51.064  0.00  0.00     0.021 A 
ATOM     14  C   UNL d   1      47.302  35.919  51.778  0.00  0.00     0.003 A 
ATOM     15  C   UNL d   1      47.856  36.209  53.064  0.00  0.00     0.002 A 
ATOM     16  C   UNL d   1      48.440  36.077  53.632  0.00  0.00     0.002 A 
ATOM     17  C   UNL d   1      49.038  35.541  53.493  0.00  0.00     0.026 A 
ENDBRANCH   7   8
ENDBRANCH   6   7
ENDBRANCH   3   6
BRANCH   1  18
ATOM     18  C   UNL d   1      52.138  34.573  53.281  0.00  0.00     0.084 C 
BRANCH  18  19
ATOM     19  C   UNL d   1      52.381  34.826  54.029  0.00  0.00     0.019 C 
ATOM     20  C   UNL d   1      52.875  35.480  54.099  0.00  0.00     0.002 C 
ENDBRANCH  18  19
ENDBRANCH   1  18
BRANCH   2  21
ATOM     21  S   UNL d   1      52.678  32.865  53.297  0.00  0.00    -0.042 SA
BRANCH  21  22
ATOM     22  C   UNL d   1      52.873  32.079  53.139  0.00  0.00     0.107 C 
BRANCH  22  23
ATOM     23  C   UNL d   1      53.571  31.756  53.426  0.00  0.00     0.303 C 
ATOM     24  O   UNL d   1      54.296  32.129  53.274  0.00  0.00    -0.259 OA
BRANCH  23  25
ATOM     25  O   UNL d   1      53.561  31.059  53.867  0.00  0.00    -0.295 OA
ATOM     26  C   UNL d   1      53.753  30.339  53.519  0.00  0.00     0.185 C 
ENDBRANCH  23  25
ENDBRANCH  22  23
ENDBRANCH  21  22
ENDBRANCH   2  21
TORSDOF 9
ENDMDL
MODEL 3
REMARK VINA RESULT:      -6.3      1.863      5.500
REMARK  9 active torsions:
REMARK  status: ('A' for Active; 'I' for Inactive)
REMARK    1  A    between atoms: C_14  and  N_1 
REMARK    2  A    between atoms: S_6  and  C_2 
REMARK    3  A    between atoms: C_8  and  C_3 
REMARK    4  A    between atoms: C_16  and  S_6 
REMARK    5  A    between atoms: O_11  and  C_8 
REMARK    6  A    between atoms: C_9  and  C_16 
REMARK    7  A    between atoms: O_19  and  C_9 
REMARK    8  A    between atoms: C_12  and  O_11 
REMARK    9  A    between atoms: C_15  and  C_14 
ROOT
ATOM      1  N   UNL d   1      51.193  34.257  53.190  0.00  0.00    -0.266 N 
ATOM      2  C   UNL d   1      50.475  34.433  52.834  0.00  0.00     0.202 A 
ATOM      3  C   UNL d   1      51.525  33.617  52.786  0.00  0.00     0.196 A 
ATOM      4  N   UNL d   1      50.359  33.906  52.211  0.00  0.00    -0.121 NA
ATOM      5  N   UNL d   1      51.013  33.398  52.182  0.00  0.00    -0.126 NA
ENDROOT
BRANCH   3   6
ATOM      6  C   UNL d   1      52.247  33.257  52.957  0.00  0.00     0.162 C 
BRANCH   6   7
ATOM      7  O   UNL d   1      52.350  32.449  52.818  0.00  0.00    -0.300 OA
BRANCH   7   8
ATOM      8  C   UNL d   1      53.023  32.060  53.097  0.00  0.00     0.118 A 
ATOM      9  C   UNL d   1      53.004  31.249  53.214  0.00  0.00     0.104 A 
ATOM     10  N   UNL d   1      52.313  30.824  53.053  0.00  0.00    -0.242 NA
ATOM     11  C   UNL d   1      53.671  30.855  53.492  0.00  0.00     0.020 A 
ATOM     12  C   UNL d   1      52.294  30.014  53.170  0.00  0.00     0.099 A 
ATOM     13  C   UNL d   1      52.963  29.611  53.450  0.00  0.00     0.021 A 
ATOM     14  C   UNL d   1      53.651  30.039  53.609  0.00  0.00     0.003 A 
ATOM     15  C   UNL d   1      54.363  31.276  53.654  0.00  0.00     0.002 A 
ATOM     16  C   UNL d   1      54.377  32.093  53.534  0.00  0.00     0.002 A 
ATOM     17  C   UNL d   1      53.716  32.482  53.259  0.00  0.00     0.026 A 
ENDBRANCH   7   8
ENDBRANCH   6   7
ENDBRANCH   3   6
BRANCH   1  18
ATOM     18  C   UNL d   1      51.525  34.644  53.831  0.00  0.00     0.084 C 
BRANCH  18  19
ATOM     19  C   UNL d   1      52.153  35.166  53.712  0.00  0.00     0.019 C 
ATOM     20  C   UNL d   1      52.532  35.505  54.358  0.00  0.00     0.002 C 
ENDBRANCH  18  19
ENDBRANCH   1  18
BRANCH   2  21
ATOM     21  S   UNL d   1      49.957  35.029  53.055  0.00  0.00    -0.042 SA
BRANCH  21  22
ATOM     22  C   UNL d   1      49.170  35.018  52.808  0.00  0.00     0.107 C 
BRANCH  22  23
ATOM     23  C   UNL d   1      48.669  35.646  52.979  0.00  0.00     0.303 C 
ATOM     24  O   UNL d   1      48.771  36.079  53.679  0.00  0.00    -0.259 OA
BRANCH  23  25
ATOM     25  O   UNL d   1      48.062  35.852  52.461  0.00  0.00    -0.295 OA
ATOM     26  C   UNL d   1      47.447  36.339  52.708  0.00  0.00     0.185 C 
ENDBRANCH  23  25
ENDBRANCH  22  23
ENDBRANCH  21  22
ENDBRANCH   2  21
TORSDOF 9
ENDMDL
MODEL 4
REMARK VINA RESULT:      -6.2      1.692      5.410
REMARK  9 active torsions:
REMARK  status: ('A' for Active; 'I' for Inactive)
REMARK    1  A    between atoms: C_14  and  N_1 
REMARK    2  A    between atoms: S_6  and  C_2 
REMARK    3  A    between atoms: C_8  and  C_3 
REMARK    4  A    between atoms: C_16  and  S_6 
REMARK    5  A    between atoms: O_11  and  C_8 
REMARK    6  A    between atoms: C_9  and  C_16 
REMARK    7  A    between atoms: O_19  and  C_9 
REMARK    8  A    between atoms: C_12  and  O_11 
REMARK    9  A    between atoms: C_15  and  C_14 
ROOT
ATOM      1  N   UNL d   1      49.755  34.607  52.698  0.00  0.00    -0.266 N 
ATOM      2  C   UNL d   1      49.322  35.213  53.041  0.00  0.00     0.202 A 
ATOM      3  C   UNL d   1      50.467  34.540  53.113  0.00  0.00     0.196 A 
ATOM      4  N   UNL d   1      49.760  35.523  53.666  0.00  0.00    -0.121 NA
ATOM      5  N   UNL d   1      50.473  35.104  53.710  0.00  0.00    -0.126 NA
ENDROOT
BRANCH   3   6
ATOM      6  C   UNL d   1      51.071  34.000  52.955  0.00  0.00     0.162 C 
BRANCH   6   7
ATOM      7  O   UNL d   1      51.728  33.957  53.455  0.00  0.00    -0.300 OA
BRANCH   7   8
ATOM      8  C   UNL d   1      52.246  33.316  53.407  0.00  0.00     0.118 A 
ATOM      9  C   UNL d   1      52.932  33.315  53.855  0.00  0.00     0.104 A 
ATOM     10  N   UNL d   1      53.103  33.954  54.351  0.00  0.00    -0.242 NA
ATOM     11  C   UNL d   1      53.454  32.679  53.813  0.00  0.00     0.020 A 
ATOM     12  C   UNL d   1      53.789  33.953  54.798  0.00  0.00     0.099 A 
ATOM     13  C   UNL d   1      54.319  33.315  54.760  0.00  0.00     0.021 A 
ATOM     14  C   UNL d   1      54.145  32.679  54.264  0.00  0.00     0.003 A 
ATOM     15  C   UNL d   1      53.286  32.038  53.318  0.00  0.00     0.002 A 
ATOM     16  C   UNL d   1      52.594  32.044  52.869  0.00  0.00     0.002 A 
ATOM     17  C   UNL d   1      52.079  32.674  52.912  0.00  0.00     0.026 A 
ENDBRANCH   7   8
ENDBRANCH   6   7
ENDBRANCH   3   6
BRANCH   1  18
ATOM     18  C   UNL d   1      49.527  34.147  52.059  0.00  0.00     0.084 C 
BRANCH  18  19
ATOM     19  C   UNL d   1      49.617  34.441  51.293  0.00  0.00     0.019 C 
ATOM     20  C   UNL d   1      49.203  34.096  50.672  0.00  0.00     0.002 C 
ENDBRANCH  18  19
ENDBRANCH   1  18
BRANCH   2  21
ATOM     21  S   UNL d   1      48.580  35.471  52.807  0.00  0.00    -0.042 SA
BRANCH  21  22
ATOM     22  C   UNL d   1      48.137  35.976  53.287  0.00  0.00     0.107 C 
BRANCH  22  23
ATOM     23  C   UNL d   1      47.382  36.210  53.064  0.00  0.00     0.303 C 
ATOM     24  O   UNL d   1      47.278  36.709  52.410  0.00  0.00    -0.259 OA
BRANCH  23  25
ATOM     25  O   UNL d   1      46.722  35.952  53.485  0.00  0.00    -0.295 OA
ATOM     26  C   UNL d   1      46.113  36.473  53.670  0.00  0.00     0.185 C 
ENDBRANCH  23  25
ENDBRANCH  22  23
ENDBRANCH  21  22
ENDBRANCH   2  21
TORSDOF 9
ENDMDL
MODEL 5
REMARK VINA RESULT:      -6.0      2.255      5.939
REMARK  9 active torsions:
REMARK  status: ('A' for Active; 'I' for Inactive)
REMARK    1  A    between atoms: C_14  and  N_1 
REMARK    2  A    between atoms: S_6  and  C_2 
REMARK    3  A    between atoms: C_8  and  C_3 
REMARK    4  A    between atoms: C_16  and  S_6 
REMARK    5  A    between atoms: O_11  and  C_8 
REMARK    6  A    between atoms: C_9  and  C_16 
REMARK    7  A    between atoms: O_19  and  C_9 
REMARK    8  A    between atoms: C_12  and  O_11 
REMARK    9  A    between atoms: C_15  and  C_14 
ROOT
ATOM      1  N   UNL d   1      48.599  35.239  52.569  0.00  0.00    -0.266 N 
ATOM      2  C   UNL d   1      48.105  35.245  51.914  0.00  0.00     0.202 A 
ATOM      3  C   UNL d   1      49.314  34.892  52.343  0.00  0.00     0.196 A 
ATOM      4  N   UNL d   1      48.510  34.902  51.283  0.00  0.00    -0.121 NA
ATOM      5  N   UNL d   1      49.262  34.683  51.550  0.00  0.00    -0.126 NA
ENDROOT
BRANCH   3   6
ATOM      6  C   UNL d   1      49.970  34.774  52.829  0.00  0.00     0.162 C 
BRANCH   6   7
ATOM      7  O   UNL d   1      50.519  34.183  52.647  0.00  0.00    -0.300 OA
BRANCH   7   8
ATOM      8  C   UNL d   1      51.278  34.205  52.971  0.00  0.00     0.118 A 
ATOM      9  C   UNL d   1      51.713  33.514  53.032  0.00  0.00     0.104 A 
ATOM     10  N   UNL d   1      51.392  32.798  52.770  0.00  0.00    -0.242 NA
ATOM     11  C   UNL d   1      52.471  33.528  53.354  0.00  0.00     0.020 A 
ATOM     12  C   UNL d   1      51.827  32.107  52.830  0.00  0.00     0.099 A 
ATOM     13  C   UNL d   1      52.591  32.116  53.154  0.00  0.00     0.021 A 
ATOM     14  C   UNL d   1      52.908  32.831  53.415  0.00  0.00     0.003 A 
ATOM     15  C   UNL d   1      52.795  34.241  53.618  0.00  0.00     0.002 A 
ATOM     16  C   UNL d   1      52.353  34.935  53.554  0.00  0.00     0.002 A 
ATOM     17  C   UNL d   1      51.603  34.919  53.235  0.00  0.00     0.026 A 
ENDBRANCH   7   8
ENDBRANCH   6   7
ENDBRANCH   3   6
BRANCH   1  18
ATOM     18  C   UNL d   1      48.419  35.526  53.315  0.00  0.00     0.084 C 
BRANCH  18  19
ATOM     19  C   UNL d   1      48.422  36.340  53.451  0.00  0.00     0.019 C 
ATOM     20  C   UNL d   1      48.224  36.632  54.194  0.00  0.00     0.002 C 
ENDBRANCH  18  19
ENDBRANCH   1  18
BRANCH   2  21
ATOM     21  S   UNL d   1      47.340  35.538  51.885  0.00  0.00    -0.042 SA
BRANCH  21  22
ATOM     22  C   UNL d   1      46.835  35.340  51.263  0.00  0.00     0.107 C 
BRANCH  22  23
ATOM     23  C   UNL d   1      46.048  35.574  51.273  0.00  0.00     0.303 C 
ATOM     24  O   UNL d   1      45.853  36.378  51.205  0.00  0.00    -0.259 OA
BRANCH  23  25
ATOM     25  O   UNL d   1      45.445  35.018  51.352  0.00  0.00    -0.295 OA
ATOM     26  C   UNL d   1      44.663  35.223  51.199  0.00  0.00     0.185 C 
ENDBRANCH  23  25
ENDBRANCH  22  23
ENDBRANCH  21  22
ENDBRANCH   2  21
TORSDOF 9
ENDMDL
MODEL 6
REMARK VINA RESULT:      -4.9     10.443     11.564
REMARK  9 active torsions:
REMARK  status: ('A' for Active; 'I' for Inactive)
REMARK    1  A    between atoms: C_14  and  N_1 
REMARK    2  A    between atoms: S_6  and  C_2 
REMARK    3  A    between atoms: C_8  and  C_3 
REMARK    4  A    between atoms: C_16  and  S_6 
REMARK    5  A    between atoms: O_11  and  C_8 
REMARK    6  A    between atoms: C_9  and  C_16 
REMARK    7  A    between atoms: O_19  and  C_9 
REMARK    8  A    between atoms: C_12  and  O_11 
REMARK    9  A    between atoms: C_15  and  C_14 
ROOT
ATOM      1  N   UNL d   1      44.733  27.848  58.472  0.00  0.00    -0.266 N 
ATOM      2  C   UNL d   1      45.000  28.565  58.175  0.00  0.00     0.202 A 
ATOM      3  C   UNL d   1      44.958  27.255  57.941  0.00  0.00     0.196 A 
ATOM      4  N   UNL d   1      45.389  28.420  57.462  0.00  0.00    -0.121 NA
ATOM      5  N   UNL d   1      45.362  27.605  57.318  0.00  0.00    -0.126 NA
ENDROOT
BRANCH   3   6
ATOM      6  C   UNL d   1      44.803  26.449  58.022  0.00  0.00     0.162 C 
BRANCH   6   7
ATOM      7  O   UNL d   1      44.868  25.948  57.368  0.00  0.00    -0.300 OA
BRANCH   7   8
ATOM      8  C   UNL d   1      44.684  25.146  57.437  0.00  0.00     0.118 A 
ATOM      9  C   UNL d   1      44.621  24.684  56.763  0.00  0.00     0.104 A 
ATOM     10  N   UNL d   1      44.742  25.022  56.018  0.00  0.00    -0.242 NA
ATOM     11  C   UNL d   1      44.438  23.884  56.825  0.00  0.00     0.020 A 
ATOM     12  C   UNL d   1      44.680  24.561  55.345  0.00  0.00     0.099 A 
ATOM     13  C   UNL d   1      44.495  23.753  55.400  0.00  0.00     0.021 A 
ATOM     14  C   UNL d   1      44.375  23.420  56.145  0.00  0.00     0.003 A 
ATOM     15  C   UNL d   1      44.316  23.543  57.568  0.00  0.00     0.002 A 
ATOM     16  C   UNL d   1      44.380  24.012  58.244  0.00  0.00     0.002 A 
ATOM     17  C   UNL d   1      44.562  24.804  58.181  0.00  0.00     0.026 A 
ENDBRANCH   7   8
ENDBRANCH   6   7
ENDBRANCH   3   6
BRANCH   1  18
ATOM     18  C   UNL d   1      44.318  27.736  59.169  0.00  0.00     0.084 C 
BRANCH  18  19
ATOM     19  C   UNL d   1      44.729  27.592  59.870  0.00  0.00     0.019 C 
ATOM     20  C   UNL d   1      44.315  27.451  60.566  0.00  0.00     0.002 C 
ENDBRANCH  18  19
ENDBRANCH   1  18
BRANCH   2  21
ATOM     21  S   UNL d   1      44.901  29.301  58.520  0.00  0.00    -0.042 SA
BRANCH  21  22
ATOM     22  C   UNL d   1      45.101  29.990  58.113  0.00  0.00     0.107 C 
BRANCH  22  23
ATOM     23  C   UNL d   1      44.922  30.728  58.426  0.00  0.00     0.303 C 
ATOM     24  O   UNL d   1      45.311  30.994  59.109  0.00  0.00    -0.259 OA
BRANCH  23  25
ATOM     25  O   UNL d   1      44.357  31.210  58.069  0.00  0.00    -0.295 OA
ATOM     26  C   UNL d   1      44.585  31.824  57.571  0.00  0.00     0.185 C 
ENDBRANCH  23  25
ENDBRANCH  22  23
ENDBRANCH  21  22
ENDBRANCH   2  21
TORSDOF 9
ENDMDL
MODEL 7
REMARK VINA RESULT:      -4.1      1.596      5.448
REMARK  9 active torsions:
REMARK  status: ('A' for Active; 'I' for Inactive)
REMARK    1  A    between atoms: C_14  and  N_1 
REMARK    2  A    between atoms: S_6  and  C_2 
REMARK    3  A    between atoms: C_8  and  C_3 
REMARK    4  A    between atoms: C_16  and  S_6 
REMARK    5  A    between atoms: O_11  and  C_8 
REMARK    6  A    between atoms: C_9  and  C_16 
REMARK    7  A    between atoms: O_19  and  C_9 
REMARK    8  A    between atoms: C_12  and  O_11 
REMARK    9  A    between atoms: C_15  and  C_14 
ROOT
ATOM      1  N   UNL d   1      50.963  33.713  52.777  0.00  0.00    -0.266 N 
ATOM      2  C   UNL d   1      50.542  34.247  52.319  0.00  0.00     0.202 A 
ATOM      3  C   UNL d   1      51.764  33.911  52.724  0.00  0.00     0.196 A 
ATOM      4  N   UNL d   1      51.077  34.776  51.982  0.00  0.00    -0.121 NA
ATOM      5  N   UNL d   1      51.837  34.566  52.234  0.00  0.00    -0.126 NA
ENDROOT
BRANCH   3   6
ATOM      6  C   UNL d   1      52.386  33.518  53.099  0.00  0.00     0.162 C 
BRANCH   6   7
ATOM      7  O   UNL d   1      53.030  33.947  53.390  0.00  0.00    -0.300 OA
BRANCH   7   8
ATOM      8  C   UNL d   1      53.713  33.556  53.637  0.00  0.00     0.118 A 
ATOM      9  C   UNL d   1      54.065  33.764  54.348  0.00  0.00     0.104 A 
ATOM     10  N   UNL d   1      53.736  34.362  54.813  0.00  0.00    -0.242 NA
ATOM     11  C   UNL d   1      54.748  33.378  54.600  0.00  0.00     0.020 A 
ATOM     12  C   UNL d   1      54.087  34.569  55.523  0.00  0.00     0.099 A 
ATOM     13  C   UNL d   1      54.775  34.184  55.783  0.00  0.00     0.021 A 
ATOM     14  C   UNL d   1      55.101  33.587  55.316  0.00  0.00     0.003 A 
ATOM     15  C   UNL d   1      55.080  32.779  54.138  0.00  0.00     0.002 A 
ATOM     16  C   UNL d   1      54.722  32.574  53.423  0.00  0.00     0.002 A 
ATOM     17  C   UNL d   1      54.047  32.956  53.174  0.00  0.00     0.026 A 
ENDBRANCH   7   8
ENDBRANCH   6   7
ENDBRANCH   3   6
BRANCH   1  18
ATOM     18  C   UNL d   1      50.650  33.093  53.212  0.00  0.00     0.084 C 
BRANCH  18  19
ATOM     19  C   UNL d   1      50.774  32.316  52.962  0.00  0.00     0.019 C 
ATOM     20  C   UNL d   1      50.578  31.690  53.457  0.00  0.00     0.002 C 
ENDBRANCH  18  19
ENDBRANCH   1  18
BRANCH   2  21
ATOM     21  S   UNL d   1      49.730  34.260  52.211  0.00  0.00    -0.042 SA
BRANCH  21  22
ATOM     22  C   UNL d   1      49.366  34.882  51.810  0.00  0.00     0.107 C 
BRANCH  22  23
ATOM     23  C   UNL d   1      48.560  34.868  51.658  0.00  0.00     0.303 C 
ATOM     24  O   UNL d   1      48.259  34.383  51.055  0.00  0.00    -0.259 OA
BRANCH  23  25
ATOM     25  O   UNL d   1      48.040  35.332  52.100  0.00  0.00    -0.295 OA
ATOM     26  C   UNL d   1      47.424  35.735  51.735  0.00  0.00     0.185 C 
ENDBRANCH  23  25
ENDBRANCH  22  23
ENDBRANCH  21  22
ENDBRANCH   2  21
TORSDOF 9
ENDMDL
MODEL 8
REMARK VINA RESULT:      -4.0     10.947     12.140
REMARK  9 active torsions:
REMARK  status: ('A' for Active; 'I' for Inactive)
REMARK    1  A    between atoms: C_14  and  N_1 
REMARK    2  A    between atoms: S_6  and  C_2 
REMARK    3  A    between atoms: C_8  and  C_3 
REMARK    4  A    between atoms: C_16  and  S_6 
REMARK    5  A    between atoms: O_11  and  C_8 
REMARK    6  A    between atoms: C_9  and  C_16 
REMARK    7  A    between atoms: O_19  and  C_9 
REMARK    8  A    between atoms: C_12  and  O_11 
REMARK    9  A    between atoms: C_15  and  C_14 
ROOT
ATOM      1  N   UNL d   1      44.721  25.791  57.097  0.00  0.00    -0.266 N 
ATOM      2  C   UNL d   1      44.970  26.572  57.070  0.00  0.00     0.202 A 
ATOM      3  C   UNL d   1      44.954  25.427  56.392  0.00  0.00     0.196 A 
ATOM      4  N   UNL d   1      45.356  26.695  56.353  0.00  0.00    -0.121 NA
ATOM      5  N   UNL d   1      45.346  25.983  55.931  0.00  0.00    -0.126 NA
ENDROOT
BRANCH   3   6
ATOM      6  C   UNL d   1      44.818  24.640  56.185  0.00  0.00     0.162 C 
BRANCH   6   7
ATOM      7  O   UNL d   1      44.792  24.421  55.388  0.00  0.00    -0.300 OA
BRANCH   7   8
ATOM      8  C   UNL d   1      44.881  23.630  55.170  0.00  0.00     0.118 A 
ATOM      9  C   UNL d   1      44.858  23.422  54.378  0.00  0.00     0.104 A 
ATOM     10  N   UNL d   1      44.745  24.003  53.801  0.00  0.00    -0.242 NA
ATOM     11  C   UNL d   1      44.946  22.634  54.154  0.00  0.00     0.020 A 
ATOM     12  C   UNL d   1      44.722  23.796  53.010  0.00  0.00     0.099 A 
ATOM     13  C   UNL d   1      44.810  23.004  52.777  0.00  0.00     0.021 A 
ATOM     14  C   UNL d   1      44.923  22.426  53.356  0.00  0.00     0.003 A 
ATOM     15  C   UNL d   1      45.059  22.050  54.728  0.00  0.00     0.002 A 
ATOM     16  C   UNL d   1      45.082  22.265  55.524  0.00  0.00     0.002 A 
ATOM     17  C   UNL d   1      44.994  23.045  55.745  0.00  0.00     0.026 A 
ENDBRANCH   7   8
ENDBRANCH   6   7
ENDBRANCH   3   6
BRANCH   1  18
ATOM     18  C   UNL d   1      44.314  25.431  57.710  0.00  0.00     0.084 C 
BRANCH  18  19
ATOM     19  C   UNL d   1      44.734  25.053  58.312  0.00  0.00     0.019 C 
ATOM     20  C   UNL d   1      44.328  24.660  58.910  0.00  0.00     0.002 C 
ENDBRANCH  18  19
ENDBRANCH   1  18
BRANCH   2  21
ATOM     21  S   UNL d   1      44.857  27.138  57.652  0.00  0.00    -0.042 SA
BRANCH  21  22
ATOM     22  C   UNL d   1      45.104  27.916  57.539  0.00  0.00     0.107 C 
BRANCH  22  23
ATOM     23  C   UNL d   1      44.835  28.516  58.030  0.00  0.00     0.303 C 
ATOM     24  O   UNL d   1      44.316  29.093  57.736  0.00  0.00    -0.259 OA
BRANCH  23  25
ATOM     25  O   UNL d   1      45.076  28.554  58.819  0.00  0.00    -0.295 OA
ATOM     26  C   UNL d   1      44.776  29.131  59.321  0.00  0.00     0.185 C 
ENDBRANCH  23  25
ENDBRANCH  22  23
ENDBRANCH  21  22
ENDBRANCH   2  21
TORSDOF 9
ENDMDL
