MODEL 1
REMARK VINA RESULT:      13.1      0.000      0.000
REMARK  1 active torsions:
REMARK  status: ('A' for Active; 'I' for Inactive)
REMARK    1  A    between atoms: C_4  and  C_1 
ROOT
ATOM      1  C   UNL d   1      44.314 -15.396  36.685  0.00  0.00     0.163 A 
ATOM      2  N   UNL d   1      43.649 -14.909  36.671  0.00  0.00    -0.225 NA
ATOM      3  N   UNL d   1      44.061 -16.182  36.581  0.00  0.00    -0.225 NA
ATOM      4  C   UNL d   1      42.982 -15.385  36.559  0.00  0.00     0.101 A 
ATOM      5  C   UNL d   1      43.237 -16.175  36.503  0.00  0.00     0.101 A 
ATOM      6  C   UNL d   1      42.172 -15.207  36.500  0.00  0.00     0.021 A 
ATOM      7  C   UNL d   1      42.681 -16.780  36.389  0.00  0.00     0.021 A 
ATOM      8  C   UNL d   1      41.881 -16.602  36.331  0.00  0.00     0.002 A 
ATOM      9  C   UNL d   1      41.628 -15.819  36.386  0.00  0.00     0.002 A 
ENDROOT
BRANCH   1  10
ATOM     10  C   UNL d   1      45.095 -15.151  36.784  0.00  0.00     0.046 A 
ATOM     11  C   UNL d   1      45.269 -14.566  37.329  0.00  0.00     0.061 A 
ATOM     12 CL   UNL d   1      44.657 -14.226  37.775  0.00  0.00    -0.082 Cl
ATOM     13  C   UNL d   1      46.038 -14.324  37.427  0.00  0.00     0.011 A 
ATOM     14  C   UNL d   1      46.646 -14.663  36.982  0.00  0.00     0.001 A 
ATOM     15  C   UNL d   1      46.467 -15.251  36.436  0.00  0.00     0.000 A 
ATOM     16  C   UNL d   1      45.688 -15.496  36.337  0.00  0.00     0.004 A 
ENDBRANCH   1  10
TORSDOF 1
ENDMDL
MODEL 2
REMARK VINA RESULT:      16.0      7.574      8.085
REMARK  1 active torsions:
REMARK  status: ('A' for Active; 'I' for Inactive)
REMARK    1  A    between atoms: C_4  and  C_1 
ROOT
ATOM      1  C   UNL d   1      45.726 -14.541  44.404  0.00  0.00     0.163 A 
ATOM      2  N   UNL d   1      45.265 -15.035  44.878  0.00  0.00    -0.225 NA
ATOM      3  N   UNL d   1      46.179 -15.021  43.896  0.00  0.00    -0.225 NA
ATOM      4  C   UNL d   1      45.428 -15.819  44.671  0.00  0.00     0.101 A 
ATOM      5  C   UNL d   1      45.995 -15.810  44.061  0.00  0.00     0.101 A 
ATOM      6  C   UNL d   1      45.136 -16.544  44.954  0.00  0.00     0.021 A 
ATOM      7  C   UNL d   1      46.265 -16.526  43.740  0.00  0.00     0.021 A 
ATOM      8  C   UNL d   1      45.975 -17.241  44.022  0.00  0.00     0.002 A 
ATOM      9  C   UNL d   1      45.413 -17.250  44.626  0.00  0.00     0.002 A 
ENDROOT
BRANCH   1  10
ATOM     10  C   UNL d   1      45.737 -13.717  44.426  0.00  0.00     0.046 A 
ATOM     11  C   UNL d   1      45.232 -13.292  43.943  0.00  0.00     0.061 A 
ATOM     12 CL   UNL d   1      44.713 -13.696  43.435  0.00  0.00    -0.082 Cl
ATOM     13  C   UNL d   1      45.243 -12.480  43.965  0.00  0.00     0.011 A 
ATOM     14  C   UNL d   1      45.759 -12.080  44.470  0.00  0.00     0.001 A 
ATOM     15  C   UNL d   1      46.265 -12.510  44.954  0.00  0.00     0.000 A 
ATOM     16  C   UNL d   1      46.254 -13.333  44.932  0.00  0.00     0.004 A 
ENDBRANCH   1  10
TORSDOF 1
ENDMDL
