MODEL 1
REMARK VINA RESULT:       1.5      0.000      0.000
REMARK  5 active torsions:
REMARK  status: ('A' for Active; 'I' for Inactive)
REMARK    1  A    between atoms: C_3  and  C_1 
REMARK    2  A    between atoms: N_8  and  C_3 
REMARK    3  A    between atoms: C_9  and  C_3 
REMARK    4  A    between atoms: C_17  and  C_7 
REMARK    5  A    between atoms: C_10  and  N_8 
ROOT
ATOM      1  C   UNL d   1      30.291  16.634 -24.399  0.00  0.00     0.109 C 
ENDROOT
BRANCH   1   2
ATOM      2  C   UNL d   1      31.095  16.708 -24.224  0.00  0.00     0.160 A 
ATOM      3  C   UNL d   1      31.658  16.184 -24.541  0.00  0.00     0.258 A 
ATOM      4  C   UNL d   1      32.469  16.286 -24.344  0.00  0.00     0.238 A 
ATOM      5  O   UNL d   1      31.423  15.581 -25.037  0.00  0.00    -0.281 OA
ATOM      6  O   UNL d   1      33.033  15.762 -24.661  0.00  0.00    -0.283 OA
ATOM      7  C   UNL d   1      32.704  16.889 -23.848  0.00  0.00     0.073 A 
ATOM      8  C   UNL d   1      32.141  17.413 -23.531  0.00  0.00     0.146 A 
ATOM      9  O   UNL d   1      31.350  17.327 -23.714  0.00  0.00    -0.299 OA
BRANCH   8  10
ATOM     10  C   UNL d   1      32.390  18.028 -23.025  0.00  0.00     0.259 C 
ATOM     11  O   UNL d   1      32.917  18.626 -23.292  0.00  0.00    -0.281 OA
ENDBRANCH   8  10
ENDBRANCH   1   2
BRANCH   1  12
ATOM     12  N   UNL d   1      29.971  16.944 -25.097  0.00  0.00    -0.225 NA
BRANCH  12  13
ATOM     13  C   UNL d   1      29.602  17.670 -25.097  0.00  0.00     0.163 A 
ATOM     14  N   UNL d   1      30.046  18.365 -25.097  0.00  0.00    -0.225 NA
ATOM     15  C   UNL d   1      29.664  19.095 -25.097  0.00  0.00     0.101 A 
ATOM     16  C   UNL d   1      28.843  19.133 -25.097  0.00  0.00     0.021 A 
ATOM     17  C   UNL d   1      28.381  18.449 -25.097  0.00  0.00     0.005 A 
ATOM     18  C   UNL d   1      28.756  17.718 -25.097  0.00  0.00     0.039 A 
ENDBRANCH  12  13
ENDBRANCH   1  12
BRANCH   1  19
ATOM     19  C   UNL d   1      29.795  16.237 -23.856  0.00  0.00     0.022 A 
ATOM     20  C   UNL d   1      29.999  16.200 -23.057  0.00  0.00     0.031 A 
ATOM     21  C   UNL d   1      29.506  15.808 -22.531  0.00  0.00     0.140 A 
ATOM     22  F   UNL d   1      29.707  15.767 -21.721  0.00  0.00    -0.204 F 
ATOM     23  C   UNL d   1      28.811  15.453 -22.797  0.00  0.00     0.030 A 
ATOM     24  C   UNL d   1      28.602  15.487 -23.593  0.00  0.00     0.002 A 
ATOM     25  C   UNL d   1      29.100  15.882 -24.122  0.00  0.00     0.002 A 
ENDBRANCH   1  19
TORSDOF 5
ENDMDL
MODEL 2
REMARK VINA RESULT:       2.8      1.841      3.160
REMARK  5 active torsions:
REMARK  status: ('A' for Active; 'I' for Inactive)
REMARK    1  A    between atoms: C_3  and  C_1 
REMARK    2  A    between atoms: N_8  and  C_3 
REMARK    3  A    between atoms: C_9  and  C_3 
REMARK    4  A    between atoms: C_17  and  C_7 
REMARK    5  A    between atoms: C_10  and  N_8 
ROOT
ATOM      1  C   UNL d   1      31.418  18.074 -24.460  0.00  0.00     0.109 C 
ENDROOT
BRANCH   1   2
ATOM      2  C   UNL d   1      31.908  18.576 -24.022  0.00  0.00     0.160 A 
ATOM      3  C   UNL d   1      32.190  19.291 -24.339  0.00  0.00     0.258 A 
ATOM      4  C   UNL d   1      32.686  19.781 -23.869  0.00  0.00     0.238 A 
ATOM      5  O   UNL d   1      31.985  19.513 -25.097  0.00  0.00    -0.281 OA
ATOM      6  O   UNL d   1      32.968  20.497 -24.186  0.00  0.00    -0.283 OA
ATOM      7  C   UNL d   1      32.891  19.559 -23.111  0.00  0.00     0.073 A 
ATOM      8  C   UNL d   1      32.609  18.843 -22.794  0.00  0.00     0.146 A 
ATOM      9  O   UNL d   1      32.126  18.358 -23.239  0.00  0.00    -0.299 OA
BRANCH   8  10
ATOM     10  C   UNL d   1      32.824  18.624 -22.018  0.00  0.00     0.259 C 
ATOM     11  O   UNL d   1      32.783  19.174 -21.383  0.00  0.00    -0.281 OA
ENDBRANCH   8  10
ENDBRANCH   1   2
BRANCH   1  12
ATOM     12  N   UNL d   1      31.711  17.630 -25.094  0.00  0.00    -0.225 NA
BRANCH  12  13
ATOM     13  C   UNL d   1      32.073  16.912 -24.966  0.00  0.00     0.163 A 
ATOM     14  N   UNL d   1      32.883  16.822 -25.094  0.00  0.00    -0.225 NA
ATOM     15  C   UNL d   1      33.240  16.092 -24.961  0.00  0.00     0.101 A 
ATOM     16  C   UNL d   1      32.792  15.453 -24.701  0.00  0.00     0.021 A 
ATOM     17  C   UNL d   1      31.981  15.523 -24.567  0.00  0.00     0.005 A 
ATOM     18  C   UNL d   1      31.620  16.249 -24.698  0.00  0.00     0.039 A 
ENDBRANCH  12  13
ENDBRANCH   1  12
BRANCH   1  19
ATOM     19  C   UNL d   1      30.611  18.017 -24.253  0.00  0.00     0.022 A 
ATOM     20  C   UNL d   1      30.034  18.368 -24.728  0.00  0.00     0.031 A 
ATOM     21  C   UNL d   1      29.243  18.307 -24.517  0.00  0.00     0.140 A 
ATOM     22  F   UNL d   1      28.655  18.661 -24.995  0.00  0.00    -0.204 F 
ATOM     23  C   UNL d   1      29.024  17.898 -23.836  0.00  0.00     0.030 A 
ATOM     24  C   UNL d   1      29.594  17.546 -23.358  0.00  0.00     0.002 A 
ATOM     25  C   UNL d   1      30.392  17.608 -23.571  0.00  0.00     0.002 A 
ENDBRANCH   1  19
TORSDOF 5
ENDMDL
MODEL 3
REMARK VINA RESULT:       3.3      1.614      2.913
REMARK  5 active torsions:
REMARK  status: ('A' for Active; 'I' for Inactive)
REMARK    1  A    between atoms: C_3  and  C_1 
REMARK    2  A    between atoms: N_8  and  C_3 
REMARK    3  A    between atoms: C_9  and  C_3 
REMARK    4  A    between atoms: C_17  and  C_7 
REMARK    5  A    between atoms: C_10  and  N_8 
ROOT
ATOM      1  C   UNL d   1      31.622  17.848 -24.146  0.00  0.00     0.109 C 
ENDROOT
BRANCH   1   2
ATOM      2  C   UNL d   1      31.860  17.070 -24.003  0.00  0.00     0.160 A 
ATOM      3  C   UNL d   1      32.435  16.699 -24.475  0.00  0.00     0.258 A 
ATOM      4  C   UNL d   1      32.656  15.906 -24.305  0.00  0.00     0.238 A 
ATOM      5  O   UNL d   1      32.779  17.102 -25.095  0.00  0.00    -0.281 OA
ATOM      6  O   UNL d   1      33.232  15.534 -24.778  0.00  0.00    -0.283 OA
ATOM      7  C   UNL d   1      32.312  15.503 -23.685  0.00  0.00     0.073 A 
ATOM      8  C   UNL d   1      31.737  15.874 -23.213  0.00  0.00     0.146 A 
ATOM      9  O   UNL d   1      31.513  16.643 -23.367  0.00  0.00    -0.299 OA
BRANCH   8  10
ATOM     10  C   UNL d   1      31.390  15.454 -22.580  0.00  0.00     0.259 C 
ATOM     11  O   UNL d   1      30.597  15.600 -22.342  0.00  0.00    -0.281 OA
ENDBRANCH   8  10
ENDBRANCH   1   2
BRANCH   1  12
ATOM     12  N   UNL d   1      32.166  18.473 -24.148  0.00  0.00    -0.225 NA
BRANCH  12  13
ATOM     13  C   UNL d   1      32.373  18.844 -23.454  0.00  0.00     0.163 A 
ATOM     14  N   UNL d   1      32.878  18.476 -22.916  0.00  0.00    -0.225 NA
ATOM     15  C   UNL d   1      33.082  18.860 -22.216  0.00  0.00     0.101 A 
ATOM     16  C   UNL d   1      32.783  19.609 -22.053  0.00  0.00     0.021 A 
ATOM     17  C   UNL d   1      32.276  19.993 -22.578  0.00  0.00     0.005 A 
ATOM     18  C   UNL d   1      32.070  19.615 -23.277  0.00  0.00     0.039 A 
ENDBRANCH  12  13
ENDBRANCH   1  12
BRANCH   1  19
ATOM     19  C   UNL d   1      30.813  18.003 -24.290  0.00  0.00     0.022 A 
ATOM     20  C   UNL d   1      30.236  17.709 -23.778  0.00  0.00     0.031 A 
ATOM     21  C   UNL d   1      29.444  17.865 -23.927  0.00  0.00     0.140 A 
ATOM     22  F   UNL d   1      28.856  17.569 -23.412  0.00  0.00    -0.204 F 
ATOM     23  C   UNL d   1      29.225  18.313 -24.582  0.00  0.00     0.030 A 
ATOM     24  C   UNL d   1      29.796  18.610 -25.097  0.00  0.00     0.002 A 
ATOM     25  C   UNL d   1      30.594  18.451 -24.946  0.00  0.00     0.002 A 
ENDBRANCH   1  19
TORSDOF 5
ENDMDL
