MODEL 1
REMARK VINA RESULT:      -3.6      0.000      0.000
REMARK  3 active torsions:
REMARK  status: ('A' for Active; 'I' for Inactive)
REMARK    1  A    between atoms: C_7  and  N_1 
REMARK    2  A    between atoms: C_5  and  C_2 
REMARK    3  A    between atoms: C_11  and  C_7 
ROOT
ATOM      1  N   UNL d   1      58.220  -0.234  30.004  0.00  0.00    -0.262 N 
ATOM      2  C   UNL d   1      57.584   0.071  30.435  0.00  0.00     0.173 A 
ATOM      3  N   UNL d   1      57.234   0.640  29.953  0.00  0.00    -0.128 NA
ATOM      4  C   UNL d   1      58.263   0.131  29.285  0.00  0.00     0.227 A 
ATOM      5  N   UNL d   1      57.649   0.680  29.243  0.00  0.00    -0.117 NA
ATOM      6  S   UNL d   1      58.785   0.045  28.638  0.00  0.00    -0.036 SA
ENDROOT
BRANCH   2   7
ATOM      7  C   UNL d   1      57.337  -0.139  31.190  0.00  0.00     0.064 A 
ATOM      8  C   UNL d   1      56.950  -0.678  31.673  0.00  0.00     0.143 A 
ATOM      9  F   UNL d   1      56.681  -1.293  31.184  0.00  0.00    -0.204 F 
ATOM     10  C   UNL d   1      56.897  -0.531  32.491  0.00  0.00     0.030 A 
ATOM     11  C   UNL d   1      57.231   0.149  32.817  0.00  0.00     0.002 A 
ATOM     12  C   UNL d   1      57.615   0.681  32.328  0.00  0.00     0.000 A 
ATOM     13  C   UNL d   1      57.672   0.540  31.508  0.00  0.00     0.005 A 
ENDBRANCH   2   7
BRANCH   1  14
ATOM     14  C   UNL d   1      58.747  -0.824  30.253  0.00  0.00     0.108 C 
BRANCH  14  15
ATOM     15  C   UNL d   1      58.877  -1.477  29.769  0.00  0.00     0.118 A 
ATOM     16  O   UNL d   1      58.332  -2.070  29.595  0.00  0.00    -0.304 OA
ATOM     17  C   UNL d   1      58.686  -2.617  29.091  0.00  0.00     0.123 A 
ATOM     18  C   UNL d   1      59.460  -2.354  28.956  0.00  0.00     0.029 A 
ATOM     19  C   UNL d   1      59.580  -1.653  29.372  0.00  0.00     0.028 A 
ENDBRANCH  14  15
ENDBRANCH   1  14
TORSDOF 3
ENDMDL
MODEL 2
REMARK VINA RESULT:      -3.6      2.193      2.962
REMARK  3 active torsions:
REMARK  status: ('A' for Active; 'I' for Inactive)
REMARK    1  A    between atoms: C_7  and  N_1 
REMARK    2  A    between atoms: C_5  and  C_2 
REMARK    3  A    between atoms: C_11  and  C_7 
ROOT
ATOM      1  N   UNL d   1      56.850  -0.439  31.917  0.00  0.00    -0.262 N 
ATOM      2  C   UNL d   1      56.454  -0.658  32.609  0.00  0.00     0.173 A 
ATOM      3  N   UNL d   1      56.372  -1.477  32.576  0.00  0.00    -0.128 NA
ATOM      4  C   UNL d   1      57.007  -1.095  31.473  0.00  0.00     0.227 A 
ATOM      5  N   UNL d   1      56.711  -1.751  31.878  0.00  0.00    -0.117 NA
ATOM      6  S   UNL d   1      57.387  -1.201  30.737  0.00  0.00    -0.036 SA
ENDROOT
BRANCH   2   7
ATOM      7  C   UNL d   1      56.190  -0.170  33.216  0.00  0.00     0.064 A 
ATOM      8  C   UNL d   1      56.375   0.312  33.854  0.00  0.00     0.143 A 
ATOM      9  F   UNL d   1      57.202   0.313  33.928  0.00  0.00    -0.204 F 
ATOM     10  C   UNL d   1      55.761   0.682  34.279  0.00  0.00     0.030 A 
ATOM     11  C   UNL d   1      54.973   0.567  34.062  0.00  0.00     0.002 A 
ATOM     12  C   UNL d   1      54.799   0.085  33.424  0.00  0.00     0.000 A 
ATOM     13  C   UNL d   1      55.408  -0.289  32.995  0.00  0.00     0.005 A 
ENDBRANCH   2   7
BRANCH   1  14
ATOM     14  C   UNL d   1      57.064   0.330  31.693  0.00  0.00     0.108 C 
BRANCH  14  15
ATOM     15  C   UNL d   1      57.797   0.458  31.341  0.00  0.00     0.118 A 
ATOM     16  O   UNL d   1      58.513   0.570  31.735  0.00  0.00    -0.304 OA
ATOM     17  C   UNL d   1      59.109   0.678  31.177  0.00  0.00     0.123 A 
ATOM     18  C   UNL d   1      58.752   0.631  30.431  0.00  0.00     0.029 A 
ATOM     19  C   UNL d   1      57.945   0.496  30.530  0.00  0.00     0.028 A 
ENDBRANCH  14  15
ENDBRANCH   1  14
TORSDOF 3
ENDMDL
MODEL 3
REMARK VINA RESULT:      -3.3      1.435      1.925
REMARK  3 active torsions:
REMARK  status: ('A' for Active; 'I' for Inactive)
REMARK    1  A    between atoms: C_7  and  N_1 
REMARK    2  A    between atoms: C_5  and  C_2 
REMARK    3  A    between atoms: C_11  and  C_7 
ROOT
ATOM      1  N   UNL d   1      57.713   0.116  31.544  0.00  0.00    -0.262 N 
ATOM      2  C   UNL d   1      57.424   0.080  32.318  0.00  0.00     0.173 A 
ATOM      3  N   UNL d   1      57.995   0.435  32.792  0.00  0.00    -0.128 NA
ATOM      4  C   UNL d   1      58.435   0.478  31.540  0.00  0.00     0.227 A 
ATOM      5  N   UNL d   1      58.620   0.682  32.317  0.00  0.00    -0.117 NA
ATOM      6  S   UNL d   1      58.971   0.661  30.926  0.00  0.00    -0.036 SA
ENDROOT
BRANCH   2   7
ATOM      7  C   UNL d   1      56.712  -0.241  32.577  0.00  0.00     0.064 A 
ATOM      8  C   UNL d   1      56.258  -0.910  32.714  0.00  0.00     0.143 A 
ATOM      9  F   UNL d   1      56.718  -1.566  32.496  0.00  0.00    -0.204 F 
ATOM     10  C   UNL d   1      55.488  -0.827  33.020  0.00  0.00     0.030 A 
ATOM     11  C   UNL d   1      55.181  -0.078  33.184  0.00  0.00     0.002 A 
ATOM     12  C   UNL d   1      55.641   0.583  33.044  0.00  0.00     0.000 A 
ATOM     13  C   UNL d   1      56.413   0.507  32.738  0.00  0.00     0.005 A 
ENDBRANCH   2   7
BRANCH   1  14
ATOM     14  C   UNL d   1      57.337  -0.170  30.863  0.00  0.00     0.108 C 
BRANCH  14  15
ATOM     15  C   UNL d   1      57.766  -0.626  30.328  0.00  0.00     0.118 A 
ATOM     16  O   UNL d   1      57.817  -1.449  30.321  0.00  0.00    -0.304 OA
ATOM     17  C   UNL d   1      58.302  -1.680  29.696  0.00  0.00     0.123 A 
ATOM     18  C   UNL d   1      58.551  -0.988  29.316  0.00  0.00     0.029 A 
ATOM     19  C   UNL d   1      58.223  -0.338  29.703  0.00  0.00     0.028 A 
ENDBRANCH  14  15
ENDBRANCH   1  14
TORSDOF 3
ENDMDL
MODEL 4
REMARK VINA RESULT:      -3.0      1.832      3.392
REMARK  3 active torsions:
REMARK  status: ('A' for Active; 'I' for Inactive)
REMARK    1  A    between atoms: C_7  and  N_1 
REMARK    2  A    between atoms: C_5  and  C_2 
REMARK    3  A    between atoms: C_11  and  C_7 
ROOT
ATOM      1  N   UNL d   1      57.768   0.331  31.740  0.00  0.00    -0.262 N 
ATOM      2  C   UNL d   1      58.373   0.296  31.177  0.00  0.00     0.173 A 
ATOM      3  N   UNL d   1      59.063   0.512  31.570  0.00  0.00    -0.128 NA
ATOM      4  C   UNL d   1      58.072   0.558  32.453  0.00  0.00     0.227 A 
ATOM      5  N   UNL d   1      58.883   0.674  32.357  0.00  0.00    -0.117 NA
ATOM      6  S   UNL d   1      57.723   0.682  33.202  0.00  0.00    -0.036 SA
ENDROOT
BRANCH   2   7
ATOM      7  C   UNL d   1      58.313   0.091  30.383  0.00  0.00     0.064 A 
ATOM      8  C   UNL d   1      57.911   0.166  29.672  0.00  0.00     0.143 A 
ATOM      9  F   UNL d   1      57.274   0.682  29.805  0.00  0.00    -0.204 F 
ATOM     10  C   UNL d   1      58.183  -0.247  29.002  0.00  0.00     0.030 A 
ATOM     11  C   UNL d   1      58.851  -0.729  29.050  0.00  0.00     0.002 A 
ATOM     12  C   UNL d   1      59.246  -0.797  29.764  0.00  0.00     0.000 A 
ATOM     13  C   UNL d   1      58.978  -0.386  30.438  0.00  0.00     0.005 A 
ENDBRANCH   2   7
BRANCH   1  14
ATOM     14  C   UNL d   1      56.966   0.162  31.614  0.00  0.00     0.108 C 
BRANCH  14  15
ATOM     15  C   UNL d   1      56.595  -0.400  32.087  0.00  0.00     0.118 A 
ATOM     16  O   UNL d   1      56.768  -1.206  32.113  0.00  0.00    -0.304 OA
ATOM     17  C   UNL d   1      56.268  -1.568  32.659  0.00  0.00     0.123 A 
ATOM     18  C   UNL d   1      55.782  -0.974  32.972  0.00  0.00     0.029 A 
ATOM     19  C   UNL d   1      55.981  -0.255  32.621  0.00  0.00     0.028 A 
ENDBRANCH  14  15
ENDBRANCH   1  14
TORSDOF 3
ENDMDL
MODEL 5
REMARK VINA RESULT:      -2.8      1.605      2.117
REMARK  3 active torsions:
REMARK  status: ('A' for Active; 'I' for Inactive)
REMARK    1  A    between atoms: C_7  and  N_1 
REMARK    2  A    between atoms: C_5  and  C_2 
REMARK    3  A    between atoms: C_11  and  C_7 
ROOT
ATOM      1  N   UNL d   1      58.706  -0.912  29.381  0.00  0.00    -0.262 N 
ATOM      2  C   UNL d   1      58.090  -0.982  29.928  0.00  0.00     0.173 A 
ATOM      3  N   UNL d   1      57.934  -1.788  29.993  0.00  0.00    -0.128 NA
ATOM      4  C   UNL d   1      58.923  -1.644  29.118  0.00  0.00     0.227 A 
ATOM      5  N   UNL d   1      58.444  -2.200  29.496  0.00  0.00    -0.117 NA
ATOM      6  S   UNL d   1      59.502  -1.900  28.573  0.00  0.00    -0.036 SA
ENDROOT
BRANCH   2   7
ATOM      7  C   UNL d   1      57.703  -0.380  30.332  0.00  0.00     0.064 A 
ATOM      8  C   UNL d   1      57.352   0.361  30.311  0.00  0.00     0.143 A 
ATOM      9  F   UNL d   1      57.410   0.636  29.530  0.00  0.00    -0.204 F 
ATOM     10  C   UNL d   1      57.028   0.681  31.008  0.00  0.00     0.030 A 
ATOM     11  C   UNL d   1      57.059   0.259  31.717  0.00  0.00     0.002 A 
ATOM     12  C   UNL d   1      57.411  -0.480  31.728  0.00  0.00     0.000 A 
ATOM     13  C   UNL d   1      57.736  -0.806  31.034  0.00  0.00     0.005 A 
ENDBRANCH   2   7
BRANCH   1  14
ATOM     14  C   UNL d   1      59.062  -0.207  29.126  0.00  0.00     0.108 C 
BRANCH  14  15
ATOM     15  C   UNL d   1      59.858  -0.076  29.292  0.00  0.00     0.118 A 
ATOM     16  O   UNL d   1      60.245  -0.258  29.997  0.00  0.00    -0.304 OA
ATOM     17  C   UNL d   1      61.035  -0.037  29.931  0.00  0.00     0.123 A 
ATOM     18  C   UNL d   1      61.133   0.285  29.174  0.00  0.00     0.029 A 
ATOM     19  C   UNL d   1      60.410   0.261  28.779  0.00  0.00     0.028 A 
ENDBRANCH  14  15
ENDBRANCH   1  14
TORSDOF 3
ENDMDL
MODEL 6
REMARK VINA RESULT:      -2.6      1.161      3.211
REMARK  3 active torsions:
REMARK  status: ('A' for Active; 'I' for Inactive)
REMARK    1  A    between atoms: C_7  and  N_1 
REMARK    2  A    between atoms: C_5  and  C_2 
REMARK    3  A    between atoms: C_11  and  C_7 
ROOT
ATOM      1  N   UNL d   1      58.389  -0.671  29.770  0.00  0.00    -0.262 N 
ATOM      2  C   UNL d   1      58.652  -1.130  29.134  0.00  0.00     0.173 A 
ATOM      3  N   UNL d   1      58.493  -0.691  28.456  0.00  0.00    -0.128 NA
ATOM      4  C   UNL d   1      58.080   0.023  29.496  0.00  0.00     0.227 A 
ATOM      5  N   UNL d   1      58.141   0.020  28.674  0.00  0.00    -0.117 NA
ATOM      6  S   UNL d   1      57.740   0.681  29.883  0.00  0.00    -0.036 SA
ENDROOT
BRANCH   2   7
ATOM      7  C   UNL d   1      59.002  -1.873  29.158  0.00  0.00     0.064 A 
ATOM      8  C   UNL d   1      58.914  -2.683  29.253  0.00  0.00     0.143 A 
ATOM      9  F   UNL d   1      58.106  -2.826  29.383  0.00  0.00    -0.204 F 
ATOM     10  C   UNL d   1      59.583  -3.177  29.206  0.00  0.00     0.030 A 
ATOM     11  C   UNL d   1      60.331  -2.857  29.065  0.00  0.00     0.002 A 
ATOM     12  C   UNL d   1      60.409  -2.047  28.973  0.00  0.00     0.000 A 
ATOM     13  C   UNL d   1      59.743  -1.548  29.019  0.00  0.00     0.005 A 
ENDBRANCH   2   7
BRANCH   1  14
ATOM     14  C   UNL d   1      58.427  -0.873  30.574  0.00  0.00     0.108 C 
BRANCH  14  15
ATOM     15  C   UNL d   1      57.749  -0.811  31.036  0.00  0.00     0.118 A 
ATOM     16  O   UNL d   1      57.164  -1.386  31.123  0.00  0.00    -0.304 OA
ATOM     17  C   UNL d   1      56.584  -1.101  31.634  0.00  0.00     0.123 A 
ATOM     18  C   UNL d   1      56.818  -0.339  31.862  0.00  0.00     0.029 A 
ATOM     19  C   UNL d   1      57.534  -0.159  31.495  0.00  0.00     0.028 A 
ENDBRANCH  14  15
ENDBRANCH   1  14
TORSDOF 3
ENDMDL
MODEL 7
REMARK VINA RESULT:      -2.6      1.735      2.189
REMARK  3 active torsions:
REMARK  status: ('A' for Active; 'I' for Inactive)
REMARK    1  A    between atoms: C_7  and  N_1 
REMARK    2  A    between atoms: C_5  and  C_2 
REMARK    3  A    between atoms: C_11  and  C_7 
ROOT
ATOM      1  N   UNL d   1      59.797  -0.516  29.058  0.00  0.00    -0.262 N 
ATOM      2  C   UNL d   1      59.562   0.067  29.595  0.00  0.00     0.173 A 
ATOM      3  N   UNL d   1      60.255   0.390  29.899  0.00  0.00    -0.128 NA
ATOM      4  C   UNL d   1      60.604  -0.552  29.030  0.00  0.00     0.227 A 
ATOM      5  N   UNL d   1      60.900   0.012  29.554  0.00  0.00    -0.117 NA
ATOM      6  S   UNL d   1      61.133  -1.029  28.594  0.00  0.00    -0.036 SA
ENDROOT
BRANCH   2   7
ATOM      7  C   UNL d   1      58.796   0.290  29.795  0.00  0.00     0.064 A 
ATOM      8  C   UNL d   1      58.057   0.544  29.548  0.00  0.00     0.143 A 
ATOM      9  F   UNL d   1      58.085   0.609  28.721  0.00  0.00    -0.204 F 
ATOM     10  C   UNL d   1      57.460   0.682  30.113  0.00  0.00     0.030 A 
ATOM     11  C   UNL d   1      57.609   0.564  30.916  0.00  0.00     0.002 A 
ATOM     12  C   UNL d   1      58.350   0.310  31.153  0.00  0.00     0.000 A 
ATOM     13  C   UNL d   1      58.951   0.170  30.593  0.00  0.00     0.005 A 
ENDBRANCH   2   7
BRANCH   1  14
ATOM     14  C   UNL d   1      59.299  -1.001  28.606  0.00  0.00     0.108 C 
BRANCH  14  15
ATOM     15  C   UNL d   1      59.290  -1.812  28.748  0.00  0.00     0.118 A 
ATOM     16  O   UNL d   1      59.839  -2.234  29.197  0.00  0.00    -0.304 OA
ATOM     17  C   UNL d   1      59.626  -3.030  29.198  0.00  0.00     0.123 A 
ATOM     18  C   UNL d   1      58.936  -3.095  28.743  0.00  0.00     0.029 A 
ATOM     19  C   UNL d   1      58.728  -2.347  28.466  0.00  0.00     0.028 A 
ENDBRANCH  14  15
ENDBRANCH   1  14
TORSDOF 3
ENDMDL
MODEL 8
REMARK VINA RESULT:      -1.8      1.685      3.609
REMARK  3 active torsions:
REMARK  status: ('A' for Active; 'I' for Inactive)
REMARK    1  A    between atoms: C_7  and  N_1 
REMARK    2  A    between atoms: C_5  and  C_2 
REMARK    3  A    between atoms: C_11  and  C_7 
ROOT
ATOM      1  N   UNL d   1      59.520  -0.752  28.998  0.00  0.00    -0.262 N 
ATOM      2  C   UNL d   1      59.895  -1.470  28.832  0.00  0.00     0.173 A 
ATOM      3  N   UNL d   1      60.675  -1.282  28.647  0.00  0.00    -0.128 NA
ATOM      4  C   UNL d   1      60.046  -0.144  28.918  0.00  0.00     0.227 A 
ATOM      5  N   UNL d   1      60.773  -0.467  28.698  0.00  0.00    -0.117 NA
ATOM      6  S   UNL d   1      59.973   0.682  29.015  0.00  0.00    -0.036 SA
ENDROOT
BRANCH   2   7
ATOM      7  C   UNL d   1      59.570  -2.225  28.846  0.00  0.00     0.064 A 
ATOM      8  C   UNL d   1      58.917  -2.706  28.718  0.00  0.00     0.143 A 
ATOM      9  F   UNL d   1      58.301  -2.216  28.455  0.00  0.00    -0.204 F 
ATOM     10  C   UNL d   1      58.978  -3.525  28.859  0.00  0.00     0.030 A 
ATOM     11  C   UNL d   1      59.687  -3.852  29.126  0.00  0.00     0.002 A 
ATOM     12  C   UNL d   1      60.332  -3.365  29.251  0.00  0.00     0.000 A 
ATOM     13  C   UNL d   1      60.278  -2.545  29.111  0.00  0.00     0.005 A 
ENDBRANCH   2   7
BRANCH   1  14
ATOM     14  C   UNL d   1      58.726  -0.649  29.215  0.00  0.00     0.108 C 
BRANCH  14  15
ATOM     15  C   UNL d   1      58.548  -0.230  29.901  0.00  0.00     0.118 A 
ATOM     16  O   UNL d   1      58.817  -0.405  30.661  0.00  0.00    -0.304 OA
ATOM     17  C   UNL d   1      58.509   0.151  31.186  0.00  0.00     0.123 A 
ATOM     18  C   UNL d   1      58.045   0.672  30.740  0.00  0.00     0.029 A 
ATOM     19  C   UNL d   1      58.068   0.439  29.950  0.00  0.00     0.028 A 
ENDBRANCH  14  15
ENDBRANCH   1  14
TORSDOF 3
ENDMDL
MODEL 9
REMARK VINA RESULT:      -1.1      9.358     10.027
REMARK  3 active torsions:
REMARK  status: ('A' for Active; 'I' for Inactive)
REMARK    1  A    between atoms: C_7  and  N_1 
REMARK    2  A    between atoms: C_5  and  C_2 
REMARK    3  A    between atoms: C_11  and  C_7 
ROOT
ATOM      1  N   UNL d   1      59.784  -9.788  33.632  0.00  0.00    -0.262 N 
ATOM      2  C   UNL d   1      59.534  -9.793  32.844  0.00  0.00     0.173 A 
ATOM      3  N   UNL d   1      60.219  -9.787  32.387  0.00  0.00    -0.128 NA
ATOM      4  C   UNL d   1      60.591  -9.779  33.662  0.00  0.00     0.227 A 
ATOM      5  N   UNL d   1      60.873  -9.778  32.886  0.00  0.00    -0.117 NA
ATOM      6  S   UNL d   1      61.133  -9.771  34.298  0.00  0.00    -0.036 SA
ENDROOT
BRANCH   2   7
ATOM      7  C   UNL d   1      58.763  -9.802  32.559  0.00  0.00     0.064 A 
ATOM      8  C   UNL d   1      57.959  -9.810  32.722  0.00  0.00     0.143 A 
ATOM      9  F   UNL d   1      57.878  -9.809  33.548  0.00  0.00    -0.204 F 
ATOM     10  C   UNL d   1      57.413  -9.817  32.093  0.00  0.00     0.030 A 
ATOM     11  C   UNL d   1      57.676  -9.817  31.310  0.00  0.00     0.002 A 
ATOM     12  C   UNL d   1      58.480  -9.808  31.157  0.00  0.00     0.000 A 
ATOM     13  C   UNL d   1      59.031  -9.801  31.782  0.00  0.00     0.005 A 
ENDBRANCH   2   7
BRANCH   1  14
ATOM     14  C   UNL d   1      59.298  -9.791  34.304  0.00  0.00     0.108 C 
BRANCH  14  15
ATOM     15  C   UNL d   1      59.412  -9.219  34.885  0.00  0.00     0.118 A 
ATOM     16  O   UNL d   1      59.330  -8.404  34.788  0.00  0.00    -0.304 OA
ATOM     17  C   UNL d   1      59.494  -8.033  35.506  0.00  0.00     0.123 A 
ATOM     18  C   UNL d   1      59.679  -8.631  36.049  0.00  0.00     0.029 A 
ATOM     19  C   UNL d   1      59.629  -9.361  35.669  0.00  0.00     0.028 A 
ENDBRANCH  14  15
ENDBRANCH   1  14
TORSDOF 3
ENDMDL
