MODEL 1
REMARK VINA RESULT:      13.7      0.000      0.000
REMARK  5 active torsions:
REMARK  status: ('A' for Active; 'I' for Inactive)
REMARK    1  A    between atoms: C_13  and  C_5 
REMARK    2  A    between atoms: C_16  and  C_13 
REMARK    3  A    between atoms: C_19  and  C_16 
REMARK    4  A    between atoms: C_17  and  C_18 
REMARK    5  A    between atoms: C_18  and  C_19 
ROOT
ATOM      1  C   UNL d   1      46.563 -18.465  42.226  0.00  0.00     0.111 A 
ATOM      2  C   UNL d   1      46.553 -18.898  43.601  0.00  0.00     0.062 A 
ATOM      3  C   UNL d   1      46.505 -19.237  41.982  0.00  0.00     0.213 A 
ATOM      4  C   UNL d   1      46.491 -19.707  43.329  0.00  0.00     0.105 A 
ATOM      5  C   UNL d   1      46.588 -18.285  43.050  0.00  0.00     0.018 A 
ATOM      6  O   UNL d   1      46.467 -19.885  42.556  0.00  0.00    -0.287 OA
ATOM      7  C   UNL d   1      46.599 -17.852  41.674  0.00  0.00     0.105 C 
ATOM      8  C   UNL d   1      46.576 -18.746  44.405  0.00  0.00     0.198 A 
ATOM      9  N   UNL d   1      46.636 -17.225  41.110  0.00  0.00    -0.191 NA
ATOM     10  N   UNL d   1      46.478 -19.439  41.139  0.00  0.00    -0.120 N 
ATOM     11  O   UNL d   1      46.636 -17.944  44.647  0.00  0.00    -0.286 OA
ATOM     12  C   UNL d   1      46.455 -20.330  43.894  0.00  0.00     0.025 A 
ATOM     13  C   UNL d   1      46.540 -19.364  44.955  0.00  0.00     0.042 A 
ATOM     14  C   UNL d   1      46.479 -20.156  44.705  0.00  0.00     0.005 A 
ENDROOT
BRANCH   5  15
ATOM     15  C   UNL d   1      46.647 -17.518  43.292  0.00  0.00     0.001 C 
BRANCH  15  16
ATOM     16  C   UNL d   1      46.013 -17.131  43.620  0.00  0.00     0.000 C 
BRANCH  16  17
ATOM     17  C   UNL d   1      46.068 -16.328  43.909  0.00  0.00     0.000 C 
BRANCH  17  18
ATOM     18  C   UNL d   1      45.537 -16.069  44.475  0.00  0.00     0.000 C 
BRANCH  18  19
ATOM     19  C   UNL d   1      45.092 -15.396  44.313  0.00  0.00     0.000 C 
ATOM     20  C   UNL d   1      44.953 -14.853  44.894  0.00  0.00     0.000 C 
ENDBRANCH  18  19
ENDBRANCH  17  18
ENDBRANCH  16  17
ENDBRANCH  15  16
ENDBRANCH   5  15
TORSDOF 5
ENDMDL
