MODEL 1
REMARK VINA RESULT:      -5.8      0.000      0.000
REMARK  3 active torsions:
REMARK  status: ('A' for Active; 'I' for Inactive)
REMARK    1  A    between atoms: C_8  and  C_4 
REMARK    2  A    between atoms: N_5  and  C_7 
REMARK    3  A    between atoms: C_12  and  C_6 
ROOT
ATOM      1  O   UNL d   1      57.483  -0.517  31.094  0.00  0.00    -0.268 OA
ATOM      2  N   UNL d   1      56.813   0.638  31.119  0.00  0.00    -0.121 NA
ATOM      3  N   UNL d   1      57.366   0.682  30.508  0.00  0.00    -0.121 NA
ATOM      4  C   UNL d   1      56.882  -0.094  31.479  0.00  0.00     0.204 A 
ATOM      5  C   UNL d   1      57.783  -0.030  30.489  0.00  0.00     0.204 A 
ENDROOT
BRANCH   4   6
ATOM      6  C   UNL d   1      56.435  -0.375  32.118  0.00  0.00     0.045 A 
ATOM      7  C   UNL d   1      56.121   0.155  32.667  0.00  0.00     0.027 A 
ATOM      8  C   UNL d   1      55.679  -0.127  33.299  0.00  0.00     0.127 A 
ATOM      9  C   UNL d   1      55.547  -0.939  33.384  0.00  0.00     0.024 A 
ATOM     10  C   UNL d   1      55.859  -1.468  32.838  0.00  0.00     0.002 A 
ATOM     11  C   UNL d   1      56.303  -1.187  32.203  0.00  0.00     0.004 A 
BRANCH   8  12
ATOM     12  N   UNL d   1      55.364   0.412  33.850  0.00  0.00    -0.114 N 
ATOM     13  O   UNL d   1      55.838   0.681  34.481  0.00  0.00    -0.532 OA
ATOM     14  O   UNL d   1      54.587   0.680  33.777  0.00  0.00    -0.532 OA
ENDBRANCH   8  12
ENDBRANCH   4   6
BRANCH   5  15
ATOM     15  C   UNL d   1      58.386  -0.223  29.965  0.00  0.00     0.043 A 
ATOM     16  C   UNL d   1      58.263  -0.793  29.385  0.00  0.00     0.004 A 
ATOM     17  C   UNL d   1      58.875  -0.985  28.858  0.00  0.00     0.000 A 
ATOM     18  C   UNL d   1      59.603  -0.604  28.916  0.00  0.00     0.000 A 
ATOM     19  C   UNL d   1      59.719  -0.031  29.504  0.00  0.00     0.000 A 
ATOM     20  C   UNL d   1      59.117   0.164  30.030  0.00  0.00     0.004 A 
ENDBRANCH   5  15
TORSDOF 3
ENDMDL
MODEL 2
REMARK VINA RESULT:      -5.7      1.529      4.572
REMARK  3 active torsions:
REMARK  status: ('A' for Active; 'I' for Inactive)
REMARK    1  A    between atoms: C_8  and  C_4 
REMARK    2  A    between atoms: N_5  and  C_7 
REMARK    3  A    between atoms: C_12  and  C_6 
ROOT
ATOM      1  O   UNL d   1      57.671  -0.411  31.062  0.00  0.00    -0.268 OA
ATOM      2  N   UNL d   1      57.489   0.672  30.301  0.00  0.00    -0.121 NA
ATOM      3  N   UNL d   1      56.910   0.679  30.889  0.00  0.00    -0.121 NA
ATOM      4  C   UNL d   1      57.955   0.007  30.403  0.00  0.00     0.204 A 
ATOM      5  C   UNL d   1      57.019   0.011  31.362  0.00  0.00     0.204 A 
ENDROOT
BRANCH   4   6
ATOM      6  C   UNL d   1      58.602  -0.220  29.938  0.00  0.00     0.045 A 
ATOM      7  C   UNL d   1      59.324   0.172  30.015  0.00  0.00     0.027 A 
ATOM      8  C   UNL d   1      59.963  -0.056  29.551  0.00  0.00     0.127 A 
ATOM      9  C   UNL d   1      59.883  -0.676  29.010  0.00  0.00     0.024 A 
ATOM     10  C   UNL d   1      59.165  -1.068  28.933  0.00  0.00     0.002 A 
ATOM     11  C   UNL d   1      58.523  -0.840  29.397  0.00  0.00     0.004 A 
BRANCH   8  12
ATOM     12  N   UNL d   1      60.689   0.343  29.633  0.00  0.00    -0.114 N 
ATOM     13  O   UNL d   1      61.048   0.401  30.382  0.00  0.00    -0.532 OA
ATOM     14  O   UNL d   1      61.056   0.682  28.975  0.00  0.00    -0.532 OA
ENDBRANCH   8  12
ENDBRANCH   4   6
BRANCH   5  15
ATOM     15  C   UNL d   1      56.563  -0.198  32.014  0.00  0.00     0.043 A 
ATOM     16  C   UNL d   1      56.434  -0.991  32.189  0.00  0.00     0.004 A 
ATOM     17  C   UNL d   1      55.973  -1.199  32.848  0.00  0.00     0.000 A 
ATOM     18  C   UNL d   1      55.647  -0.611  33.324  0.00  0.00     0.000 A 
ATOM     19  C   UNL d   1      55.782   0.186  33.141  0.00  0.00     0.000 A 
ATOM     20  C   UNL d   1      56.238   0.399  32.489  0.00  0.00     0.004 A 
ENDBRANCH   5  15
TORSDOF 3
ENDMDL
MODEL 3
REMARK VINA RESULT:      -5.6      1.038      1.551
REMARK  3 active torsions:
REMARK  status: ('A' for Active; 'I' for Inactive)
REMARK    1  A    between atoms: C_8  and  C_4 
REMARK    2  A    between atoms: N_5  and  C_7 
REMARK    3  A    between atoms: C_12  and  C_6 
ROOT
ATOM      1  O   UNL d   1      58.125  -0.438  30.715  0.00  0.00    -0.268 OA
ATOM      2  N   UNL d   1      57.318   0.561  30.347  0.00  0.00    -0.121 NA
ATOM      3  N   UNL d   1      57.775   0.353  29.692  0.00  0.00    -0.121 NA
ATOM      4  C   UNL d   1      57.530   0.079  30.974  0.00  0.00     0.204 A 
ATOM      5  C   UNL d   1      58.275  -0.264  29.914  0.00  0.00     0.204 A 
ENDROOT
BRANCH   4   6
ATOM      6  C   UNL d   1      57.213   0.095  31.739  0.00  0.00     0.045 A 
ATOM      7  C   UNL d   1      56.635  -0.451  31.958  0.00  0.00     0.027 A 
ATOM      8  C   UNL d   1      56.323  -0.432  32.718  0.00  0.00     0.127 A 
ATOM      9  C   UNL d   1      56.586   0.133  33.262  0.00  0.00     0.024 A 
ATOM     10  C   UNL d   1      57.162   0.678  33.045  0.00  0.00     0.002 A 
ATOM     11  C   UNL d   1      57.476   0.660  32.283  0.00  0.00     0.004 A 
BRANCH   8  12
ATOM     12  N   UNL d   1      55.739  -0.985  32.934  0.00  0.00    -0.114 N 
ATOM     13  O   UNL d   1      55.031  -0.724  33.286  0.00  0.00    -0.532 OA
ATOM     14  O   UNL d   1      55.858  -1.792  32.801  0.00  0.00    -0.532 OA
ENDBRANCH   8  12
ENDBRANCH   4   6
BRANCH   5  15
ATOM     15  C   UNL d   1      58.823  -0.639  29.431  0.00  0.00     0.043 A 
ATOM     16  C   UNL d   1      59.504  -0.243  29.194  0.00  0.00     0.004 A 
ATOM     17  C   UNL d   1      60.056  -0.625  28.705  0.00  0.00     0.000 A 
ATOM     18  C   UNL d   1      59.921  -1.400  28.459  0.00  0.00     0.000 A 
ATOM     19  C   UNL d   1      59.233  -1.792  28.702  0.00  0.00     0.000 A 
ATOM     20  C   UNL d   1      58.681  -1.419  29.187  0.00  0.00     0.004 A 
ENDBRANCH   5  15
TORSDOF 3
ENDMDL
MODEL 4
REMARK VINA RESULT:      -4.6      0.928      1.165
REMARK  3 active torsions:
REMARK  status: ('A' for Active; 'I' for Inactive)
REMARK    1  A    between atoms: C_8  and  C_4 
REMARK    2  A    between atoms: N_5  and  C_7 
REMARK    3  A    between atoms: C_12  and  C_6 
ROOT
ATOM      1  O   UNL d   1      58.176   0.078  31.163  0.00  0.00    -0.268 OA
ATOM      2  N   UNL d   1      57.004   0.618  30.818  0.00  0.00    -0.121 NA
ATOM      3  N   UNL d   1      57.467   0.567  30.137  0.00  0.00    -0.121 NA
ATOM      4  C   UNL d   1      57.434   0.320  31.447  0.00  0.00     0.204 A 
ATOM      5  C   UNL d   1      58.192   0.234  30.345  0.00  0.00     0.204 A 
ENDROOT
BRANCH   4   6
ATOM      6  C   UNL d   1      57.184   0.265  32.235  0.00  0.00     0.045 A 
ATOM      7  C   UNL d   1      56.440  -0.044  32.411  0.00  0.00     0.027 A 
ATOM      8  C   UNL d   1      56.196  -0.098  33.194  0.00  0.00     0.127 A 
ATOM      9  C   UNL d   1      56.693   0.157  33.803  0.00  0.00     0.024 A 
ATOM     10  C   UNL d   1      57.435   0.465  33.629  0.00  0.00     0.002 A 
ATOM     11  C   UNL d   1      57.682   0.519  32.844  0.00  0.00     0.004 A 
BRANCH   8  12
ATOM     12  N   UNL d   1      55.443  -0.410  33.366  0.00  0.00    -0.114 N 
ATOM     13  O   UNL d   1      55.271  -1.203  33.176  0.00  0.00    -0.532 OA
ATOM     14  O   UNL d   1      54.866   0.060  33.724  0.00  0.00    -0.532 OA
ENDBRANCH   8  12
ENDBRANCH   4   6
BRANCH   5  15
ATOM     15  C   UNL d   1      58.819   0.083  29.835  0.00  0.00     0.043 A 
ATOM     16  C   UNL d   1      58.774  -0.540  29.300  0.00  0.00     0.004 A 
ATOM     17  C   UNL d   1      59.409  -0.690  28.786  0.00  0.00     0.000 A 
ATOM     18  C   UNL d   1      60.081  -0.215  28.814  0.00  0.00     0.000 A 
ATOM     19  C   UNL d   1      60.119   0.410  29.356  0.00  0.00     0.000 A 
ATOM     20  C   UNL d   1      59.493   0.565  29.868  0.00  0.00     0.004 A 
ENDBRANCH   5  15
TORSDOF 3
ENDMDL
MODEL 5
REMARK VINA RESULT:      -3.4      1.519      4.637
REMARK  3 active torsions:
REMARK  status: ('A' for Active; 'I' for Inactive)
REMARK    1  A    between atoms: C_8  and  C_4 
REMARK    2  A    between atoms: N_5  and  C_7 
REMARK    3  A    between atoms: C_12  and  C_6 
ROOT
ATOM      1  O   UNL d   1      57.181  -0.139  31.061  0.00  0.00    -0.268 OA
ATOM      2  N   UNL d   1      58.199   0.682  31.332  0.00  0.00    -0.121 NA
ATOM      3  N   UNL d   1      57.729   0.633  32.009  0.00  0.00    -0.121 NA
ATOM      4  C   UNL d   1      57.867   0.211  30.751  0.00  0.00     0.204 A 
ATOM      5  C   UNL d   1      57.099   0.127  31.846  0.00  0.00     0.204 A 
ENDROOT
BRANCH   4   6
ATOM      6  C   UNL d   1      58.156   0.096  29.983  0.00  0.00     0.045 A 
ATOM      7  C   UNL d   1      58.566  -0.595  29.796  0.00  0.00     0.027 A 
ATOM      8  C   UNL d   1      58.851  -0.706  29.033  0.00  0.00     0.127 A 
ATOM      9  C   UNL d   1      58.727  -0.128  28.455  0.00  0.00     0.024 A 
ATOM     10  C   UNL d   1      58.318   0.560  28.640  0.00  0.00     0.002 A 
ATOM     11  C   UNL d   1      58.032   0.673  29.405  0.00  0.00     0.004 A 
BRANCH   8  12
ATOM     12  N   UNL d   1      59.265  -1.405  28.850  0.00  0.00    -0.114 N 
ATOM     13  O   UNL d   1      60.098  -1.403  28.844  0.00  0.00    -0.532 OA
ATOM     14  O   UNL d   1      58.855  -2.100  28.673  0.00  0.00    -0.532 OA
ENDBRANCH   8  12
ENDBRANCH   4   6
BRANCH   5  15
ATOM     15  C   UNL d   1      56.497  -0.078  32.367  0.00  0.00     0.043 A 
ATOM     16  C   UNL d   1      56.095   0.507  32.784  0.00  0.00     0.004 A 
ATOM     17  C   UNL d   1      55.488   0.297  33.309  0.00  0.00     0.000 A 
ATOM     18  C   UNL d   1      55.288  -0.496  33.412  0.00  0.00     0.000 A 
ATOM     19  C   UNL d   1      55.697  -1.079  32.988  0.00  0.00     0.000 A 
ATOM     20  C   UNL d   1      56.301  -0.878  32.465  0.00  0.00     0.004 A 
ENDBRANCH   5  15
TORSDOF 3
ENDMDL
