MODEL 1
REMARK VINA RESULT:      -9.3      0.000      0.000
REMARK  7 active torsions:
REMARK  status: ('A' for Active; 'I' for Inactive)
REMARK    1  A    between atoms: S_2  and  C_1 
REMARK    2  A    between atoms: C_7  and  S_2 
REMARK    3  A    between atoms: C_9  and  N_3 
REMARK    4  A    between atoms: C_11  and  C_7 
REMARK    5  A    between atoms: C_8  and  C_9 
REMARK       I    between atoms: N_10  and  C_8 
REMARK       I    between atoms: N_15  and  C_11 
REMARK    6  A    between atoms: C_12  and  C_16 
REMARK    7  A    between atoms: C_23  and  N_15 
ROOT
ATOM      1  C   UNL d   1      53.038  33.666  53.857  0.00  0.00     0.107 A 
ATOM      2  N   UNL d   1      53.661  32.509  53.653  0.00  0.00    -0.299 N 
ATOM      3  C   UNL d   1      52.986  32.939  53.463  0.00  0.00     0.092 A 
ATOM      4  C   UNL d   1      53.742  33.677  54.285  0.00  0.00     0.028 A 
ATOM      5  C   UNL d   1      54.127  32.957  54.157  0.00  0.00     0.065 A 
ATOM      6  C   UNL d   1      54.079  34.246  54.772  0.00  0.00     0.002 A 
ATOM      7  C   UNL d   1      54.852  32.815  54.521  0.00  0.00     0.018 A 
ATOM      8  C   UNL d   1      54.808  34.104  55.138  0.00  0.00     0.000 A 
ATOM      9  C   UNL d   1      55.190  33.384  55.009  0.00  0.00     0.002 A 
ENDROOT
BRANCH   1  10
ATOM     10  S   UNL d   1      52.478  34.275  53.824  0.00  0.00     0.217 S 
ATOM     11  O   UNL d   1      52.877  34.670  53.230  0.00  0.00    -0.217 OA
ATOM     12  O   UNL d   1      52.074  33.871  54.428  0.00  0.00    -0.217 OA
BRANCH  10  13
ATOM     13  C   UNL d   1      51.914  34.882  53.796  0.00  0.00     0.161 C 
BRANCH  13  14
ATOM     14  C   UNL d   1      51.319  34.858  53.241  0.00  0.00     0.291 C 
ATOM     15  N   UNL d   1      50.529  34.852  53.477  0.00  0.00    -0.207 NA
ATOM     16  O   UNL d   1      51.506  34.839  52.435  0.00  0.00    -0.264 OA
BRANCH  15  17
ATOM     17  C   UNL d   1      49.929  34.828  52.912  0.00  0.00     0.085 A 
ATOM     18  C   UNL d   1      49.281  35.339  52.969  0.00  0.00     0.019 A 
ATOM     19  C   UNL d   1      48.679  35.320  52.410  0.00  0.00     0.006 A 
ATOM     20  C   UNL d   1      48.718  34.781  51.776  0.00  0.00     0.059 A 
ATOM     21  C   UNL d   1      49.360  34.267  51.709  0.00  0.00     0.006 A 
ATOM     22  C   UNL d   1      49.971  34.288  52.280  0.00  0.00     0.019 A 
BRANCH  20  23
ATOM     23  C   UNL d   1      48.125  34.755  51.214  0.00  0.00     0.297 C 
ATOM     24  O   UNL d   1      48.075  34.127  50.676  0.00  0.00    -0.264 OA
ATOM     25  N   UNL d   1      47.558  35.371  51.182  0.00  0.00    -0.102 N 
ENDBRANCH  20  23
ENDBRANCH  15  17
ENDBRANCH  13  14
ENDBRANCH  10  13
ENDBRANCH   1  10
BRANCH   2  26
ATOM     26  C   UNL d   1      53.838  31.751  53.382  0.00  0.00     0.142 C 
BRANCH  26  27
ATOM     27  C   UNL d   1      53.241  31.271  53.081  0.00  0.00     0.282 C 
ATOM     28  N   UNL d   1      53.161  30.496  53.349  0.00  0.00    -0.271 N 
ATOM     29  C   UNL d   1      53.676  30.193  53.920  0.00  0.00     0.083 A 
ATOM     30  C   UNL d   1      52.565  30.017  53.049  0.00  0.00     0.083 A 
ATOM     31  C   UNL d   1      53.595  29.414  54.189  0.00  0.00     0.019 A 
ATOM     32  C   UNL d   1      52.999  28.939  53.886  0.00  0.00     0.003 A 
ATOM     33  C   UNL d   1      52.483  29.234  53.319  0.00  0.00     0.019 A 
ATOM     34  O   UNL d   1      52.726  31.567  52.513  0.00  0.00    -0.265 OA
ENDBRANCH  26  27
ENDBRANCH   2  26
TORSDOF 7
ENDMDL
MODEL 2
REMARK VINA RESULT:      -9.0      1.507      2.012
REMARK  7 active torsions:
REMARK  status: ('A' for Active; 'I' for Inactive)
REMARK    1  A    between atoms: S_2  and  C_1 
REMARK    2  A    between atoms: C_7  and  S_2 
REMARK    3  A    between atoms: C_9  and  N_3 
REMARK    4  A    between atoms: C_11  and  C_7 
REMARK    5  A    between atoms: C_8  and  C_9 
REMARK       I    between atoms: N_10  and  C_8 
REMARK       I    between atoms: N_15  and  C_11 
REMARK    6  A    between atoms: C_12  and  C_16 
REMARK    7  A    between atoms: C_23  and  N_15 
ROOT
ATOM      1  C   UNL d   1      51.704  33.777  52.963  0.00  0.00     0.107 A 
ATOM      2  N   UNL d   1      52.614  32.938  53.450  0.00  0.00    -0.299 N 
ATOM      3  C   UNL d   1      51.945  32.985  52.974  0.00  0.00     0.092 A 
ATOM      4  C   UNL d   1      52.225  34.210  53.432  0.00  0.00     0.028 A 
ATOM      5  C   UNL d   1      52.789  33.686  53.733  0.00  0.00     0.065 A 
ATOM      6  C   UNL d   1      52.258  35.008  53.623  0.00  0.00     0.002 A 
ATOM      7  C   UNL d   1      53.385  33.972  54.226  0.00  0.00     0.018 A 
ATOM      8  C   UNL d   1      52.856  35.296  54.118  0.00  0.00     0.000 A 
ATOM      9  C   UNL d   1      53.419  34.770  54.417  0.00  0.00     0.002 A 
ENDROOT
BRANCH   1  10
ATOM     10  S   UNL d   1      51.052  34.079  52.553  0.00  0.00     0.217 S 
ATOM     11  O   UNL d   1      51.521  34.477  52.014  0.00  0.00    -0.217 OA
ATOM     12  O   UNL d   1      50.578  33.673  53.102  0.00  0.00    -0.217 OA
BRANCH  10  13
ATOM     13  C   UNL d   1      50.395  34.379  52.145  0.00  0.00     0.161 C 
BRANCH  13  14
ATOM     14  C   UNL d   1      49.738  34.625  52.558  0.00  0.00     0.291 C 
ATOM     15  N   UNL d   1      49.349  35.320  52.348  0.00  0.00    -0.207 NA
ATOM     16  O   UNL d   1      49.459  34.176  53.194  0.00  0.00    -0.264 OA
BRANCH  15  17
ATOM     17  C   UNL d   1      48.684  35.566  52.769  0.00  0.00     0.085 A 
ATOM     18  C   UNL d   1      47.928  35.477  52.445  0.00  0.00     0.019 A 
ATOM     19  C   UNL d   1      47.261  35.719  52.858  0.00  0.00     0.006 A 
ATOM     20  C   UNL d   1      47.342  36.060  53.613  0.00  0.00     0.059 A 
ATOM     21  C   UNL d   1      48.092  36.154  53.947  0.00  0.00     0.006 A 
ATOM     22  C   UNL d   1      48.769  35.906  53.523  0.00  0.00     0.019 A 
BRANCH  20  23
ATOM     23  C   UNL d   1      46.685  36.305  54.033  0.00  0.00     0.297 C 
ATOM     24  O   UNL d   1      46.619  36.158  54.846  0.00  0.00    -0.264 OA
ATOM     25  N   UNL d   1      46.069  36.709  53.636  0.00  0.00    -0.102 N 
ENDBRANCH  20  23
ENDBRANCH  15  17
ENDBRANCH  13  14
ENDBRANCH  10  13
ENDBRANCH   1  10
BRANCH   2  26
ATOM     26  C   UNL d   1      53.037  32.250  53.615  0.00  0.00     0.142 C 
BRANCH  26  27
ATOM     27  C   UNL d   1      52.970  31.597  53.120  0.00  0.00     0.282 C 
ATOM     28  N   UNL d   1      53.061  30.837  53.425  0.00  0.00    -0.271 N 
ATOM     29  C   UNL d   1      53.220  30.723  54.228  0.00  0.00     0.083 A 
ATOM     30  C   UNL d   1      52.994  30.183  52.931  0.00  0.00     0.083 A 
ATOM     31  C   UNL d   1      53.312  29.959  54.535  0.00  0.00     0.019 A 
ATOM     32  C   UNL d   1      53.244  29.310  54.038  0.00  0.00     0.003 A 
ATOM     33  C   UNL d   1      53.086  29.416  53.239  0.00  0.00     0.019 A 
ATOM     34  O   UNL d   1      52.812  31.703  52.321  0.00  0.00    -0.265 OA
ENDBRANCH  26  27
ENDBRANCH   2  26
TORSDOF 7
ENDMDL
MODEL 3
REMARK VINA RESULT:      -6.7      1.415      5.721
REMARK  7 active torsions:
REMARK  status: ('A' for Active; 'I' for Inactive)
REMARK    1  A    between atoms: S_2  and  C_1 
REMARK    2  A    between atoms: C_7  and  S_2 
REMARK    3  A    between atoms: C_9  and  N_3 
REMARK    4  A    between atoms: C_11  and  C_7 
REMARK    5  A    between atoms: C_8  and  C_9 
REMARK       I    between atoms: N_10  and  C_8 
REMARK       I    between atoms: N_15  and  C_11 
REMARK    6  A    between atoms: C_12  and  C_16 
REMARK    7  A    between atoms: C_23  and  N_15 
ROOT
ATOM      1  C   UNL d   1      51.800  33.565  53.000  0.00  0.00     0.107 A 
ATOM      2  N   UNL d   1      50.888  34.491  53.284  0.00  0.00    -0.299 N 
ATOM      3  C   UNL d   1      51.002  33.767  52.910  0.00  0.00     0.092 A 
ATOM      4  C   UNL d   1      52.170  34.165  53.427  0.00  0.00     0.028 A 
ATOM      5  C   UNL d   1      51.602  34.738  53.602  0.00  0.00     0.065 A 
ATOM      6  C   UNL d   1      52.947  34.262  53.677  0.00  0.00     0.002 A 
ATOM      7  C   UNL d   1      51.820  35.408  54.030  0.00  0.00     0.018 A 
ATOM      8  C   UNL d   1      53.167  34.934  54.107  0.00  0.00     0.000 A 
ATOM      9  C   UNL d   1      52.597  35.506  54.281  0.00  0.00     0.002 A 
ENDROOT
BRANCH   1  10
ATOM     10  S   UNL d   1      52.162  32.880  52.709  0.00  0.00     0.217 S 
ATOM     11  O   UNL d   1      52.595  33.291  52.151  0.00  0.00    -0.217 OA
ATOM     12  O   UNL d   1      51.720  32.464  53.278  0.00  0.00    -0.217 OA
BRANCH  10  13
ATOM     13  C   UNL d   1      52.521  32.189  52.423  0.00  0.00     0.161 C 
BRANCH  13  14
ATOM     14  C   UNL d   1      52.554  31.524  52.891  0.00  0.00     0.291 C 
ATOM     15  N   UNL d   1      53.281  31.201  53.106  0.00  0.00    -0.207 NA
ATOM     16  O   UNL d   1      51.854  31.169  53.154  0.00  0.00    -0.264 OA
BRANCH  15  17
ATOM     17  C   UNL d   1      53.310  30.528  53.581  0.00  0.00     0.085 A 
ATOM     18  C   UNL d   1      53.291  29.775  53.238  0.00  0.00     0.019 A 
ATOM     19  C   UNL d   1      53.320  29.099  53.705  0.00  0.00     0.006 A 
ATOM     20  C   UNL d   1      53.369  29.168  54.533  0.00  0.00     0.059 A 
ATOM     21  C   UNL d   1      53.389  29.915  54.886  0.00  0.00     0.006 A 
ATOM     22  C   UNL d   1      53.359  30.600  54.408  0.00  0.00     0.019 A 
BRANCH  20  23
ATOM     23  C   UNL d   1      53.399  28.503  55.006  0.00  0.00     0.297 C 
ATOM     24  O   UNL d   1      53.420  27.744  54.674  0.00  0.00    -0.264 OA
ATOM     25  N   UNL d   1      53.408  28.588  55.839  0.00  0.00    -0.102 N 
ENDBRANCH  20  23
ENDBRANCH  15  17
ENDBRANCH  13  14
ENDBRANCH  10  13
ENDBRANCH   1  10
BRANCH   2  26
ATOM     26  C   UNL d   1      50.174  34.899  53.331  0.00  0.00     0.142 C 
BRANCH  26  27
ATOM     27  C   UNL d   1      49.654  34.893  52.694  0.00  0.00     0.282 C 
ATOM     28  N   UNL d   1      48.942  35.305  52.738  0.00  0.00    -0.271 N 
ATOM     29  C   UNL d   1      48.743  35.728  53.420  0.00  0.00     0.083 A 
ATOM     30  C   UNL d   1      48.422  35.299  52.102  0.00  0.00     0.083 A 
ATOM     31  C   UNL d   1      48.028  36.143  53.464  0.00  0.00     0.019 A 
ATOM     32  C   UNL d   1      47.512  36.134  52.827  0.00  0.00     0.003 A 
ATOM     33  C   UNL d   1      47.703  35.716  52.146  0.00  0.00     0.019 A 
ATOM     34  O   UNL d   1      49.846  34.474  52.013  0.00  0.00    -0.265 OA
ENDBRANCH  26  27
ENDBRANCH   2  26
TORSDOF 7
ENDMDL
