MODEL 1
REMARK VINA RESULT:      39.7      0.000      0.000
REMARK  3 active torsions:
REMARK  status: ('A' for Active; 'I' for Inactive)
REMARK    1  A    between atoms: C_2  and  S_1 
REMARK    2  A    between atoms: N_3  and  S_1 
REMARK    3  A    between atoms: C_10  and  N_3 
ROOT
ATOM      1  S   UNL d   1      59.608  49.675  50.633  0.00  0.00     0.285 S 
ATOM      2  O   UNL d   1      59.493  49.653  51.467  0.00  0.00    -0.198 OA
ATOM      3  O   UNL d   1      59.704  49.697  49.813  0.00  0.00    -0.198 OA
ENDROOT
BRANCH   1   4
ATOM      4  C   UNL d   1      58.780  49.673  50.518  0.00  0.00     0.107 A 
ATOM      5  C   UNL d   1      58.467  49.638  49.753  0.00  0.00     0.040 A 
ATOM      6  C   UNL d   1      57.660  49.637  49.661  0.00  0.00     0.123 A 
ATOM      7  O   UNL d   1      57.331  49.603  48.909  0.00  0.00    -0.301 OA
ATOM      8  C   UNL d   1      57.160  49.672  50.333  0.00  0.00     0.123 A 
ATOM      9  C   UNL d   1      56.504  49.603  48.828  0.00  0.00     0.149 A 
ATOM     10  C   UNL d   1      56.035  49.635  49.459  0.00  0.00     0.149 A 
ATOM     11  O   UNL d   1      56.348  49.670  50.231  0.00  0.00    -0.301 OA
ATOM     12  C   UNL d   1      57.484  49.705  51.074  0.00  0.00     0.028 A 
ATOM     13  C   UNL d   1      58.310  49.705  51.148  0.00  0.00     0.015 A 
ENDBRANCH   1   4
BRANCH   1  14
ATOM     14  N   UNL d   1      60.434  49.678  50.728  0.00  0.00    -0.158 NA
BRANCH  14  15
ATOM     15  C   UNL d   1      60.801  49.006  51.074  0.00  0.00     0.094 A 
ATOM     16  C   UNL d   1      60.741  48.274  50.685  0.00  0.00     0.020 A 
ATOM     17  C   UNL d   1      61.106  47.607  51.028  0.00  0.00     0.002 A 
ATOM     18  C   UNL d   1      61.055  46.859  50.649  0.00  0.00     0.000 C 
ATOM     19  C   UNL d   1      61.517  47.679  51.740  0.00  0.00     0.000 A 
ATOM     20  C   UNL d   1      61.556  48.421  52.095  0.00  0.00     0.002 A 
ATOM     21  C   UNL d   1      61.204  49.070  51.767  0.00  0.00     0.020 A 
ENDBRANCH  14  15
ENDBRANCH   1  14
TORSDOF 3
ENDMDL
