MODEL 1
REMARK VINA RESULT:      -8.8      0.000      0.000
REMARK  6 active torsions:
REMARK  status: ('A' for Active; 'I' for Inactive)
REMARK    1  A    between atoms: S_3  and  N_1 
REMARK    2  A    between atoms: C_19  and  S_3 
REMARK    3  A    between atoms: S_4  and  N_8 
REMARK    4  A    between atoms: C_12  and  C_5 
REMARK    5  A    between atoms: C_9  and  C_6 
REMARK    6  A    between atoms: N_8  and  C_16 
ROOT
ATOM      1  N   UNL d   1      52.728  33.574  53.411  0.00  0.00    -0.152 N 
ATOM      2  N   UNL d   1      53.264  32.957  53.559  0.00  0.00    -0.155 NA
ATOM      3  C   UNL d   1      52.056  33.240  53.050  0.00  0.00     0.096 A 
ATOM      4  C   UNL d   1      52.927  32.252  53.293  0.00  0.00     0.104 A 
ATOM      5  C   UNL d   1      52.183  32.431  52.981  0.00  0.00     0.041 A 
ENDROOT
BRANCH   4   6
ATOM      6  C   UNL d   1      53.271  31.504  53.333  0.00  0.00     0.021 A 
ATOM      7  C   UNL d   1      52.850  30.879  53.657  0.00  0.00     0.021 A 
ATOM      8  C   UNL d   1      53.196  30.126  53.697  0.00  0.00     0.093 A 
ATOM      9  C   UNL d   1      53.966  30.005  53.410  0.00  0.00     0.020 A 
ATOM     10  C   UNL d   1      54.384  30.642  53.085  0.00  0.00     0.002 A 
ATOM     11  C   UNL d   1      54.043  31.387  53.045  0.00  0.00     0.002 A 
BRANCH   8  12
ATOM     12  N   UNL d   1      52.769  29.490  54.025  0.00  0.00    -0.162 NA
BRANCH  12  13
ATOM     13  S   UNL d   1      53.117  29.013  54.595  0.00  0.00     0.266 S 
ATOM     14  O   UNL d   1      53.479  28.341  54.928  0.00  0.00    -0.203 OA
ATOM     15  O   UNL d   1      53.168  28.466  53.974  0.00  0.00    -0.203 OA
ATOM     16  C   UNL d   1      53.073  29.546  55.219  0.00  0.00     0.165 C 
ENDBRANCH  12  13
ENDBRANCH   8  12
ENDBRANCH   4   6
BRANCH   1  17
ATOM     17  S   UNL d   1      52.849  34.372  53.592  0.00  0.00     0.287 S 
ATOM     18  O   UNL d   1      53.071  35.133  53.362  0.00  0.00    -0.198 OA
ATOM     19  O   UNL d   1      52.994  34.094  52.827  0.00  0.00    -0.198 OA
BRANCH  17  20
ATOM     20  C   UNL d   1      52.687  34.580  54.367  0.00  0.00     0.118 C 
ATOM     21  C   UNL d   1      53.091  35.215  54.715  0.00  0.00     0.014 C 
ENDBRANCH  17  20
ENDBRANCH   1  17
BRANCH   3  22
ATOM     22  C   UNL d   1      51.391  33.655  52.811  0.00  0.00     0.018 A 
ATOM     23  C   UNL d   1      50.758  33.740  53.333  0.00  0.00     0.002 A 
ATOM     24  C   UNL d   1      50.086  34.156  53.099  0.00  0.00     0.000 A 
ATOM     25  C   UNL d   1      50.047  34.485  52.350  0.00  0.00     0.000 A 
ATOM     26  C   UNL d   1      50.686  34.394  51.835  0.00  0.00     0.000 A 
ATOM     27  C   UNL d   1      49.374  34.902  52.115  0.00  0.00     0.000 C 
ATOM     28  C   UNL d   1      51.350  33.987  52.058  0.00  0.00     0.002 A 
ENDBRANCH   3  22
TORSDOF 6
ENDMDL
MODEL 2
REMARK VINA RESULT:      -8.7      2.152      5.144
REMARK  6 active torsions:
REMARK  status: ('A' for Active; 'I' for Inactive)
REMARK    1  A    between atoms: S_3  and  N_1 
REMARK    2  A    between atoms: C_19  and  S_3 
REMARK    3  A    between atoms: S_4  and  N_8 
REMARK    4  A    between atoms: C_12  and  C_5 
REMARK    5  A    between atoms: C_9  and  C_6 
REMARK    6  A    between atoms: N_8  and  C_16 
ROOT
ATOM      1  N   UNL d   1      52.235  32.772  52.959  0.00  0.00    -0.152 N 
ATOM      2  N   UNL d   1      51.515  32.952  52.587  0.00  0.00    -0.155 NA
ATOM      3  C   UNL d   1      52.460  33.438  53.405  0.00  0.00     0.096 A 
ATOM      4  C   UNL d   1      51.298  33.720  52.800  0.00  0.00     0.104 A 
ATOM      5  C   UNL d   1      51.883  34.015  53.305  0.00  0.00     0.041 A 
ENDROOT
BRANCH   4   6
ATOM      6  C   UNL d   1      50.620  34.119  52.555  0.00  0.00     0.021 A 
ATOM      7  C   UNL d   1      50.113  34.443  53.114  0.00  0.00     0.021 A 
ATOM      8  C   UNL d   1      49.431  34.845  52.868  0.00  0.00     0.093 A 
ATOM      9  C   UNL d   1      49.261  34.919  52.058  0.00  0.00     0.020 A 
ATOM     10  C   UNL d   1      49.777  34.589  51.501  0.00  0.00     0.002 A 
ATOM     11  C   UNL d   1      50.453  34.191  51.743  0.00  0.00     0.002 A 
BRANCH   8  12
ATOM     12  N   UNL d   1      48.916  35.174  53.434  0.00  0.00    -0.162 NA
BRANCH  12  13
ATOM     13  S   UNL d   1      48.523  35.876  53.272  0.00  0.00     0.266 S 
ATOM     14  O   UNL d   1      48.354  36.691  53.288  0.00  0.00    -0.203 OA
ATOM     15  O   UNL d   1      49.116  36.209  53.746  0.00  0.00    -0.203 OA
ATOM     16  C   UNL d   1      47.930  35.557  52.801  0.00  0.00     0.165 C 
ENDBRANCH  12  13
ENDBRANCH   8  12
ENDBRANCH   4   6
BRANCH   1  17
ATOM     17  S   UNL d   1      52.647  32.058  52.892  0.00  0.00     0.287 S 
ATOM     18  O   UNL d   1      53.241  31.604  52.542  0.00  0.00    -0.198 OA
ATOM     19  O   UNL d   1      52.854  32.702  52.416  0.00  0.00    -0.198 OA
BRANCH  17  20
ATOM     20  C   UNL d   1      52.393  31.463  53.392  0.00  0.00     0.118 C 
ATOM     21  C   UNL d   1      52.517  30.669  53.184  0.00  0.00     0.014 C 
ENDBRANCH  17  20
ENDBRANCH   1  17
BRANCH   3  22
ATOM     22  C   UNL d   1      53.139  33.497  53.860  0.00  0.00     0.018 A 
ATOM     23  C   UNL d   1      53.099  33.333  54.668  0.00  0.00     0.002 A 
ATOM     24  C   UNL d   1      53.779  33.390  55.132  0.00  0.00     0.000 A 
ATOM     25  C   UNL d   1      54.491  33.609  54.791  0.00  0.00     0.000 A 
ATOM     26  C   UNL d   1      54.519  33.770  53.982  0.00  0.00     0.000 A 
ATOM     27  C   UNL d   1      55.171  33.666  55.256  0.00  0.00     0.000 C 
ATOM     28  C   UNL d   1      53.856  33.716  53.520  0.00  0.00     0.002 A 
ENDBRANCH   3  22
TORSDOF 6
ENDMDL
MODEL 3
REMARK VINA RESULT:      -8.5      1.872      4.776
REMARK  6 active torsions:
REMARK  status: ('A' for Active; 'I' for Inactive)
REMARK    1  A    between atoms: S_3  and  N_1 
REMARK    2  A    between atoms: C_19  and  S_3 
REMARK    3  A    between atoms: S_4  and  N_8 
REMARK    4  A    between atoms: C_12  and  C_5 
REMARK    5  A    between atoms: C_9  and  C_6 
REMARK    6  A    between atoms: N_8  and  C_16 
ROOT
ATOM      1  N   UNL d   1      53.332  32.775  53.545  0.00  0.00    -0.152 N 
ATOM      2  N   UNL d   1      52.920  33.442  53.271  0.00  0.00    -0.155 NA
ATOM      3  C   UNL d   1      52.857  32.108  53.395  0.00  0.00     0.096 A 
ATOM      4  C   UNL d   1      52.199  33.190  52.957  0.00  0.00     0.104 A 
ATOM      5  C   UNL d   1      52.165  32.367  53.035  0.00  0.00     0.041 A 
ENDROOT
BRANCH   4   6
ATOM      6  C   UNL d   1      51.619  33.672  52.625  0.00  0.00     0.021 A 
ATOM      7  C   UNL d   1      50.925  33.819  53.039  0.00  0.00     0.021 A 
ATOM      8  C   UNL d   1      50.341  34.304  52.705  0.00  0.00     0.093 A 
ATOM      9  C   UNL d   1      50.457  34.640  51.954  0.00  0.00     0.020 A 
ATOM     10  C   UNL d   1      51.160  34.486  51.544  0.00  0.00     0.002 A 
ATOM     11  C   UNL d   1      51.739  34.007  51.872  0.00  0.00     0.002 A 
BRANCH   8  12
ATOM     12  N   UNL d   1      49.637  34.454  53.124  0.00  0.00    -0.162 NA
BRANCH  12  13
ATOM     13  S   UNL d   1      49.194  35.124  52.956  0.00  0.00     0.266 S 
ATOM     14  O   UNL d   1      48.904  35.900  53.036  0.00  0.00    -0.203 OA
ATOM     15  O   UNL d   1      49.587  35.435  53.617  0.00  0.00    -0.203 OA
ATOM     16  C   UNL d   1      48.799  34.828  52.301  0.00  0.00     0.165 C 
ENDBRANCH  12  13
ENDBRANCH   8  12
ENDBRANCH   4   6
BRANCH   1  17
ATOM     17  S   UNL d   1      54.079  32.782  53.900  0.00  0.00     0.287 S 
ATOM     18  O   UNL d   1      54.898  32.705  53.845  0.00  0.00    -0.198 OA
ATOM     19  O   UNL d   1      54.007  32.635  53.089  0.00  0.00    -0.198 OA
BRANCH  17  20
ATOM     20  C   UNL d   1      54.079  32.933  54.704  0.00  0.00     0.118 C 
ATOM     21  C   UNL d   1      54.718  33.337  55.046  0.00  0.00     0.014 C 
ENDBRANCH  17  20
ENDBRANCH   1  17
BRANCH   3  22
ATOM     22  C   UNL d   1      53.054  31.334  53.578  0.00  0.00     0.018 A 
ATOM     23  C   UNL d   1      53.354  30.843  52.987  0.00  0.00     0.002 A 
ATOM     24  C   UNL d   1      53.555  30.063  53.165  0.00  0.00     0.000 A 
ATOM     25  C   UNL d   1      53.457  29.778  53.927  0.00  0.00     0.000 A 
ATOM     26  C   UNL d   1      53.156  30.278  54.511  0.00  0.00     0.000 A 
ATOM     27  C   UNL d   1      53.658  28.996  54.104  0.00  0.00     0.000 C 
ATOM     28  C   UNL d   1      52.957  31.045  54.343  0.00  0.00     0.002 A 
ENDBRANCH   3  22
TORSDOF 6
ENDMDL
MODEL 4
REMARK VINA RESULT:      -8.0      0.806      2.000
REMARK  6 active torsions:
REMARK  status: ('A' for Active; 'I' for Inactive)
REMARK    1  A    between atoms: S_3  and  N_1 
REMARK    2  A    between atoms: C_19  and  S_3 
REMARK    3  A    between atoms: S_4  and  N_8 
REMARK    4  A    between atoms: C_12  and  C_5 
REMARK    5  A    between atoms: C_9  and  C_6 
REMARK    6  A    between atoms: N_8  and  C_16 
ROOT
ATOM      1  N   UNL d   1      52.210  33.180  53.010  0.00  0.00    -0.152 N 
ATOM      2  N   UNL d   1      52.305  32.369  52.857  0.00  0.00    -0.155 NA
ATOM      3  C   UNL d   1      52.813  33.408  53.536  0.00  0.00     0.096 A 
ATOM      4  C   UNL d   1      52.959  32.100  53.283  0.00  0.00     0.104 A 
ATOM      5  C   UNL d   1      53.269  32.743  53.700  0.00  0.00     0.041 A 
ENDROOT
BRANCH   4   6
ATOM      6  C   UNL d   1      53.249  31.329  53.291  0.00  0.00     0.021 A 
ATOM      7  C   UNL d   1      52.845  30.745  53.704  0.00  0.00     0.021 A 
ATOM      8  C   UNL d   1      53.137  29.969  53.713  0.00  0.00     0.093 A 
ATOM      9  C   UNL d   1      53.836  29.783  53.304  0.00  0.00     0.020 A 
ATOM     10  C   UNL d   1      54.237  30.377  52.890  0.00  0.00     0.002 A 
ATOM     11  C   UNL d   1      53.949  31.146  52.881  0.00  0.00     0.002 A 
BRANCH   8  12
ATOM     12  N   UNL d   1      52.729  29.376  54.132  0.00  0.00    -0.162 NA
BRANCH  12  13
ATOM     13  S   UNL d   1      53.119  28.934  54.703  0.00  0.00     0.266 S 
ATOM     14  O   UNL d   1      53.533  28.295  55.038  0.00  0.00    -0.203 OA
ATOM     15  O   UNL d   1      53.200  28.384  54.088  0.00  0.00    -0.203 OA
ATOM     16  C   UNL d   1      53.044  29.471  55.320  0.00  0.00     0.165 C 
ENDBRANCH  12  13
ENDBRANCH   8  12
ENDBRANCH   4   6
BRANCH   1  17
ATOM     17  S   UNL d   1      51.620  33.665  52.693  0.00  0.00     0.287 S 
ATOM     18  O   UNL d   1      51.354  34.173  52.100  0.00  0.00    -0.198 OA
ATOM     19  O   UNL d   1      52.341  33.576  52.297  0.00  0.00    -0.198 OA
BRANCH  17  20
ATOM     20  C   UNL d   1      50.933  33.709  53.133  0.00  0.00     0.118 C 
ATOM     21  C   UNL d   1      50.224  33.940  52.769  0.00  0.00     0.014 C 
ENDBRANCH  17  20
ENDBRANCH   1  17
BRANCH   3  22
ATOM     22  C   UNL d   1      52.924  34.163  53.832  0.00  0.00     0.018 A 
ATOM     23  C   UNL d   1      52.687  34.334  54.604  0.00  0.00     0.002 A 
ATOM     24  C   UNL d   1      52.796  35.093  54.908  0.00  0.00     0.000 A 
ATOM     25  C   UNL d   1      53.138  35.675  54.445  0.00  0.00     0.000 A 
ATOM     26  C   UNL d   1      53.372  35.494  53.674  0.00  0.00     0.000 A 
ATOM     27  C   UNL d   1      53.247  36.436  54.750  0.00  0.00     0.000 C 
ATOM     28  C   UNL d   1      53.268  34.751  53.369  0.00  0.00     0.002 A 
ENDBRANCH   3  22
TORSDOF 6
ENDMDL
MODEL 5
REMARK VINA RESULT:      -7.6      2.458      5.309
REMARK  6 active torsions:
REMARK  status: ('A' for Active; 'I' for Inactive)
REMARK    1  A    between atoms: S_3  and  N_1 
REMARK    2  A    between atoms: C_19  and  S_3 
REMARK    3  A    between atoms: S_4  and  N_8 
REMARK    4  A    between atoms: C_12  and  C_5 
REMARK    5  A    between atoms: C_9  and  C_6 
REMARK    6  A    between atoms: N_8  and  C_16 
ROOT
ATOM      1  N   UNL d   1      51.915  34.521  53.242  0.00  0.00    -0.152 N 
ATOM      2  N   UNL d   1      51.253  34.996  53.082  0.00  0.00    -0.155 NA
ATOM      3  C   UNL d   1      51.682  33.727  53.147  0.00  0.00     0.096 A 
ATOM      4  C   UNL d   1      50.619  34.502  52.890  0.00  0.00     0.104 A 
ATOM      5  C   UNL d   1      50.889  33.721  52.932  0.00  0.00     0.041 A 
ENDROOT
BRANCH   4   6
ATOM      6  C   UNL d   1      49.857  34.744  52.693  0.00  0.00     0.021 A 
ATOM      7  C   UNL d   1      49.475  35.306  53.156  0.00  0.00     0.021 A 
ATOM      8  C   UNL d   1      48.708  35.550  52.958  0.00  0.00     0.093 A 
ATOM      9  C   UNL d   1      48.326  35.227  52.295  0.00  0.00     0.020 A 
ATOM     10  C   UNL d   1      48.718  34.662  51.834  0.00  0.00     0.002 A 
ATOM     11  C   UNL d   1      49.478  34.419  52.028  0.00  0.00     0.002 A 
BRANCH   8  12
ATOM     12  N   UNL d   1      48.319  36.119  53.426  0.00  0.00    -0.162 NA
BRANCH  12  13
ATOM     13  S   UNL d   1      47.500  36.157  53.431  0.00  0.00     0.266 S 
ATOM     14  O   UNL d   1      46.720  36.029  53.693  0.00  0.00    -0.203 OA
ATOM     15  O   UNL d   1      47.576  35.711  54.126  0.00  0.00    -0.203 OA
ATOM     16  C   UNL d   1      47.411  36.597  52.744  0.00  0.00     0.165 C 
ENDBRANCH  12  13
ENDBRANCH   8  12
ENDBRANCH   4   6
BRANCH   1  17
ATOM     17  S   UNL d   1      52.665  34.795  53.456  0.00  0.00     0.287 S 
ATOM     18  O   UNL d   1      53.432  35.017  53.249  0.00  0.00    -0.198 OA
ATOM     19  O   UNL d   1      52.494  34.631  52.663  0.00  0.00    -0.198 OA
BRANCH  17  20
ATOM     20  C   UNL d   1      52.767  34.939  54.255  0.00  0.00     0.118 C 
ATOM     21  C   UNL d   1      53.249  35.567  54.502  0.00  0.00     0.014 C 
ENDBRANCH  17  20
ENDBRANCH   1  17
BRANCH   3  22
ATOM     22  C   UNL d   1      52.167  33.076  53.252  0.00  0.00     0.018 A 
ATOM     23  C   UNL d   1      52.483  32.697  52.591  0.00  0.00     0.002 A 
ATOM     24  C   UNL d   1      52.972  32.039  52.689  0.00  0.00     0.000 A 
ATOM     25  C   UNL d   1      53.143  31.765  53.442  0.00  0.00     0.000 A 
ATOM     26  C   UNL d   1      52.821  32.151  54.096  0.00  0.00     0.000 A 
ATOM     27  C   UNL d   1      53.633  31.107  53.540  0.00  0.00     0.000 C 
ATOM     28  C   UNL d   1      52.340  32.797  54.007  0.00  0.00     0.002 A 
ENDBRANCH   3  22
TORSDOF 6
ENDMDL
MODEL 6
REMARK VINA RESULT:      -6.9      1.795      2.069
REMARK  6 active torsions:
REMARK  status: ('A' for Active; 'I' for Inactive)
REMARK    1  A    between atoms: S_3  and  N_1 
REMARK    2  A    between atoms: C_19  and  S_3 
REMARK    3  A    between atoms: S_4  and  N_8 
REMARK    4  A    between atoms: C_12  and  C_5 
REMARK    5  A    between atoms: C_9  and  C_6 
REMARK    6  A    between atoms: N_8  and  C_16 
ROOT
ATOM      1  N   UNL d   1      54.252  32.878  54.084  0.00  0.00    -0.152 N 
ATOM      2  N   UNL d   1      54.260  32.067  53.907  0.00  0.00    -0.155 NA
ATOM      3  C   UNL d   1      53.473  33.150  53.975  0.00  0.00     0.096 A 
ATOM      4  C   UNL d   1      53.496  31.841  53.691  0.00  0.00     0.104 A 
ATOM      5  C   UNL d   1      53.014  32.512  53.735  0.00  0.00     0.041 A 
ENDROOT
BRANCH   4   6
ATOM      6  C   UNL d   1      53.257  31.084  53.472  0.00  0.00     0.021 A 
ATOM      7  C   UNL d   1      53.078  30.529  54.051  0.00  0.00     0.021 A 
ATOM      8  C   UNL d   1      52.837  29.767  53.832  0.00  0.00     0.093 A 
ATOM      9  C   UNL d   1      52.777  29.564  53.028  0.00  0.00     0.020 A 
ATOM     10  C   UNL d   1      52.959  30.129  52.451  0.00  0.00     0.002 A 
ATOM     11  C   UNL d   1      53.197  30.884  52.667  0.00  0.00     0.002 A 
BRANCH   8  12
ATOM     12  N   UNL d   1      52.655  29.204  54.418  0.00  0.00    -0.162 NA
BRANCH  12  13
ATOM     13  S   UNL d   1      53.254  28.755  54.756  0.00  0.00     0.266 S 
ATOM     14  O   UNL d   1      53.824  28.153  54.830  0.00  0.00    -0.203 OA
ATOM     15  O   UNL d   1      53.200  28.321  54.052  0.00  0.00    -0.203 OA
ATOM     16  C   UNL d   1      53.316  29.178  55.458  0.00  0.00     0.165 C 
ENDBRANCH  12  13
ENDBRANCH   8  12
ENDBRANCH   4   6
BRANCH   1  17
ATOM     17  S   UNL d   1      54.904  33.326  54.324  0.00  0.00     0.287 S 
ATOM     18  O   UNL d   1      55.579  33.765  54.139  0.00  0.00    -0.198 OA
ATOM     19  O   UNL d   1      54.768  33.190  53.519  0.00  0.00    -0.198 OA
BRANCH  17  20
ATOM     20  C   UNL d   1      54.981  33.423  55.133  0.00  0.00     0.118 C 
ATOM     21  C   UNL d   1      55.695  33.703  55.448  0.00  0.00     0.014 C 
ENDBRANCH  17  20
ENDBRANCH   1  17
BRANCH   3  22
ATOM     22  C   UNL d   1      53.219  33.921  54.091  0.00  0.00     0.018 A 
ATOM     23  C   UNL d   1      53.016  34.170  54.850  0.00  0.00     0.002 A 
ATOM     24  C   UNL d   1      52.760  34.945  54.973  0.00  0.00     0.000 A 
ATOM     25  C   UNL d   1      52.708  35.464  54.343  0.00  0.00     0.000 A 
ATOM     26  C   UNL d   1      52.914  35.205  53.586  0.00  0.00     0.000 A 
ATOM     27  C   UNL d   1      52.452  36.240  54.466  0.00  0.00     0.000 C 
ATOM     28  C   UNL d   1      53.166  34.445  53.458  0.00  0.00     0.002 A 
ENDBRANCH   3  22
TORSDOF 6
ENDMDL
