MODEL 1
REMARK VINA RESULT:      -7.6      0.000      0.000
REMARK  2 active torsions:
REMARK  status: ('A' for Active; 'I' for Inactive)
REMARK       I    between atoms: C_9  and  N_1 
REMARK    1  A    between atoms: C_5  and  C_3 
REMARK    2  A    between atoms: C_8  and  C_4 
ROOT
ATOM      1  N   UNL d   1     -48.276  12.478  22.938  0.00  0.00    -0.193 N 
ATOM      2  N   UNL d   1     -49.067  12.547  22.787  0.00  0.00    -0.162 NA
ATOM      3  C   UNL d   1     -47.897  13.142  22.624  0.00  0.00     0.110 A 
ATOM      4  C   UNL d   1     -49.198  13.253  22.376  0.00  0.00     0.109 A 
ATOM      5  C   UNL d   1     -48.464  13.604  22.286  0.00  0.00     0.043 A 
ATOM      6  C   UNL d   1     -47.799  11.798  23.384  0.00  0.00     0.281 C 
ATOM      7  O   UNL d   1     -47.004  11.888  23.447  0.00  0.00    -0.265 OA
ATOM      8  C   UNL d   1     -48.177  11.134  23.698  0.00  0.00     0.068 C 
ENDROOT
BRANCH   3   9
ATOM      9  C   UNL d   1     -47.102  13.281  22.661  0.00  0.00     0.118 A 
ATOM     10  O   UNL d   1     -46.559  13.071  22.076  0.00  0.00    -0.306 OA
ATOM     11  C   UNL d   1     -45.806  13.316  22.338  0.00  0.00     0.100 A 
ATOM     12  C   UNL d   1     -45.096  13.208  21.908  0.00  0.00     0.027 C 
ATOM     13  C   UNL d   1     -45.875  13.676  23.077  0.00  0.00     0.027 A 
ATOM     14  C   UNL d   1     -46.674  13.652  23.272  0.00  0.00     0.028 A 
ENDBRANCH   3   9
BRANCH   4  15
ATOM     15  C   UNL d   1     -49.925  13.542  22.112  0.00  0.00     0.049 A 
ATOM     16  S   UNL d   1     -50.344  14.138  22.452  0.00  0.00    -0.085 SA
ATOM     17  C   UNL d   1     -51.019  14.249  22.025  0.00  0.00     0.035 A 
ATOM     18  C   UNL d   1     -51.011  13.703  21.405  0.00  0.00     0.007 A 
ATOM     19  C   UNL d   1     -50.331  13.268  21.464  0.00  0.00     0.009 A 
ENDBRANCH   4  15
TORSDOF 2
ENDMDL
MODEL 2
REMARK VINA RESULT:      -7.5      1.907      3.754
REMARK  2 active torsions:
REMARK  status: ('A' for Active; 'I' for Inactive)
REMARK       I    between atoms: C_9  and  N_1 
REMARK    1  A    between atoms: C_5  and  C_3 
REMARK    2  A    between atoms: C_8  and  C_4 
ROOT
ATOM      1  N   UNL d   1     -49.144  13.023  23.247  0.00  0.00    -0.193 N 
ATOM      2  N   UNL d   1     -48.403  12.700  23.228  0.00  0.00    -0.162 NA
ATOM      3  C   UNL d   1     -49.083  13.816  23.023  0.00  0.00     0.110 A 
ATOM      4  C   UNL d   1     -47.866  13.283  22.992  0.00  0.00     0.109 A 
ATOM      5  C   UNL d   1     -48.305  13.963  22.871  0.00  0.00     0.043 A 
ATOM      6  C   UNL d   1     -49.972  12.632  23.474  0.00  0.00     0.281 C 
ATOM      7  O   UNL d   1     -50.621  13.102  23.440  0.00  0.00    -0.265 OA
ATOM      8  C   UNL d   1     -50.033  11.840  23.698  0.00  0.00     0.068 C 
ENDROOT
BRANCH   3   9
ATOM      9  C   UNL d   1     -49.703  14.331  22.973  0.00  0.00     0.118 A 
ATOM     10  O   UNL d   1     -49.907  14.883  23.552  0.00  0.00    -0.306 OA
ATOM     11  C   UNL d   1     -50.576  15.296  23.277  0.00  0.00     0.100 A 
ATOM     12  C   UNL d   1     -50.963  15.907  23.697  0.00  0.00     0.027 C 
ATOM     13  C   UNL d   1     -50.791  15.008  22.534  0.00  0.00     0.027 A 
ATOM     14  C   UNL d   1     -50.251  14.415  22.351  0.00  0.00     0.028 A 
ENDBRANCH   3   9
BRANCH   4  15
ATOM     15  C   UNL d   1     -47.050  13.194  22.898  0.00  0.00     0.049 A 
ATOM     16  S   UNL d   1     -46.606  12.595  23.199  0.00  0.00    -0.085 SA
ATOM     17  C   UNL d   1     -45.840  12.713  22.981  0.00  0.00     0.035 A 
ATOM     18  C   UNL d   1     -45.815  13.406  22.533  0.00  0.00     0.007 A 
ATOM     19  C   UNL d   1     -46.567  13.699  22.485  0.00  0.00     0.009 A 
ENDBRANCH   4  15
TORSDOF 2
ENDMDL
MODEL 3
REMARK VINA RESULT:      -7.1      1.904      3.954
REMARK  2 active torsions:
REMARK  status: ('A' for Active; 'I' for Inactive)
REMARK       I    between atoms: C_9  and  N_1 
REMARK    1  A    between atoms: C_5  and  C_3 
REMARK    2  A    between atoms: C_8  and  C_4 
ROOT
ATOM      1  N   UNL d   1     -48.576  14.075  22.812  0.00  0.00    -0.193 N 
ATOM      2  N   UNL d   1     -47.775  14.175  22.768  0.00  0.00    -0.162 NA
ATOM      3  C   UNL d   1     -48.736  13.266  22.759  0.00  0.00     0.110 A 
ATOM      4  C   UNL d   1     -47.420  13.433  22.687  0.00  0.00     0.109 A 
ATOM      5  C   UNL d   1     -48.030  12.887  22.683  0.00  0.00     0.043 A 
ATOM      6  C   UNL d   1     -49.264  14.714  22.907  0.00  0.00     0.281 C 
ATOM      7  O   UNL d   1     -50.017  14.440  22.934  0.00  0.00    -0.265 OA
ATOM      8  C   UNL d   1     -49.104  15.522  22.960  0.00  0.00     0.068 C 
ENDROOT
BRANCH   3   9
ATOM      9  C   UNL d   1     -49.475  12.939  22.781  0.00  0.00     0.118 A 
ATOM     10  O   UNL d   1     -49.782  12.512  23.417  0.00  0.00    -0.306 OA
ATOM     11  C   UNL d   1     -50.555  12.278  23.207  0.00  0.00     0.100 A 
ATOM     12  C   UNL d   1     -51.064  11.832  23.698  0.00  0.00     0.027 C 
ATOM     13  C   UNL d   1     -50.730  12.554  22.450  0.00  0.00     0.027 A 
ATOM     14  C   UNL d   1     -50.062  12.960  22.191  0.00  0.00     0.028 A 
ENDBRANCH   3   9
BRANCH   4  15
ATOM     15  C   UNL d   1     -46.611  13.277  22.622  0.00  0.00     0.049 A 
ATOM     16  S   UNL d   1     -46.208  12.712  23.028  0.00  0.00    -0.085 SA
ATOM     17  C   UNL d   1     -45.435  12.743  22.805  0.00  0.00     0.035 A 
ATOM     18  C   UNL d   1     -45.364  13.346  22.245  0.00  0.00     0.007 A 
ATOM     19  C   UNL d   1     -46.095  13.673  22.136  0.00  0.00     0.009 A 
ENDBRANCH   4  15
TORSDOF 2
ENDMDL
MODEL 4
REMARK VINA RESULT:      -5.9      8.399      9.859
REMARK  2 active torsions:
REMARK  status: ('A' for Active; 'I' for Inactive)
REMARK       I    between atoms: C_9  and  N_1 
REMARK    1  A    between atoms: C_5  and  C_3 
REMARK    2  A    between atoms: C_8  and  C_4 
ROOT
ATOM      1  N   UNL d   1     -40.615  15.430  17.722  0.00  0.00    -0.193 N 
ATOM      2  N   UNL d   1     -40.980  15.517  18.439  0.00  0.00    -0.162 NA
ATOM      3  C   UNL d   1     -39.859  15.127  17.856  0.00  0.00     0.110 A 
ATOM      4  C   UNL d   1     -40.460  15.270  19.032  0.00  0.00     0.109 A 
ATOM      5  C   UNL d   1     -39.774  15.034  18.651  0.00  0.00     0.043 A 
ATOM      6  C   UNL d   1     -40.930  15.619  16.853  0.00  0.00     0.281 C 
ATOM      7  O   UNL d   1     -40.432  15.472  16.243  0.00  0.00    -0.265 OA
ATOM      8  C   UNL d   1     -41.687  15.922  16.720  0.00  0.00     0.068 C 
ENDROOT
BRANCH   3   9
ATOM      9  C   UNL d   1     -39.319  14.962  17.277  0.00  0.00     0.118 A 
ATOM     10  O   UNL d   1     -39.185  14.214  16.956  0.00  0.00    -0.306 OA
ATOM     11  C   UNL d   1     -38.587  14.294  16.382  0.00  0.00     0.100 A 
ATOM     12  C   UNL d   1     -38.283  13.665  15.921  0.00  0.00     0.027 C 
ATOM     13  C   UNL d   1     -38.347  15.083  16.342  0.00  0.00     0.027 A 
ATOM     14  C   UNL d   1     -38.800  15.490  16.895  0.00  0.00     0.028 A 
ENDBRANCH   3   9
BRANCH   4  15
ATOM     15  C   UNL d   1     -40.605  15.264  19.845  0.00  0.00     0.049 A 
ATOM     16  S   UNL d   1     -40.626  15.911  20.322  0.00  0.00    -0.085 SA
ATOM     17  C   UNL d   1     -40.784  15.667  21.074  0.00  0.00     0.035 A 
ATOM     18  C   UNL d   1     -40.862  14.845  21.054  0.00  0.00     0.007 A 
ATOM     19  C   UNL d   1     -40.750  14.601  20.291  0.00  0.00     0.009 A 
ENDBRANCH   4  15
TORSDOF 2
ENDMDL
MODEL 5
REMARK VINA RESULT:      -5.8      8.741      9.708
REMARK  2 active torsions:
REMARK  status: ('A' for Active; 'I' for Inactive)
REMARK       I    between atoms: C_9  and  N_1 
REMARK    1  A    between atoms: C_5  and  C_3 
REMARK    2  A    between atoms: C_8  and  C_4 
ROOT
ATOM      1  N   UNL d   1     -39.751  14.537  18.427  0.00  0.00    -0.193 N 
ATOM      2  N   UNL d   1     -39.569  14.491  19.214  0.00  0.00    -0.162 NA
ATOM      3  C   UNL d   1     -40.203  15.218  18.309  0.00  0.00     0.110 A 
ATOM      4  C   UNL d   1     -39.904  15.140  19.602  0.00  0.00     0.109 A 
ATOM      5  C   UNL d   1     -40.290  15.576  19.026  0.00  0.00     0.043 A 
ATOM      6  C   UNL d   1     -39.524  13.960  17.717  0.00  0.00     0.281 C 
ATOM      7  O   UNL d   1     -39.790  14.157  16.986  0.00  0.00    -0.265 OA
ATOM      8  C   UNL d   1     -39.072  13.280  17.835  0.00  0.00     0.068 C 
ENDROOT
BRANCH   3   9
ATOM      9  C   UNL d   1     -40.495  15.461  17.596  0.00  0.00     0.118 A 
ATOM     10  O   UNL d   1     -41.295  15.482  17.395  0.00  0.00    -0.306 OA
ATOM     11  C   UNL d   1     -41.347  15.766  16.613  0.00  0.00     0.100 A 
ATOM     12  C   UNL d   1     -42.063  15.873  16.194  0.00  0.00     0.027 C 
ATOM     13  C   UNL d   1     -40.589  15.922  16.326  0.00  0.00     0.027 A 
ATOM     14  C   UNL d   1     -40.068  15.733  16.934  0.00  0.00     0.028 A 
ENDBRANCH   3   9
BRANCH   4  15
ATOM     15  C   UNL d   1     -39.856  15.312  20.408  0.00  0.00     0.049 A 
ATOM     16  S   UNL d   1     -39.243  15.682  20.773  0.00  0.00    -0.085 SA
ATOM     17  C   UNL d   1     -39.414  15.742  21.558  0.00  0.00     0.035 A 
ATOM     18  C   UNL d   1     -40.155  15.397  21.676  0.00  0.00     0.007 A 
ATOM     19  C   UNL d   1     -40.424  15.132  20.960  0.00  0.00     0.009 A 
ENDBRANCH   4  15
TORSDOF 2
ENDMDL
MODEL 6
REMARK VINA RESULT:      -5.3      8.213      9.413
REMARK  2 active torsions:
REMARK  status: ('A' for Active; 'I' for Inactive)
REMARK       I    between atoms: C_9  and  N_1 
REMARK    1  A    between atoms: C_5  and  C_3 
REMARK    2  A    between atoms: C_8  and  C_4 
ROOT
ATOM      1  N   UNL d   1     -40.279  15.441  19.991  0.00  0.00    -0.193 N 
ATOM      2  N   UNL d   1     -40.641  15.631  19.293  0.00  0.00    -0.162 NA
ATOM      3  C   UNL d   1     -39.554  15.087  19.813  0.00  0.00     0.110 A 
ATOM      4  C   UNL d   1     -40.151  15.401  18.669  0.00  0.00     0.109 A 
ATOM      5  C   UNL d   1     -39.486  15.067  19.011  0.00  0.00     0.043 A 
ATOM      6  C   UNL d   1     -40.567  15.568  20.880  0.00  0.00     0.281 C 
ATOM      7  O   UNL d   1     -40.078  15.317  21.463  0.00  0.00    -0.265 OA
ATOM      8  C   UNL d   1     -41.292  15.922  21.057  0.00  0.00     0.068 C 
ENDROOT
BRANCH   3   9
ATOM      9  C   UNL d   1     -39.025  14.818  20.362  0.00  0.00     0.118 A 
ATOM     10  O   UNL d   1     -38.952  14.031  20.600  0.00  0.00    -0.306 OA
ATOM     11  C   UNL d   1     -38.345  14.000  21.170  0.00  0.00     0.100 A 
ATOM     12  C   UNL d   1     -38.092  13.302  21.556  0.00  0.00     0.027 C 
ATOM     13  C   UNL d   1     -38.040  14.757  21.289  0.00  0.00     0.027 A 
ATOM     14  C   UNL d   1     -38.461  15.257  20.789  0.00  0.00     0.028 A 
ENDBRANCH   3   9
BRANCH   4  15
ATOM     15  C   UNL d   1     -40.305  15.490  17.862  0.00  0.00     0.049 A 
ATOM     16  S   UNL d   1     -39.865  15.922  17.346  0.00  0.00    -0.085 SA
ATOM     17  C   UNL d   1     -40.202  15.865  16.616  0.00  0.00     0.035 A 
ATOM     18  C   UNL d   1     -40.868  15.382  16.690  0.00  0.00     0.007 A 
ATOM     19  C   UNL d   1     -40.927  15.153  17.463  0.00  0.00     0.009 A 
ENDBRANCH   4  15
TORSDOF 2
ENDMDL
MODEL 7
REMARK VINA RESULT:      -5.1      9.260      9.917
REMARK  2 active torsions:
REMARK  status: ('A' for Active; 'I' for Inactive)
REMARK       I    between atoms: C_9  and  N_1 
REMARK    1  A    between atoms: C_5  and  C_3 
REMARK    2  A    between atoms: C_8  and  C_4 
ROOT
ATOM      1  N   UNL d   1     -38.849  13.856  18.561  0.00  0.00    -0.193 N 
ATOM      2  N   UNL d   1     -39.228  14.093  17.887  0.00  0.00    -0.162 NA
ATOM      3  C   UNL d   1     -39.102  14.342  19.179  0.00  0.00     0.110 A 
ATOM      4  C   UNL d   1     -39.724  14.728  18.071  0.00  0.00     0.109 A 
ATOM      5  C   UNL d   1     -39.631  14.866  18.872  0.00  0.00     0.043 A 
ATOM      6  C   UNL d   1     -38.222  13.165  18.695  0.00  0.00     0.281 C 
ATOM      7  O   UNL d   1     -37.940  13.064  19.439  0.00  0.00    -0.265 OA
ATOM      8  C   UNL d   1     -37.969  12.680  18.076  0.00  0.00     0.068 C 
ENDROOT
BRANCH   3   9
ATOM      9  C   UNL d   1     -38.850  14.283  19.945  0.00  0.00     0.118 A 
ATOM     10  O   UNL d   1     -39.268  13.910  20.551  0.00  0.00    -0.306 OA
ATOM     11  C   UNL d   1     -38.811  13.978  21.245  0.00  0.00     0.100 A 
ATOM     12  C   UNL d   1     -39.034  13.672  21.992  0.00  0.00     0.027 C 
ATOM     13  C   UNL d   1     -38.115  14.388  21.077  0.00  0.00     0.027 A 
ATOM     14  C   UNL d   1     -38.144  14.574  20.276  0.00  0.00     0.028 A 
ENDBRANCH   3   9
BRANCH   4  15
ATOM     15  C   UNL d   1     -40.213  15.140  17.548  0.00  0.00     0.049 A 
ATOM     16  S   UNL d   1     -39.965  15.619  16.951  0.00  0.00    -0.085 SA
ATOM     17  C   UNL d   1     -40.614  15.912  16.575  0.00  0.00     0.035 A 
ATOM     18  C   UNL d   1     -41.279  15.602  16.954  0.00  0.00     0.007 A 
ATOM     19  C   UNL d   1     -41.025  15.125  17.555  0.00  0.00     0.009 A 
ENDBRANCH   4  15
TORSDOF 2
ENDMDL
MODEL 8
REMARK VINA RESULT:      -4.9      7.912     10.018
REMARK  2 active torsions:
REMARK  status: ('A' for Active; 'I' for Inactive)
REMARK       I    between atoms: C_9  and  N_1 
REMARK    1  A    between atoms: C_5  and  C_3 
REMARK    2  A    between atoms: C_8  and  C_4 
ROOT
ATOM      1  N   UNL d   1     -39.000  15.359  19.425  0.00  0.00    -0.193 N 
ATOM      2  N   UNL d   1     -38.601  15.317  18.723  0.00  0.00    -0.162 NA
ATOM      3  C   UNL d   1     -39.770  15.088  19.297  0.00  0.00     0.110 A 
ATOM      4  C   UNL d   1     -39.111  15.020  18.145  0.00  0.00     0.109 A 
ATOM      5  C   UNL d   1     -39.827  14.886  18.519  0.00  0.00     0.043 A 
ATOM      6  C   UNL d   1     -38.710  15.651  20.274  0.00  0.00     0.281 C 
ATOM      7  O   UNL d   1     -39.243  15.626  20.872  0.00  0.00    -0.265 OA
ATOM      8  C   UNL d   1     -37.940  15.922  20.402  0.00  0.00     0.068 C 
ENDROOT
BRANCH   3   9
ATOM      9  C   UNL d   1     -40.344  15.043  19.864  0.00  0.00     0.118 A 
ATOM     10  O   UNL d   1     -40.595  14.346  20.227  0.00  0.00    -0.306 OA
ATOM     11  C   UNL d   1     -41.191  14.551  20.772  0.00  0.00     0.100 A 
ATOM     12  C   UNL d   1     -41.596  14.005  21.260  0.00  0.00     0.027 C 
ATOM     13  C   UNL d   1     -41.313  15.367  20.752  0.00  0.00     0.027 A 
ATOM     14  C   UNL d   1     -40.790  15.665  20.192  0.00  0.00     0.028 A 
ENDBRANCH   3   9
BRANCH   4  15
ATOM     15  C   UNL d   1     -38.932  14.888  17.350  0.00  0.00     0.049 A 
ATOM     16  S   UNL d   1     -38.846  15.456  16.787  0.00  0.00    -0.085 SA
ATOM     17  C   UNL d   1     -38.673  15.096  16.087  0.00  0.00     0.035 A 
ATOM     18  C   UNL d   1     -38.654  14.282  16.228  0.00  0.00     0.007 A 
ATOM     19  C   UNL d   1     -38.815  14.159  17.011  0.00  0.00     0.009 A 
ENDBRANCH   4  15
TORSDOF 2
ENDMDL
