MODEL 1
REMARK VINA RESULT:      42.3      0.000      0.000
REMARK  3 active torsions:
REMARK  status: ('A' for Active; 'I' for Inactive)
REMARK    1  A    between atoms: C_7  and  C_3 
REMARK       I    between atoms: N_10  and  C_7 
REMARK    2  A    between atoms: C_18  and  C_9 
REMARK    3  A    between atoms: C_12  and  N_10 
ROOT
ATOM      1  C   UNL d   1     -54.914-101.685 -38.691  0.00  0.00     0.059 A 
ATOM      2  C   UNL d   1     -54.843-102.496 -38.551  0.00  0.00     0.013 A 
ATOM      3  C   UNL d   1     -54.806-101.918 -40.092  0.00  0.00     0.088 A 
ATOM      4  S   UNL d   1     -54.896-101.397 -39.460  0.00  0.00    -0.075 SA
ATOM      5  S   UNL d   1     -55.003-101.163 -38.059  0.00  0.00    -0.080 SA
ATOM      6  C   UNL d   1     -54.735-102.729 -39.952  0.00  0.00     0.012 A 
ATOM      7  C   UNL d   1     -54.950-102.263 -37.155  0.00  0.00     0.007 A 
ATOM      8  C   UNL d   1     -55.021-101.452 -37.296  0.00  0.00     0.030 A 
ENDROOT
BRANCH   3   9
ATOM      9  C   UNL d   1     -54.788-101.630 -40.860  0.00  0.00     0.285 C 
ATOM     10  N   UNL d   1     -54.810-102.155 -41.500  0.00  0.00    -0.208 NA
ATOM     11  O   UNL d   1     -54.747-100.818 -40.997  0.00  0.00    -0.265 OA
BRANCH  10  12
ATOM     12  C   UNL d   1     -54.792-101.868 -42.274  0.00  0.00     0.085 A 
ATOM     13  C   UNL d   1     -54.822-102.390 -42.901  0.00  0.00     0.019 A 
ATOM     14  C   UNL d   1     -54.804-102.102 -43.668  0.00  0.00     0.002 A 
ATOM     15  C   UNL d   1     -54.755-101.281 -43.806  0.00  0.00     0.000 A 
ATOM     16  C   UNL d   1     -54.725-100.764 -43.165  0.00  0.00     0.002 A 
ATOM     17  C   UNL d   1     -54.737-100.988 -44.580  0.00  0.00     0.000 C 
ATOM     18  C   UNL d   1     -54.744-101.054 -42.401  0.00  0.00     0.019 A 
ENDBRANCH  10  12
ENDBRANCH   3   9
BRANCH   8  19
ATOM     19  C   UNL d   1     -55.110-100.935 -36.658  0.00  0.00     0.006 C 
ATOM     20  C   UNL d   1     -54.790-101.120 -35.926  0.00  0.00     0.001 C 
ENDBRANCH   8  19
TORSDOF 3
ENDMDL
MODEL 2
REMARK VINA RESULT:      42.4      1.329      2.156
REMARK  3 active torsions:
REMARK  status: ('A' for Active; 'I' for Inactive)
REMARK    1  A    between atoms: C_7  and  C_3 
REMARK       I    between atoms: N_10  and  C_7 
REMARK    2  A    between atoms: C_18  and  C_9 
REMARK    3  A    between atoms: C_12  and  N_10 
ROOT
ATOM      1  C   UNL d   1     -54.876-101.978 -40.717  0.00  0.00     0.059 A 
ATOM      2  C   UNL d   1     -54.802-102.800 -40.746  0.00  0.00     0.013 A 
ATOM      3  C   UNL d   1     -54.803-101.920 -42.138  0.00  0.00     0.088 A 
ATOM      4  S   UNL d   1     -54.876-101.539 -41.411  0.00  0.00    -0.075 SA
ATOM      5  S   UNL d   1     -54.949-101.597 -39.990  0.00  0.00    -0.080 SA
ATOM      6  C   UNL d   1     -54.729-102.743 -42.167  0.00  0.00     0.012 A 
ATOM      7  C   UNL d   1     -54.874-102.858 -39.330  0.00  0.00     0.007 A 
ATOM      8  C   UNL d   1     -54.948-102.035 -39.301  0.00  0.00     0.030 A 
ENDROOT
BRANCH   3   9
ATOM      9  C   UNL d   1     -54.804-101.482 -42.832  0.00  0.00     0.285 C 
ATOM     10  N   UNL d   1     -54.867-100.657 -42.800  0.00  0.00    -0.208 NA
ATOM     11  O   UNL d   1     -54.741-101.861 -43.562  0.00  0.00    -0.265 OA
BRANCH  10  12
ATOM     12  C   UNL d   1     -54.868-100.214 -43.496  0.00  0.00     0.085 A 
ATOM     13  C   UNL d   1     -54.901-100.594 -44.218  0.00  0.00     0.019 A 
ATOM     14  C   UNL d   1     -54.901-100.151 -44.908  0.00  0.00     0.002 A 
ATOM     15  C   UNL d   1     -54.869 -99.318 -44.872  0.00  0.00     0.000 A 
ATOM     16  C   UNL d   1     -54.836 -98.947 -44.137  0.00  0.00     0.002 A 
ATOM     17  C   UNL d   1     -54.869 -98.870 -45.567  0.00  0.00     0.000 C 
ATOM     18  C   UNL d   1     -54.836 -99.391 -43.451  0.00  0.00     0.019 A 
ENDBRANCH  10  12
ENDBRANCH   3   9
BRANCH   8  19
ATOM     19  C   UNL d   1     -55.021-101.659 -38.569  0.00  0.00     0.006 C 
ATOM     20  C   UNL d   1     -54.883-102.074 -37.875  0.00  0.00     0.001 C 
ENDBRANCH   8  19
TORSDOF 3
ENDMDL
MODEL 3
REMARK VINA RESULT:      45.2      1.428      5.094
REMARK  3 active torsions:
REMARK  status: ('A' for Active; 'I' for Inactive)
REMARK    1  A    between atoms: C_7  and  C_3 
REMARK       I    between atoms: N_10  and  C_7 
REMARK    2  A    between atoms: C_18  and  C_9 
REMARK    3  A    between atoms: C_12  and  N_10 
ROOT
ATOM      1  C   UNL d   1     -55.184-101.172 -42.938  0.00  0.00     0.059 A 
ATOM      2  C   UNL d   1     -54.838-101.750 -43.416  0.00  0.00     0.013 A 
ATOM      3  C   UNL d   1     -55.071-102.035 -41.811  0.00  0.00     0.088 A 
ATOM      4  S   UNL d   1     -55.300-101.314 -42.138  0.00  0.00    -0.075 SA
ATOM      5  S   UNL d   1     -55.414-100.451 -43.265  0.00  0.00    -0.080 SA
ATOM      6  C   UNL d   1     -54.724-102.613 -42.289  0.00  0.00     0.012 A 
ATOM      7  C   UNL d   1     -54.951-100.891 -44.539  0.00  0.00     0.007 A 
ATOM      8  C   UNL d   1     -55.297-100.312 -44.062  0.00  0.00     0.030 A 
ENDROOT
BRANCH   3   9
ATOM      9  C   UNL d   1     -55.187-102.177 -41.011  0.00  0.00     0.285 C 
ATOM     10  N   UNL d   1     -54.711-101.797 -40.450  0.00  0.00    -0.208 NA
ATOM     11  O   UNL d   1     -55.777-102.698 -40.764  0.00  0.00    -0.265 OA
BRANCH  10  12
ATOM     12  C   UNL d   1     -54.826-101.938 -39.645  0.00  0.00     0.085 A 
ATOM     13  C   UNL d   1     -54.743-101.326 -39.111  0.00  0.00     0.019 A 
ATOM     14  C   UNL d   1     -54.858-101.469 -38.311  0.00  0.00     0.002 A 
ATOM     15  C   UNL d   1     -55.058-102.234 -38.047  0.00  0.00     0.000 A 
ATOM     16  C   UNL d   1     -55.139-102.843 -38.596  0.00  0.00     0.002 A 
ATOM     17  C   UNL d   1     -55.174-102.380 -37.241  0.00  0.00     0.000 C 
ATOM     18  C   UNL d   1     -55.024-102.698 -39.392  0.00  0.00     0.019 A 
ENDBRANCH  10  12
ENDBRANCH   3   9
BRANCH   8  19
ATOM     19  C   UNL d   1     -55.525 -99.592 -44.395  0.00  0.00     0.006 C 
ATOM     20  C   UNL d   1     -56.276 -99.501 -44.712  0.00  0.00     0.001 C 
ENDBRANCH   8  19
TORSDOF 3
ENDMDL
