MODEL 1
REMARK VINA RESULT:      10.8      0.000      0.000
REMARK  6 active torsions:
REMARK  status: ('A' for Active; 'I' for Inactive)
REMARK    1  A    between atoms: C_2  and  S_1 
REMARK    2  A    between atoms: N_5  and  S_1 
REMARK    3  A    between atoms: O_14  and  C_4 
REMARK    4  A    between atoms: C_11  and  N_5 
REMARK    5  A    between atoms: C_15  and  C_11 
REMARK    6  A    between atoms: C_18  and  O_14 
ROOT
ATOM      1  C   UNL d   1      46.423 -18.297  42.929  0.00  0.00     0.129 A 
ATOM      2  C   UNL d   1      46.369 -18.188  42.115  0.00  0.00     0.026 A 
ATOM      3  C   UNL d   1      46.551 -19.050  43.235  0.00  0.00     0.112 A 
ATOM      4  C   UNL d   1      46.443 -18.833  41.606  0.00  0.00     0.059 A 
ATOM      5  C   UNL d   1      46.625 -19.696  42.726  0.00  0.00     0.026 A 
ATOM      6  C   UNL d   1      46.571 -19.587  41.911  0.00  0.00     0.013 A 
ATOM      7 CL   UNL d   1      46.389 -18.725  40.791  0.00  0.00    -0.082 Cl
ATOM      8  C   UNL d   1      46.646 -20.232  41.403  0.00  0.00     0.001 C 
ENDROOT
BRANCH   1   9
ATOM      9  S   UNL d   1      46.348 -17.652  43.438  0.00  0.00     0.287 S 
ATOM     10  O   UNL d   1      46.479 -18.147  44.085  0.00  0.00    -0.198 OA
ATOM     11  O   UNL d   1      46.217 -17.157  42.791  0.00  0.00    -0.198 OA
BRANCH   9  12
ATOM     12  N   UNL d   1      46.274 -17.007  43.946  0.00  0.00    -0.155 NA
BRANCH  12  13
ATOM     13  C   UNL d   1      45.570 -16.579  43.971  0.00  0.00     0.137 C 
BRANCH  13  14
ATOM     14  C   UNL d   1      45.556 -15.825  44.306  0.00  0.00     0.120 A 
ATOM     15  O   UNL d   1      46.171 -15.472  44.717  0.00  0.00    -0.304 OA
ATOM     16  C   UNL d   1      45.920 -14.725  44.953  0.00  0.00     0.123 A 
ATOM     17  C   UNL d   1      45.146 -14.616  44.687  0.00  0.00     0.029 A 
ATOM     18  C   UNL d   1      44.926 -15.304  44.286  0.00  0.00     0.028 A 
ENDBRANCH  13  14
ENDBRANCH  12  13
ENDBRANCH   9  12
ENDBRANCH   1   9
BRANCH   3  19
ATOM     19  O   UNL d   1      46.606 -19.162  44.053  0.00  0.00    -0.304 OA
BRANCH  19  20
ATOM     20  C   UNL d   1      46.645 -19.923  44.363  0.00  0.00     0.123 C 
ATOM     21  C   UNL d   1      46.006 -20.233  44.792  0.00  0.00     0.029 C 
ENDBRANCH  19  20
ENDBRANCH   3  19
TORSDOF 6
ENDMDL
