MODEL 1
REMARK VINA RESULT:      97.5      0.000      0.000
REMARK  9 active torsions:
REMARK  status: ('A' for Active; 'I' for Inactive)
REMARK    1  A    between atoms: C_14  and  N_1 
REMARK    2  A    between atoms: C_8  and  C_2 
REMARK    3  A    between atoms: C_3  and  N_11 
REMARK    4  A    between atoms: S_16  and  C_4 
REMARK    5  A    between atoms: C_10  and  C_8 
REMARK       I    between atoms: N_11  and  C_17 
REMARK    6  A    between atoms: C_23  and  C_14 
REMARK    7  A    between atoms: C_22  and  S_16 
REMARK    8  A    between atoms: C_17  and  C_22 
REMARK    9  A    between atoms: C_25  and  C_23 
ROOT
ATOM      1  N   UNL d   1      59.457  49.304  51.039  0.00  0.00    -0.268 N 
ATOM      2  C   UNL d   1      58.822  49.566  50.580  0.00  0.00     0.172 A 
ATOM      3  C   UNL d   1      60.120  49.246  50.554  0.00  0.00     0.201 A 
ATOM      4  N   UNL d   1      59.091  49.669  49.811  0.00  0.00    -0.128 NA
ATOM      5  N   UNL d   1      59.892  49.473  49.787  0.00  0.00    -0.121 NA
ENDROOT
BRANCH   3   6
ATOM      6  S   UNL d   1      60.871  49.006  50.781  0.00  0.00    -0.043 SA
BRANCH   6   7
ATOM      7  C   UNL d   1      60.966  48.375  51.302  0.00  0.00     0.101 C 
BRANCH   7   8
ATOM      8  C   UNL d   1      61.147  47.623  51.012  0.00  0.00     0.288 C 
ATOM      9  N   UNL d   1      61.412  47.538  50.240  0.00  0.00    -0.182 NA
ATOM     10  O   UNL d   1      61.061  46.962  51.497  0.00  0.00    -0.265 OA
BRANCH   9  11
ATOM     11  C   UNL d   1      61.593  46.794  49.947  0.00  0.00     0.197 A 
ATOM     12  N   UNL d   1      62.319  46.403  50.023  0.00  0.00    -0.221 NA
ATOM     13  C   UNL d   1      62.256  45.675  49.648  0.00  0.00     0.090 A 
ATOM     14  C   UNL d   1      62.790  45.063  49.547  0.00  0.00     0.020 A 
ATOM     15  C   UNL d   1      61.493  45.606  49.338  0.00  0.00     0.050 A 
ATOM     16  C   UNL d   1      62.571  44.381  49.138  0.00  0.00     0.002 A 
ATOM     17  C   UNL d   1      61.805  44.318  48.830  0.00  0.00     0.001 A 
ATOM     18  C   UNL d   1      61.275  44.924  48.929  0.00  0.00     0.008 A 
ATOM     19  S   UNL d   1      61.071  46.296  49.517  0.00  0.00    -0.047 SA
ENDBRANCH   9  11
ENDBRANCH   7   8
ENDBRANCH   6   7
ENDBRANCH   3   6
BRANCH   1  20
ATOM     20  C   UNL d   1      59.430  49.131  51.846  0.00  0.00     0.084 C 
BRANCH  20  21
ATOM     21  C   UNL d   1      59.677  49.703  52.401  0.00  0.00     0.019 C 
BRANCH  21  22
ATOM     22  C   UNL d   1      59.434  49.647  53.192  0.00  0.00     0.002 A 
ATOM     23  C   UNL d   1      59.994  49.541  53.779  0.00  0.00     0.000 A 
ATOM     24  C   UNL d   1      59.748  49.486  54.564  0.00  0.00     0.000 A 
ATOM     25  C   UNL d   1      58.941  49.538  54.750  0.00  0.00     0.000 A 
ATOM     26  C   UNL d   1      58.381  49.645  54.151  0.00  0.00     0.000 A 
ATOM     27  C   UNL d   1      58.639  49.699  53.369  0.00  0.00     0.000 A 
ENDBRANCH  21  22
ENDBRANCH  20  21
ENDBRANCH   1  20
BRANCH   2  28
ATOM     28  C   UNL d   1      58.051  49.700  50.846  0.00  0.00     0.057 C 
BRANCH  28  29
ATOM     29  C   UNL d   1      57.425  49.265  50.538  0.00  0.00     0.067 A 
ATOM     30  N   UNL d   1      57.168  49.262  49.752  0.00  0.00    -0.303 N 
ATOM     31  C   UNL d   1      56.526  48.746  49.694  0.00  0.00     0.080 A 
ATOM     32  C   UNL d   1      57.500  49.701  49.139  0.00  0.00     0.100 C 
ATOM     33  C   UNL d   1      56.382  48.428  50.438  0.00  0.00     0.021 A 
ATOM     34  C   UNL d   1      56.934  48.745  50.962  0.00  0.00     0.019 A 
ENDBRANCH  28  29
ENDBRANCH   2  28
TORSDOF 9
ENDMDL
