MODEL 1
REMARK VINA RESULT:      -5.3      0.000      0.000
REMARK  3 active torsions:
REMARK  status: ('A' for Active; 'I' for Inactive)
REMARK    1  A    between atoms: C_3  and  C_1 
REMARK    2  A    between atoms: C_5  and  C_3 
REMARK    3  A    between atoms: C_11  and  C_5 
ROOT
ATOM      1  C   UNL d   1      56.401  -0.029  32.218  0.00  0.00     0.109 C 
ATOM      2  C   UNL d   1      56.214  -0.799  32.428  0.00  0.00     0.105 C 
ATOM      3  N   UNL d   1      56.021  -1.572  32.643  0.00  0.00    -0.191 NA
ENDROOT
BRANCH   1   4
ATOM      4  C   UNL d   1      57.023   0.112  31.693  0.00  0.00     0.192 A 
ATOM      5  N   UNL d   1      57.002   0.020  30.861  0.00  0.00    -0.220 NA
ATOM      6  C   UNL d   1      57.748   0.222  30.558  0.00  0.00     0.106 A 
ATOM      7  C   UNL d   1      58.043   0.235  29.788  0.00  0.00     0.021 A 
ATOM      8  C   UNL d   1      58.237   0.439  31.194  0.00  0.00     0.119 A 
ATOM      9  C   UNL d   1      58.823   0.464  29.650  0.00  0.00     0.002 A 
ATOM     10  C   UNL d   1      59.312   0.682  30.286  0.00  0.00     0.002 A 
ATOM     11  C   UNL d   1      59.017   0.669  31.056  0.00  0.00     0.026 A 
ATOM     12  O   UNL d   1      57.795   0.373  31.894  0.00  0.00    -0.287 OA
ENDBRANCH   1   4
BRANCH   1  13
ATOM     13  C   UNL d   1      55.971   0.603  32.529  0.00  0.00     0.014 C 
BRANCH  13  14
ATOM     14  C   UNL d   1      55.779   0.618  33.333  0.00  0.00     0.004 A 
ATOM     15  C   UNL d   1      56.382   0.667  33.893  0.00  0.00     0.021 A 
ATOM     16  C   UNL d   1      56.190   0.682  34.697  0.00  0.00     0.099 A 
ATOM     17  N   UNL d   1      55.400   0.648  34.933  0.00  0.00    -0.242 NA
ATOM     18  C   UNL d   1      54.790   0.599  34.364  0.00  0.00     0.099 A 
ATOM     19  C   UNL d   1      54.991   0.585  33.562  0.00  0.00     0.021 A 
ENDBRANCH  13  14
ENDBRANCH   1  13
TORSDOF 3
ENDMDL
MODEL 2
REMARK VINA RESULT:      -5.2      1.389      4.480
REMARK  3 active torsions:
REMARK  status: ('A' for Active; 'I' for Inactive)
REMARK    1  A    between atoms: C_3  and  C_1 
REMARK    2  A    between atoms: C_5  and  C_3 
REMARK    3  A    between atoms: C_11  and  C_5 
ROOT
ATOM      1  C   UNL d   1      58.032   0.139  30.729  0.00  0.00     0.109 C 
ATOM      2  C   UNL d   1      58.768   0.409  30.969  0.00  0.00     0.105 C 
ATOM      3  N   UNL d   1      59.511   0.680  31.204  0.00  0.00    -0.191 NA
ENDROOT
BRANCH   1   4
ATOM      4  C   UNL d   1      57.449  -0.016  31.295  0.00  0.00     0.192 A 
ATOM      5  N   UNL d   1      56.993   0.552  31.707  0.00  0.00    -0.220 NA
ATOM      6  C   UNL d   1      56.478   0.151  32.220  0.00  0.00     0.106 A 
ATOM      7  C   UNL d   1      55.910   0.423  32.753  0.00  0.00     0.021 A 
ATOM      8  C   UNL d   1      56.608  -0.665  32.131  0.00  0.00     0.119 A 
ATOM      9  C   UNL d   1      55.472  -0.116  33.198  0.00  0.00     0.002 A 
ATOM     10  C   UNL d   1      55.602  -0.932  33.109  0.00  0.00     0.002 A 
ATOM     11  C   UNL d   1      56.170  -1.204  32.576  0.00  0.00     0.026 A 
ATOM     12  O   UNL d   1      57.205  -0.772  31.564  0.00  0.00    -0.287 OA
ENDBRANCH   1   4
BRANCH   1  13
ATOM     13  C   UNL d   1      57.871   0.021  29.929  0.00  0.00     0.014 C 
BRANCH  13  14
ATOM     14  C   UNL d   1      58.403  -0.402  29.458  0.00  0.00     0.004 A 
ATOM     15  C   UNL d   1      58.886   0.004  28.928  0.00  0.00     0.021 A 
ATOM     16  C   UNL d   1      59.418  -0.419  28.456  0.00  0.00     0.099 A 
ATOM     17  N   UNL d   1      59.462  -1.241  28.519  0.00  0.00    -0.242 NA
ATOM     18  C   UNL d   1      58.970  -1.650  29.057  0.00  0.00     0.099 A 
ATOM     19  C   UNL d   1      58.441  -1.219  29.524  0.00  0.00     0.021 A 
ENDBRANCH  13  14
ENDBRANCH   1  13
TORSDOF 3
ENDMDL
MODEL 3
REMARK VINA RESULT:      -5.1      1.346      4.225
REMARK  3 active torsions:
REMARK  status: ('A' for Active; 'I' for Inactive)
REMARK    1  A    between atoms: C_3  and  C_1 
REMARK    2  A    between atoms: C_5  and  C_3 
REMARK    3  A    between atoms: C_11  and  C_5 
ROOT
ATOM      1  C   UNL d   1      57.930  -0.064  30.491  0.00  0.00     0.109 C 
ATOM      2  C   UNL d   1      58.072  -0.695  29.987  0.00  0.00     0.105 C 
ATOM      3  N   UNL d   1      58.219  -1.326  29.477  0.00  0.00    -0.191 NA
ENDROOT
BRANCH   1   4
ATOM      4  C   UNL d   1      57.386  -0.148  31.108  0.00  0.00     0.192 A 
ATOM      5  N   UNL d   1      57.155  -0.865  31.473  0.00  0.00    -0.220 NA
ATOM      6  C   UNL d   1      56.598  -0.689  32.063  0.00  0.00     0.106 A 
ATOM      7  C   UNL d   1      56.187  -1.170  32.592  0.00  0.00     0.021 A 
ATOM      8  C   UNL d   1      56.478   0.134  32.070  0.00  0.00     0.119 A 
ATOM      9  C   UNL d   1      55.657  -0.834  33.128  0.00  0.00     0.002 A 
ATOM     10  C   UNL d   1      55.538  -0.011  33.134  0.00  0.00     0.002 A 
ATOM     11  C   UNL d   1      55.949   0.470  32.605  0.00  0.00     0.026 A 
ATOM     12  O   UNL d   1      56.961   0.470  31.484  0.00  0.00    -0.287 OA
ENDBRANCH   1   4
BRANCH   1  13
ATOM     13  C   UNL d   1      58.327   0.651  30.386  0.00  0.00     0.014 C 
BRANCH  13  14
ATOM     14  C   UNL d   1      59.151   0.661  30.313  0.00  0.00     0.004 A 
ATOM     15  C   UNL d   1      59.491   0.659  29.562  0.00  0.00     0.021 A 
ATOM     16  C   UNL d   1      60.315   0.669  29.489  0.00  0.00     0.099 A 
ATOM     17  N   UNL d   1      60.789   0.680  30.163  0.00  0.00    -0.242 NA
ATOM     18  C   UNL d   1      60.442   0.681  30.924  0.00  0.00     0.099 A 
ATOM     19  C   UNL d   1      59.618   0.672  30.988  0.00  0.00     0.021 A 
ENDBRANCH  13  14
ENDBRANCH   1  13
TORSDOF 3
ENDMDL
MODEL 4
REMARK VINA RESULT:      -4.6      0.974      4.008
REMARK  3 active torsions:
REMARK  status: ('A' for Active; 'I' for Inactive)
REMARK    1  A    between atoms: C_3  and  C_1 
REMARK    2  A    between atoms: C_5  and  C_3 
REMARK    3  A    between atoms: C_11  and  C_5 
ROOT
ATOM      1  C   UNL d   1      56.778   0.006  31.797  0.00  0.00     0.109 C 
ATOM      2  C   UNL d   1      56.912  -0.770  31.568  0.00  0.00     0.105 C 
ATOM      3  N   UNL d   1      57.048  -1.548  31.331  0.00  0.00    -0.191 NA
ENDROOT
BRANCH   1   4
ATOM      4  C   UNL d   1      56.434   0.161  32.533  0.00  0.00     0.192 A 
ATOM      5  N   UNL d   1      55.616   0.233  32.693  0.00  0.00    -0.220 NA
ATOM      6  C   UNL d   1      55.522   0.388  33.504  0.00  0.00     0.106 A 
ATOM      7  C   UNL d   1      54.850   0.509  33.966  0.00  0.00     0.021 A 
ATOM      8  C   UNL d   1      56.276   0.415  33.852  0.00  0.00     0.119 A 
ATOM      9  C   UNL d   1      54.927   0.656  34.774  0.00  0.00     0.002 A 
ATOM     10  C   UNL d   1      55.681   0.682  35.122  0.00  0.00     0.002 A 
ATOM     11  C   UNL d   1      56.353   0.561  34.660  0.00  0.00     0.026 A 
ATOM     12  O   UNL d   1      56.840   0.275  33.258  0.00  0.00    -0.287 OA
ENDBRANCH   1   4
BRANCH   1  13
ATOM     13  C   UNL d   1      56.986   0.630  31.299  0.00  0.00     0.014 C 
BRANCH  13  14
ATOM     14  C   UNL d   1      57.730   0.641  30.939  0.00  0.00     0.004 A 
ATOM     15  C   UNL d   1      57.782   0.625  30.116  0.00  0.00     0.021 A 
ATOM     16  C   UNL d   1      58.527   0.636  29.756  0.00  0.00     0.099 A 
ATOM     17  N   UNL d   1      59.209   0.665  30.218  0.00  0.00    -0.242 NA
ATOM     18  C   UNL d   1      59.154   0.682  31.052  0.00  0.00     0.099 A 
ATOM     19  C   UNL d   1      58.406   0.670  31.405  0.00  0.00     0.021 A 
ENDBRANCH  13  14
ENDBRANCH   1  13
TORSDOF 3
ENDMDL
MODEL 5
REMARK VINA RESULT:      -2.8      9.556     10.295
REMARK  3 active torsions:
REMARK  status: ('A' for Active; 'I' for Inactive)
REMARK    1  A    between atoms: C_3  and  C_1 
REMARK    2  A    between atoms: C_5  and  C_3 
REMARK    3  A    between atoms: C_11  and  C_5 
ROOT
ATOM      1  C   UNL d   1      59.485  -9.789  33.369  0.00  0.00     0.109 C 
ATOM      2  C   UNL d   1      60.302  -9.756  33.303  0.00  0.00     0.105 C 
ATOM      3  N   UNL d   1      61.124  -9.723  33.242  0.00  0.00    -0.191 NA
ENDROOT
BRANCH   1   4
ATOM      4  C   UNL d   1      59.019  -9.794  32.686  0.00  0.00     0.192 A 
ATOM      5  N   UNL d   1      59.295  -9.796  31.896  0.00  0.00    -0.220 NA
ATOM      6  C   UNL d   1      58.637  -9.800  31.390  0.00  0.00     0.106 A 
ATOM      7  C   UNL d   1      58.576  -9.803  30.568  0.00  0.00     0.021 A 
ATOM      8  C   UNL d   1      57.950  -9.801  31.858  0.00  0.00     0.119 A 
ATOM      9  C   UNL d   1      57.833  -9.808  30.210  0.00  0.00     0.002 A 
ATOM     10  C   UNL d   1      57.146  -9.809  30.678  0.00  0.00     0.002 A 
ATOM     11  C   UNL d   1      57.207  -9.806  31.501  0.00  0.00     0.026 A 
ATOM     12  O   UNL d   1      58.181  -9.797  32.656  0.00  0.00    -0.287 OA
ENDBRANCH   1   4
BRANCH   1  13
ATOM     13  C   UNL d   1      59.128  -9.818  34.112  0.00  0.00     0.014 C 
BRANCH  13  14
ATOM     14  C   UNL d   1      59.374  -9.301  34.710  0.00  0.00     0.004 A 
ATOM     15  C   UNL d   1      59.761  -9.603  35.372  0.00  0.00     0.021 A 
ATOM     16  C   UNL d   1      60.007  -9.087  35.969  0.00  0.00     0.099 A 
ATOM     17  N   UNL d   1      59.864  -8.277  35.900  0.00  0.00    -0.242 NA
ATOM     18  C   UNL d   1      59.471  -7.974  35.228  0.00  0.00     0.099 A 
ATOM     19  C   UNL d   1      59.229  -8.497  34.635  0.00  0.00     0.021 A 
ENDBRANCH  13  14
ENDBRANCH   1  13
TORSDOF 3
ENDMDL
MODEL 6
REMARK VINA RESULT:      -2.8      2.291      3.611
REMARK  3 active torsions:
REMARK  status: ('A' for Active; 'I' for Inactive)
REMARK    1  A    between atoms: C_3  and  C_1 
REMARK    2  A    between atoms: C_5  and  C_3 
REMARK    3  A    between atoms: C_11  and  C_5 
ROOT
ATOM      1  C   UNL d   1      58.635  -0.016  29.638  0.00  0.00     0.109 C 
ATOM      2  C   UNL d   1      58.166   0.329  29.060  0.00  0.00     0.105 C 
ATOM      3  N   UNL d   1      57.694   0.682  28.483  0.00  0.00    -0.191 NA
ENDROOT
BRANCH   1   4
ATOM      4  C   UNL d   1      58.966  -0.762  29.503  0.00  0.00     0.192 A 
ATOM      5  N   UNL d   1      59.781  -0.948  29.484  0.00  0.00    -0.220 NA
ATOM      6  C   UNL d   1      59.859  -1.761  29.332  0.00  0.00     0.106 A 
ATOM      7  C   UNL d   1      60.523  -2.244  29.253  0.00  0.00     0.021 A 
ATOM      8  C   UNL d   1      59.098  -2.084  29.255  0.00  0.00     0.119 A 
ATOM      9  C   UNL d   1      60.430  -3.049  29.099  0.00  0.00     0.002 A 
ATOM     10  C   UNL d   1      59.669  -3.372  29.023  0.00  0.00     0.002 A 
ATOM     11  C   UNL d   1      59.005  -2.889  29.101  0.00  0.00     0.026 A 
ATOM     12  O   UNL d   1      58.545  -1.474  29.360  0.00  0.00    -0.287 OA
ENDBRANCH   1   4
BRANCH   1  13
ATOM     13  C   UNL d   1      58.777   0.376  30.349  0.00  0.00     0.014 C 
BRANCH  13  14
ATOM     14  C   UNL d   1      58.165   0.479  30.895  0.00  0.00     0.004 A 
ATOM     15  C   UNL d   1      58.337   0.483  31.701  0.00  0.00     0.021 A 
ATOM     16  C   UNL d   1      57.725   0.586  32.247  0.00  0.00     0.099 A 
ATOM     17  N   UNL d   1      56.949   0.682  31.984  0.00  0.00    -0.242 NA
ATOM     18  C   UNL d   1      56.776   0.677  31.166  0.00  0.00     0.099 A 
ATOM     19  C   UNL d   1      57.395   0.574  30.627  0.00  0.00     0.021 A 
ENDBRANCH  13  14
ENDBRANCH   1  13
TORSDOF 3
ENDMDL
