MODEL 1
REMARK VINA RESULT:      -5.6      0.000      0.000
REMARK  10 active torsions:
REMARK  status: ('A' for Active; 'I' for Inactive)
REMARK    1  A    between atoms: C_14  and  N_1 
REMARK    2  A    between atoms: N_9  and  C_2 
REMARK    3  A    between atoms: C_6  and  C_5 
REMARK    4  A    between atoms: C_7  and  C_6 
REMARK       I    between atoms: N_8  and  C_7 
REMARK    5  A    between atoms: C_10  and  N_8 
REMARK    6  A    between atoms: C_16  and  N_9 
REMARK    7  A    between atoms: O_15  and  C_13 
REMARK    8  A    between atoms: C_19  and  O_15 
REMARK    9  A    between atoms: C_21  and  C_19 
REMARK   10  A    between atoms: C_22  and  C_21 
ROOT
ATOM      1  C   UNL d   1     -47.391  13.573  22.972  0.00  0.00     0.280 C 
ATOM      2  N   UNL d   1     -46.760  13.188  22.609  0.00  0.00    -0.206 NA
ATOM      3  O   UNL d   1     -47.729  13.259  23.652  0.00  0.00    -0.265 OA
ENDROOT
BRANCH   1   4
ATOM      4  C   UNL d   1     -47.679  14.273  22.645  0.00  0.00     0.074 C 
BRANCH   4   5
ATOM      5  C   UNL d   1     -48.487  14.383  22.533  0.00  0.00     0.093 A 
ATOM      6  C   UNL d   1     -48.937  15.005  22.829  0.00  0.00     0.272 A 
ATOM      7  N   UNL d   1     -49.714  14.895  22.584  0.00  0.00    -0.252 N 
ATOM      8  O   UNL d   1     -48.660  15.628  23.288  0.00  0.00    -0.266 OA
ATOM      9  C   UNL d   1     -49.745  14.206  22.138  0.00  0.00     0.182 A 
ATOM     10  S   UNL d   1     -48.984  13.882  22.102  0.00  0.00    -0.045 SA
BRANCH   7  11
ATOM     11  C   UNL d   1     -50.353  15.386  22.753  0.00  0.00     0.085 C 
ATOM     12  C   UNL d   1     -50.571  15.515  23.543  0.00  0.00     0.021 C 
ENDBRANCH   7  11
BRANCH   9  13
ATOM     13  N   UNL d   1     -50.419  13.885  21.781  0.00  0.00    -0.221 NA
BRANCH  13  14
ATOM     14  C   UNL d   1     -50.381  13.147  21.428  0.00  0.00     0.101 C 
ATOM     15  C   UNL d   1     -50.991  12.606  21.531  0.00  0.00     0.022 C 
ENDBRANCH  13  14
ENDBRANCH   9  13
ENDBRANCH   4   5
ENDBRANCH   1   4
BRANCH   2  16
ATOM     16  C   UNL d   1     -46.466  12.490  22.927  0.00  0.00     0.107 A 
ATOM     17  C   UNL d   1     -45.675  12.271  22.792  0.00  0.00     0.118 A 
ATOM     18  C   UNL d   1     -45.381  11.568  23.112  0.00  0.00     0.026 A 
ATOM     19  C   UNL d   1     -45.879  11.088  23.564  0.00  0.00     0.002 A 
ATOM     20  C   UNL d   1     -46.662  11.305  23.697  0.00  0.00     0.002 A 
ATOM     21  C   UNL d   1     -46.956  12.004  23.380  0.00  0.00     0.021 A 
BRANCH  17  22
ATOM     22  O   UNL d   1     -45.185  12.753  22.341  0.00  0.00    -0.304 OA
BRANCH  22  23
ATOM     23  C   UNL d   1     -44.425  12.501  22.152  0.00  0.00     0.123 C 
BRANCH  23  24
ATOM     24  C   UNL d   1     -43.937  12.969  21.693  0.00  0.00     0.027 C 
BRANCH  24  25
ATOM     25  C   UNL d   1     -43.300  12.636  21.276  0.00  0.00     0.002 C 
ATOM     26  C   UNL d   1     -42.710  13.129  20.977  0.00  0.00     0.000 C 
ENDBRANCH  24  25
ENDBRANCH  23  24
ENDBRANCH  22  23
ENDBRANCH  17  22
ENDBRANCH   2  16
TORSDOF 10
ENDMDL
MODEL 2
REMARK VINA RESULT:      -4.8      1.419      2.487
REMARK  10 active torsions:
REMARK  status: ('A' for Active; 'I' for Inactive)
REMARK    1  A    between atoms: C_14  and  N_1 
REMARK    2  A    between atoms: N_9  and  C_2 
REMARK    3  A    between atoms: C_6  and  C_5 
REMARK    4  A    between atoms: C_7  and  C_6 
REMARK       I    between atoms: N_8  and  C_7 
REMARK    5  A    between atoms: C_10  and  N_8 
REMARK    6  A    between atoms: C_16  and  N_9 
REMARK    7  A    between atoms: O_15  and  C_13 
REMARK    8  A    between atoms: C_19  and  O_15 
REMARK    9  A    between atoms: C_21  and  C_19 
REMARK   10  A    between atoms: C_22  and  C_21 
ROOT
ATOM      1  C   UNL d   1     -47.320  12.621  23.142  0.00  0.00     0.280 C 
ATOM      2  N   UNL d   1     -46.552  12.584  23.437  0.00  0.00    -0.206 NA
ATOM      3  O   UNL d   1     -47.450  12.821  22.356  0.00  0.00    -0.265 OA
ENDROOT
BRANCH   1   4
ATOM      4  C   UNL d   1     -47.953  12.457  23.644  0.00  0.00     0.074 C 
BRANCH   4   5
ATOM      5  C   UNL d   1     -48.697  12.777  23.499  0.00  0.00     0.093 A 
ATOM      6  C   UNL d   1     -49.400  12.355  23.425  0.00  0.00     0.272 A 
ATOM      7  N   UNL d   1     -50.006  12.893  23.283  0.00  0.00    -0.252 N 
ATOM      8  O   UNL d   1     -49.484  11.540  23.484  0.00  0.00    -0.266 OA
ATOM      9  C   UNL d   1     -49.678  13.646  23.268  0.00  0.00     0.182 A 
ATOM     10  S   UNL d   1     -48.863  13.581  23.402  0.00  0.00    -0.045 SA
BRANCH   7  11
ATOM     11  C   UNL d   1     -50.801  12.714  23.173  0.00  0.00     0.085 C 
ATOM     12  C   UNL d   1     -51.063  12.458  22.429  0.00  0.00     0.021 C 
ENDBRANCH   7  11
BRANCH   9  13
ATOM     13  N   UNL d   1     -50.087  14.354  23.141  0.00  0.00    -0.221 NA
BRANCH  13  14
ATOM     14  C   UNL d   1     -49.936  15.003  23.618  0.00  0.00     0.101 C 
ATOM     15  C   UNL d   1     -50.331  15.712  23.491  0.00  0.00     0.022 C 
ENDBRANCH  13  14
ENDBRANCH   9  13
ENDBRANCH   4   5
ENDBRANCH   1   4
BRANCH   2  16
ATOM     16  C   UNL d   1     -45.914  12.746  22.945  0.00  0.00     0.107 A 
ATOM     17  C   UNL d   1     -45.271  12.219  22.907  0.00  0.00     0.118 A 
ATOM     18  C   UNL d   1     -44.631  12.384  22.412  0.00  0.00     0.026 A 
ATOM     19  C   UNL d   1     -44.636  13.073  21.957  0.00  0.00     0.002 A 
ATOM     20  C   UNL d   1     -45.272  13.595  21.995  0.00  0.00     0.002 A 
ATOM     21  C   UNL d   1     -45.910  13.433  22.486  0.00  0.00     0.021 A 
BRANCH  17  22
ATOM     22  O   UNL d   1     -45.273  11.534  23.362  0.00  0.00    -0.304 OA
BRANCH  22  23
ATOM     23  C   UNL d   1     -44.647  11.003  23.305  0.00  0.00     0.123 C 
BRANCH  23  24
ATOM     24  C   UNL d   1     -44.737  10.230  23.553  0.00  0.00     0.027 C 
BRANCH  24  25
ATOM     25  C   UNL d   1     -44.073   9.749  23.691  0.00  0.00     0.002 C 
ATOM     26  C   UNL d   1     -43.339   9.978  23.391  0.00  0.00     0.000 C 
ENDBRANCH  24  25
ENDBRANCH  23  24
ENDBRANCH  22  23
ENDBRANCH  17  22
ENDBRANCH   2  16
TORSDOF 10
ENDMDL
MODEL 3
REMARK VINA RESULT:      -4.0      1.534      5.197
REMARK  10 active torsions:
REMARK  status: ('A' for Active; 'I' for Inactive)
REMARK    1  A    between atoms: C_14  and  N_1 
REMARK    2  A    between atoms: N_9  and  C_2 
REMARK    3  A    between atoms: C_6  and  C_5 
REMARK    4  A    between atoms: C_7  and  C_6 
REMARK       I    between atoms: N_8  and  C_7 
REMARK    5  A    between atoms: C_10  and  N_8 
REMARK    6  A    between atoms: C_16  and  N_9 
REMARK    7  A    between atoms: O_15  and  C_13 
REMARK    8  A    between atoms: C_19  and  O_15 
REMARK    9  A    between atoms: C_21  and  C_19 
REMARK   10  A    between atoms: C_22  and  C_21 
ROOT
ATOM      1  C   UNL d   1     -47.235  13.979  23.015  0.00  0.00     0.280 C 
ATOM      2  N   UNL d   1     -47.979  14.152  23.321  0.00  0.00    -0.206 NA
ATOM      3  O   UNL d   1     -47.030  14.232  22.261  0.00  0.00    -0.265 OA
ENDROOT
BRANCH   1   4
ATOM      4  C   UNL d   1     -46.700  13.550  23.473  0.00  0.00     0.074 C 
BRANCH   4   5
ATOM      5  C   UNL d   1     -46.174  13.024  23.121  0.00  0.00     0.093 A 
ATOM      6  C   UNL d   1     -46.163  12.207  23.224  0.00  0.00     0.272 A 
ATOM      7  N   UNL d   1     -45.549  11.902  22.770  0.00  0.00    -0.252 N 
ATOM      8  O   UNL d   1     -46.675  11.772  23.696  0.00  0.00    -0.266 OA
ATOM      9  C   UNL d   1     -45.180  12.528  22.387  0.00  0.00     0.182 A 
ATOM     10  S   UNL d   1     -45.565  13.230  22.601  0.00  0.00    -0.045 SA
BRANCH   7  11
ATOM     11  C   UNL d   1     -45.336  11.110  22.707  0.00  0.00     0.085 C 
ATOM     12  C   UNL d   1     -45.011  10.721  23.364  0.00  0.00     0.021 C 
ENDBRANCH   7  11
BRANCH   9  13
ATOM     13  N   UNL d   1     -44.534  12.474  21.874  0.00  0.00    -0.221 NA
BRANCH  13  14
ATOM     14  C   UNL d   1     -44.010  13.102  21.809  0.00  0.00     0.101 C 
ATOM     15  C   UNL d   1     -43.432  13.101  21.226  0.00  0.00     0.022 C 
ENDBRANCH  13  14
ENDBRANCH   9  13
ENDBRANCH   4   5
ENDBRANCH   1   4
BRANCH   2  16
ATOM     16  C   UNL d   1     -48.519  14.579  22.872  0.00  0.00     0.107 A 
ATOM     17  C   UNL d   1     -49.334  14.426  22.943  0.00  0.00     0.118 A 
ATOM     18  C   UNL d   1     -49.875  14.856  22.491  0.00  0.00     0.026 A 
ATOM     19  C   UNL d   1     -49.601  15.437  21.972  0.00  0.00     0.002 A 
ATOM     20  C   UNL d   1     -48.794  15.589  21.902  0.00  0.00     0.002 A 
ATOM     21  C   UNL d   1     -48.254  15.162  22.351  0.00  0.00     0.021 A 
BRANCH  17  22
ATOM     22  O   UNL d   1     -49.600  13.846  23.461  0.00  0.00    -0.304 OA
BRANCH  22  23
ATOM     23  C   UNL d   1     -50.194  13.327  23.225  0.00  0.00     0.123 C 
BRANCH  23  24
ATOM     24  C   UNL d   1     -50.387  12.683  23.688  0.00  0.00     0.027 C 
BRANCH  24  25
ATOM     25  C   UNL d   1     -50.506  11.934  23.345  0.00  0.00     0.002 C 
ATOM     26  C   UNL d   1     -50.102  11.282  23.648  0.00  0.00     0.000 C 
ENDBRANCH  24  25
ENDBRANCH  23  24
ENDBRANCH  22  23
ENDBRANCH  17  22
ENDBRANCH   2  16
TORSDOF 10
ENDMDL
MODEL 4
REMARK VINA RESULT:      -3.6      7.128      9.607
REMARK  10 active torsions:
REMARK  status: ('A' for Active; 'I' for Inactive)
REMARK    1  A    between atoms: C_14  and  N_1 
REMARK    2  A    between atoms: N_9  and  C_2 
REMARK    3  A    between atoms: C_6  and  C_5 
REMARK    4  A    between atoms: C_7  and  C_6 
REMARK       I    between atoms: N_8  and  C_7 
REMARK    5  A    between atoms: C_10  and  N_8 
REMARK    6  A    between atoms: C_16  and  N_9 
REMARK    7  A    between atoms: O_15  and  C_13 
REMARK    8  A    between atoms: C_19  and  O_15 
REMARK    9  A    between atoms: C_21  and  C_19 
REMARK   10  A    between atoms: C_22  and  C_21 
ROOT
ATOM      1  C   UNL d   1     -40.481  14.566  18.546  0.00  0.00     0.280 C 
ATOM      2  N   UNL d   1     -40.460  14.930  19.284  0.00  0.00    -0.206 NA
ATOM      3  O   UNL d   1     -40.922  13.882  18.437  0.00  0.00    -0.265 OA
ENDROOT
BRANCH   1   4
ATOM      4  C   UNL d   1     -40.055  14.895  17.921  0.00  0.00     0.074 C 
BRANCH   4   5
ATOM      5  C   UNL d   1     -39.517  14.442  17.496  0.00  0.00     0.093 A 
ATOM      6  C   UNL d   1     -39.282  14.570  16.717  0.00  0.00     0.272 A 
ATOM      7  N   UNL d   1     -38.739  13.987  16.516  0.00  0.00    -0.252 N 
ATOM      8  O   UNL d   1     -39.544  15.175  16.227  0.00  0.00    -0.266 OA
ATOM      9  C   UNL d   1     -38.637  13.498  17.168  0.00  0.00     0.182 A 
ATOM     10  S   UNL d   1     -39.119  13.776  17.782  0.00  0.00    -0.045 SA
BRANCH   7  11
ATOM     11  C   UNL d   1     -38.360  13.903  15.790  0.00  0.00     0.085 C 
ATOM     12  C   UNL d   1     -37.940  14.543  15.472  0.00  0.00     0.021 C 
ENDBRANCH   7  11
BRANCH   9  13
ATOM     13  N   UNL d   1     -38.139  12.839  17.210  0.00  0.00    -0.221 NA
BRANCH  13  14
ATOM     14  C   UNL d   1     -38.267  12.268  17.784  0.00  0.00     0.101 C 
ATOM     15  C   UNL d   1     -37.965  11.510  17.690  0.00  0.00     0.022 C 
ENDBRANCH  13  14
ENDBRANCH   9  13
ENDBRANCH   4   5
ENDBRANCH   1   4
BRANCH   2  16
ATOM     16  C   UNL d   1     -40.880  14.610  19.913  0.00  0.00     0.107 A 
ATOM     17  C   UNL d   1     -40.642  14.764  20.696  0.00  0.00     0.118 A 
ATOM     18  C   UNL d   1     -41.066  14.441  21.327  0.00  0.00     0.026 A 
ATOM     19  C   UNL d   1     -41.725  13.967  21.174  0.00  0.00     0.002 A 
ATOM     20  C   UNL d   1     -41.961  13.815  20.399  0.00  0.00     0.002 A 
ATOM     21  C   UNL d   1     -41.541  14.135  19.770  0.00  0.00     0.021 A 
BRANCH  17  22
ATOM     22  O   UNL d   1     -39.985  15.236  20.841  0.00  0.00    -0.304 OA
BRANCH  22  23
ATOM     23  C   UNL d   1     -39.528  15.105  21.512  0.00  0.00     0.123 C 
BRANCH  23  24
ATOM     24  C   UNL d   1     -38.713  15.075  21.457  0.00  0.00     0.027 C 
BRANCH  24  25
ATOM     25  C   UNL d   1     -38.240  15.130  22.139  0.00  0.00     0.002 C 
ATOM     26  C   UNL d   1     -38.008  15.874  22.411  0.00  0.00     0.000 C 
ENDBRANCH  24  25
ENDBRANCH  23  24
ENDBRANCH  22  23
ENDBRANCH  17  22
ENDBRANCH   2  16
TORSDOF 10
ENDMDL
MODEL 5
REMARK VINA RESULT:      -3.5      7.880     10.031
REMARK  10 active torsions:
REMARK  status: ('A' for Active; 'I' for Inactive)
REMARK    1  A    between atoms: C_14  and  N_1 
REMARK    2  A    between atoms: N_9  and  C_2 
REMARK    3  A    between atoms: C_6  and  C_5 
REMARK    4  A    between atoms: C_7  and  C_6 
REMARK       I    between atoms: N_8  and  C_7 
REMARK    5  A    between atoms: C_10  and  N_8 
REMARK    6  A    between atoms: C_16  and  N_9 
REMARK    7  A    between atoms: O_15  and  C_13 
REMARK    8  A    between atoms: C_19  and  O_15 
REMARK    9  A    between atoms: C_21  and  C_19 
REMARK   10  A    between atoms: C_22  and  C_21 
ROOT
ATOM      1  C   UNL d   1     -39.251  15.213  19.004  0.00  0.00     0.280 C 
ATOM      2  N   UNL d   1     -39.313  15.518  19.766  0.00  0.00    -0.206 NA
ATOM      3  O   UNL d   1     -39.929  15.018  18.582  0.00  0.00    -0.265 OA
ENDROOT
BRANCH   1   4
ATOM      4  C   UNL d   1     -38.504  15.104  18.672  0.00  0.00     0.074 C 
BRANCH   4   5
ATOM      5  C   UNL d   1     -38.371  14.501  18.128  0.00  0.00     0.093 A 
ATOM      6  C   UNL d   1     -38.209  13.714  18.307  0.00  0.00     0.272 A 
ATOM      7  N   UNL d   1     -38.114  13.307  17.599  0.00  0.00    -0.252 N 
ATOM      8  O   UNL d   1     -38.151  13.391  19.060  0.00  0.00    -0.266 OA
ATOM      9  C   UNL d   1     -38.218  13.840  16.983  0.00  0.00     0.182 A 
ATOM     10  S   UNL d   1     -38.378  14.586  17.306  0.00  0.00    -0.045 SA
BRANCH   7  11
ATOM     11  C   UNL d   1     -37.946  12.506  17.516  0.00  0.00     0.085 C 
ATOM     12  C   UNL d   1     -38.167  11.978  18.116  0.00  0.00     0.021 C 
ENDBRANCH   7  11
BRANCH   9  13
ATOM     13  N   UNL d   1     -38.171  13.668  16.175  0.00  0.00    -0.221 NA
BRANCH  13  14
ATOM     14  C   UNL d   1     -38.331  14.253  15.624  0.00  0.00     0.101 C 
ATOM     15  C   UNL d   1     -38.257  14.097  14.821  0.00  0.00     0.022 C 
ENDBRANCH  13  14
ENDBRANCH   9  13
ENDBRANCH   4   5
ENDBRANCH   1   4
BRANCH   2  16
ATOM     16  C   UNL d   1     -40.052  15.630  20.106  0.00  0.00     0.107 A 
ATOM     17  C   UNL d   1     -40.146  15.565  20.930  0.00  0.00     0.118 A 
ATOM     18  C   UNL d   1     -40.891  15.677  21.270  0.00  0.00     0.026 A 
ATOM     19  C   UNL d   1     -41.536  15.854  20.787  0.00  0.00     0.002 A 
ATOM     20  C   UNL d   1     -41.443  15.919  19.970  0.00  0.00     0.002 A 
ATOM     21  C   UNL d   1     -40.704  15.808  19.630  0.00  0.00     0.021 A 
BRANCH  17  22
ATOM     22  O   UNL d   1     -39.500  15.388  21.406  0.00  0.00    -0.304 OA
BRANCH  22  23
ATOM     23  C   UNL d   1     -39.569  14.817  21.994  0.00  0.00     0.123 C 
BRANCH  23  24
ATOM     24  C   UNL d   1     -38.932  14.639  22.474  0.00  0.00     0.027 C 
BRANCH  24  25
ATOM     25  C   UNL d   1     -38.951  13.975  22.975  0.00  0.00     0.002 C 
ATOM     26  C   UNL d   1     -38.476  13.324  22.800  0.00  0.00     0.000 C 
ENDBRANCH  24  25
ENDBRANCH  23  24
ENDBRANCH  22  23
ENDBRANCH  17  22
ENDBRANCH   2  16
TORSDOF 10
ENDMDL
MODEL 6
REMARK VINA RESULT:      -3.5      1.522      4.900
REMARK  10 active torsions:
REMARK  status: ('A' for Active; 'I' for Inactive)
REMARK    1  A    between atoms: C_14  and  N_1 
REMARK    2  A    between atoms: N_9  and  C_2 
REMARK    3  A    between atoms: C_6  and  C_5 
REMARK    4  A    between atoms: C_7  and  C_6 
REMARK       I    between atoms: N_8  and  C_7 
REMARK    5  A    between atoms: C_10  and  N_8 
REMARK    6  A    between atoms: C_16  and  N_9 
REMARK    7  A    between atoms: O_15  and  C_13 
REMARK    8  A    between atoms: C_19  and  O_15 
REMARK    9  A    between atoms: C_21  and  C_19 
REMARK   10  A    between atoms: C_22  and  C_21 
ROOT
ATOM      1  C   UNL d   1     -47.794  14.531  22.668  0.00  0.00     0.280 C 
ATOM      2  N   UNL d   1     -48.542  14.556  23.011  0.00  0.00    -0.206 NA
ATOM      3  O   UNL d   1     -47.713  14.568  21.851  0.00  0.00    -0.265 OA
ENDROOT
BRANCH   1   4
ATOM      4  C   UNL d   1     -47.129  14.467  23.153  0.00  0.00     0.074 C 
BRANCH   4   5
ATOM      5  C   UNL d   1     -46.573  13.875  23.026  0.00  0.00     0.093 A 
ATOM      6  C   UNL d   1     -45.874  13.949  22.598  0.00  0.00     0.272 A 
ATOM      7  N   UNL d   1     -45.488  13.224  22.613  0.00  0.00    -0.252 N 
ATOM      8  O   UNL d   1     -45.608  14.629  22.221  0.00  0.00    -0.266 OA
ATOM      9  C   UNL d   1     -45.946  12.701  23.050  0.00  0.00     0.182 A 
ATOM     10  S   UNL d   1     -46.624  13.100  23.310  0.00  0.00    -0.045 SA
BRANCH   7  11
ATOM     11  C   UNL d   1     -44.768  13.047  22.255  0.00  0.00     0.085 C 
ATOM     12  C   UNL d   1     -44.717  13.028  21.428  0.00  0.00     0.021 C 
ENDBRANCH   7  11
BRANCH   9  13
ATOM     13  N   UNL d   1     -45.768  11.908  23.206  0.00  0.00    -0.221 NA
BRANCH  13  14
ATOM     14  C   UNL d   1     -46.344  11.413  23.512  0.00  0.00     0.101 C 
ATOM     15  C   UNL d   1     -46.166  10.633  23.697  0.00  0.00     0.022 C 
ENDBRANCH  13  14
ENDBRANCH   9  13
ENDBRANCH   4   5
ENDBRANCH   1   4
BRANCH   2  16
ATOM     16  C   UNL d   1     -49.210  14.619  22.536  0.00  0.00     0.107 A 
ATOM     17  C   UNL d   1     -49.850  14.099  22.647  0.00  0.00     0.118 A 
ATOM     18  C   UNL d   1     -50.521  14.164  22.169  0.00  0.00     0.026 A 
ATOM     19  C   UNL d   1     -50.549  14.747  21.584  0.00  0.00     0.002 A 
ATOM     20  C   UNL d   1     -49.914  15.261  21.475  0.00  0.00     0.002 A 
ATOM     21  C   UNL d   1     -49.246  15.198  21.949  0.00  0.00     0.021 A 
BRANCH  17  22
ATOM     22  O   UNL d   1     -49.816  13.522  23.231  0.00  0.00    -0.304 OA
BRANCH  22  23
ATOM     23  C   UNL d   1     -50.318  12.871  23.192  0.00  0.00     0.123 C 
BRANCH  23  24
ATOM     24  C   UNL d   1     -50.206  12.233  23.690  0.00  0.00     0.027 C 
BRANCH  24  25
ATOM     25  C   UNL d   1     -49.899  11.517  23.398  0.00  0.00     0.002 C 
ATOM     26  C   UNL d   1     -50.185  10.803  23.697  0.00  0.00     0.000 C 
ENDBRANCH  24  25
ENDBRANCH  23  24
ENDBRANCH  22  23
ENDBRANCH  17  22
ENDBRANCH   2  16
TORSDOF 10
ENDMDL
MODEL 7
REMARK VINA RESULT:      -3.4      8.099      9.821
REMARK  10 active torsions:
REMARK  status: ('A' for Active; 'I' for Inactive)
REMARK    1  A    between atoms: C_14  and  N_1 
REMARK    2  A    between atoms: N_9  and  C_2 
REMARK    3  A    between atoms: C_6  and  C_5 
REMARK    4  A    between atoms: C_7  and  C_6 
REMARK       I    between atoms: N_8  and  C_7 
REMARK    5  A    between atoms: C_10  and  N_8 
REMARK    6  A    between atoms: C_16  and  N_9 
REMARK    7  A    between atoms: O_15  and  C_13 
REMARK    8  A    between atoms: C_19  and  O_15 
REMARK    9  A    between atoms: C_21  and  C_19 
REMARK   10  A    between atoms: C_22  and  C_21 
ROOT
ATOM      1  C   UNL d   1     -38.284  14.581  19.098  0.00  0.00     0.280 C 
ATOM      2  N   UNL d   1     -38.332  14.794  18.304  0.00  0.00    -0.206 NA
ATOM      3  O   UNL d   1     -38.278  13.788  19.312  0.00  0.00    -0.265 OA
ENDROOT
BRANCH   1   4
ATOM      4  C   UNL d   1     -38.243  15.171  19.672  0.00  0.00     0.074 C 
BRANCH   4   5
ATOM      5  C   UNL d   1     -38.638  15.086  20.389  0.00  0.00     0.093 A 
ATOM      6  C   UNL d   1     -39.358  15.432  20.590  0.00  0.00     0.272 A 
ATOM      7  N   UNL d   1     -39.546  15.200  21.356  0.00  0.00    -0.252 N 
ATOM      8  O   UNL d   1     -39.810  15.922  20.110  0.00  0.00    -0.266 OA
ATOM      9  C   UNL d   1     -38.944  14.712  21.629  0.00  0.00     0.182 A 
ATOM     10  S   UNL d   1     -38.375  14.637  21.032  0.00  0.00    -0.045 SA
BRANCH   7  11
ATOM     11  C   UNL d   1     -40.218  15.415  21.780  0.00  0.00     0.085 C 
ATOM     12  C   UNL d   1     -40.801  15.877  21.413  0.00  0.00     0.021 C 
ENDBRANCH   7  11
BRANCH   9  13
ATOM     13  N   UNL d   1     -38.907  14.353  22.373  0.00  0.00    -0.221 NA
BRANCH  13  14
ATOM     14  C   UNL d   1     -38.490  13.653  22.468  0.00  0.00     0.101 C 
ATOM     15  C   UNL d   1     -38.550  13.227  23.168  0.00  0.00     0.022 C 
ENDBRANCH  13  14
ENDBRANCH   9  13
ENDBRANCH   4   5
ENDBRANCH   1   4
BRANCH   2  16
ATOM     16  C   UNL d   1     -38.374  14.213  17.724  0.00  0.00     0.107 A 
ATOM     17  C   UNL d   1     -38.844  14.332  17.048  0.00  0.00     0.118 A 
ATOM     18  C   UNL d   1     -38.885  13.747  16.466  0.00  0.00     0.026 A 
ATOM     19  C   UNL d   1     -38.456  13.048  16.562  0.00  0.00     0.002 A 
ATOM     20  C   UNL d   1     -37.989  12.931  17.231  0.00  0.00     0.002 A 
ATOM     21  C   UNL d   1     -37.948  13.511  17.811  0.00  0.00     0.021 A 
BRANCH  17  22
ATOM     22  O   UNL d   1     -39.269  15.030  16.959  0.00  0.00    -0.304 OA
BRANCH  22  23
ATOM     23  C   UNL d   1     -39.903  15.059  16.436  0.00  0.00     0.123 C 
BRANCH  23  24
ATOM     24  C   UNL d   1     -40.510  15.594  16.552  0.00  0.00     0.027 C 
BRANCH  24  25
ATOM     25  C   UNL d   1     -41.301  15.338  16.579  0.00  0.00     0.002 C 
ATOM     26  C   UNL d   1     -41.907  15.896  16.540  0.00  0.00     0.000 C 
ENDBRANCH  24  25
ENDBRANCH  23  24
ENDBRANCH  22  23
ENDBRANCH  17  22
ENDBRANCH   2  16
TORSDOF 10
ENDMDL
MODEL 8
REMARK VINA RESULT:      -3.2      5.858      8.813
REMARK  10 active torsions:
REMARK  status: ('A' for Active; 'I' for Inactive)
REMARK    1  A    between atoms: C_14  and  N_1 
REMARK    2  A    between atoms: N_9  and  C_2 
REMARK    3  A    between atoms: C_6  and  C_5 
REMARK    4  A    between atoms: C_7  and  C_6 
REMARK       I    between atoms: N_8  and  C_7 
REMARK    5  A    between atoms: C_10  and  N_8 
REMARK    6  A    between atoms: C_16  and  N_9 
REMARK    7  A    between atoms: O_15  and  C_13 
REMARK    8  A    between atoms: C_19  and  O_15 
REMARK    9  A    between atoms: C_21  and  C_19 
REMARK   10  A    between atoms: C_22  and  C_21 
ROOT
ATOM      1  C   UNL d   1     -40.142  15.320  19.504  0.00  0.00     0.280 C 
ATOM      2  N   UNL d   1     -40.455  15.189  20.254  0.00  0.00    -0.206 NA
ATOM      3  O   UNL d   1     -39.428  14.974  19.290  0.00  0.00    -0.265 OA
ENDROOT
BRANCH   1   4
ATOM      4  C   UNL d   1     -40.551  15.800  18.973  0.00  0.00     0.074 C 
BRANCH   4   5
ATOM      5  C   UNL d   1     -40.428  15.729  18.163  0.00  0.00     0.093 A 
ATOM      6  C   UNL d   1     -41.004  15.785  17.578  0.00  0.00     0.272 A 
ATOM      7  N   UNL d   1     -40.638  15.680  16.849  0.00  0.00    -0.252 N 
ATOM      8  O   UNL d   1     -41.805  15.921  17.699  0.00  0.00    -0.266 OA
ATOM      9  C   UNL d   1     -39.836  15.560  16.982  0.00  0.00     0.182 A 
ATOM     10  S   UNL d   1     -39.699  15.589  17.798  0.00  0.00    -0.045 SA
BRANCH   7  11
ATOM     11  C   UNL d   1     -41.005  15.693  16.113  0.00  0.00     0.085 C 
ATOM     12  C   UNL d   1     -41.833  15.687  16.069  0.00  0.00     0.021 C 
ENDBRANCH   7  11
BRANCH   9  13
ATOM     13  N   UNL d   1     -39.259  15.431  16.404  0.00  0.00    -0.221 NA
BRANCH  13  14
ATOM     14  C   UNL d   1     -38.644  14.909  16.551  0.00  0.00     0.101 C 
ATOM     15  C   UNL d   1     -38.065  14.782  15.983  0.00  0.00     0.022 C 
ENDBRANCH  13  14
ENDBRANCH   9  13
ENDBRANCH   4   5
ENDBRANCH   1   4
BRANCH   2  16
ATOM     16  C   UNL d   1     -40.056  14.712  20.790  0.00  0.00     0.107 A 
ATOM     17  C   UNL d   1     -40.467  14.127  21.215  0.00  0.00     0.118 A 
ATOM     18  C   UNL d   1     -40.062  13.649  21.754  0.00  0.00     0.026 A 
ATOM     19  C   UNL d   1     -39.251  13.757  21.865  0.00  0.00     0.002 A 
ATOM     20  C   UNL d   1     -38.844  14.336  21.444  0.00  0.00     0.002 A 
ATOM     21  C   UNL d   1     -39.244  14.813  20.908  0.00  0.00     0.021 A 
BRANCH  17  22
ATOM     22  O   UNL d   1     -41.274  14.025  21.100  0.00  0.00    -0.304 OA
BRANCH  22  23
ATOM     23  C   UNL d   1     -41.642  13.340  21.370  0.00  0.00     0.123 C 
BRANCH  23  24
ATOM     24  C   UNL d   1     -42.356  13.102  21.051  0.00  0.00     0.027 C 
BRANCH  24  25
ATOM     25  C   UNL d   1     -42.950  12.779  21.536  0.00  0.00     0.002 C 
ATOM     26  C   UNL d   1     -43.741  12.889  21.333  0.00  0.00     0.000 C 
ENDBRANCH  24  25
ENDBRANCH  23  24
ENDBRANCH  22  23
ENDBRANCH  17  22
ENDBRANCH   2  16
TORSDOF 10
ENDMDL
