MODEL 1
REMARK VINA RESULT:      84.9      0.000      0.000
REMARK  3 active torsions:
REMARK  status: ('A' for Active; 'I' for Inactive)
REMARK       I    between atoms: C_6  and  N_1 
REMARK    1  A    between atoms: C_11  and  C_5 
REMARK    2  A    between atoms: C_12  and  C_6 
REMARK    3  A    between atoms: C_27  and  N_10 
ROOT
ATOM      1  N   UNL d   1      13.877  14.818  -3.912  0.00  0.00    -0.264 N 
ATOM      2  C   UNL d   1      13.844  14.153  -3.415  0.00  0.00     0.198 A 
ATOM      3  C   UNL d   1      14.206  15.439  -3.474  0.00  0.00     0.138 A 
ATOM      4  N   UNL d   1      14.150  14.371  -2.685  0.00  0.00    -0.243 NA
ATOM      5  C   UNL d   1      14.375  15.163  -2.716  0.00  0.00     0.105 A 
ATOM      6  C   UNL d   1      13.631  14.852  -4.687  0.00  0.00     0.263 C 
ATOM      7  C   UNL d   1      13.841  13.536  -2.866  0.00  0.00     0.041 A 
ATOM      8  C   UNL d   1      13.558  14.031  -4.169  0.00  0.00     0.041 A 
ATOM      9  S   UNL d   1      14.343  16.211  -3.753  0.00  0.00    -0.058 SA
ATOM     10  N   UNL d   1      13.260  12.675  -3.851  0.00  0.00    -0.303 N 
ATOM     11  O   UNL d   1      13.311  14.179  -5.051  0.00  0.00    -0.267 OA
ATOM     12  C   UNL d   1      13.266  13.292  -4.387  0.00  0.00     0.080 A 
ATOM     13  C   UNL d   1      13.546  12.797  -3.096  0.00  0.00     0.080 A 
ENDROOT
BRANCH   6  14
ATOM     14  C   UNL d   1      13.699  15.552  -5.111  0.00  0.00     0.056 A 
ATOM     15  C   UNL d   1      13.094  16.101  -5.085  0.00  0.00     0.005 A 
ATOM     16  C   UNL d   1      13.159  16.805  -5.510  0.00  0.00     0.000 A 
ATOM     17  C   UNL d   1      13.833  16.957  -5.962  0.00  0.00     0.000 A 
ATOM     18  C   UNL d   1      14.446  16.398  -5.986  0.00  0.00     0.000 A 
ATOM     19  C   UNL d   1      13.895  17.664  -6.387  0.00  0.00     0.000 C 
ATOM     20  C   UNL d   1      14.378  15.698  -5.562  0.00  0.00     0.005 A 
ENDBRANCH   6  14
BRANCH   5  21
ATOM     21  C   UNL d   1      14.706  15.597  -2.102  0.00  0.00     0.020 A 
ATOM     22  C   UNL d   1      14.863  15.228  -1.373  0.00  0.00     0.004 A 
ATOM     23  C   UNL d   1      15.201  15.673  -0.748  0.00  0.00     0.030 A 
ATOM     24  C   UNL d   1      15.377  16.476  -0.864  0.00  0.00     0.140 A 
ATOM     25  C   UNL d   1      15.221  16.832  -1.582  0.00  0.00     0.030 A 
ATOM     26  F   UNL d   1      15.710  16.910  -0.247  0.00  0.00    -0.204 F 
ATOM     27  C   UNL d   1      14.889  16.411  -2.208  0.00  0.00     0.004 A 
ENDBRANCH   5  21
BRANCH  10  28
ATOM     28  C   UNL d   1      12.966  11.929  -4.070  0.00  0.00     0.080 C 
ATOM     29  C   UNL d   1      12.771  11.781  -4.861  0.00  0.00     0.021 C 
ENDBRANCH  10  28
TORSDOF 3
ENDMDL
MODEL 2
REMARK VINA RESULT:      86.2      1.469      3.414
REMARK  3 active torsions:
REMARK  status: ('A' for Active; 'I' for Inactive)
REMARK       I    between atoms: C_6  and  N_1 
REMARK    1  A    between atoms: C_11  and  C_5 
REMARK    2  A    between atoms: C_12  and  C_6 
REMARK    3  A    between atoms: C_27  and  N_10 
ROOT
ATOM      1  N   UNL d   1      14.353  14.298  -2.768  0.00  0.00    -0.264 N 
ATOM      2  C   UNL d   1      14.213  14.803  -3.414  0.00  0.00     0.198 A 
ATOM      3  C   UNL d   1      14.618  14.767  -2.139  0.00  0.00     0.138 A 
ATOM      4  N   UNL d   1      14.393  15.568  -3.176  0.00  0.00    -0.243 NA
ATOM      5  C   UNL d   1      14.643  15.551  -2.391  0.00  0.00     0.105 A 
ATOM      6  C   UNL d   1      14.247  13.492  -2.757  0.00  0.00     0.263 C 
ATOM      7  C   UNL d   1      14.097  15.362  -4.010  0.00  0.00     0.041 A 
ATOM      8  C   UNL d   1      14.061  14.015  -3.556  0.00  0.00     0.041 A 
ATOM      9  S   UNL d   1      14.825  14.492  -1.382  0.00  0.00    -0.058 SA
ATOM     10  N   UNL d   1      13.673  14.319  -4.892  0.00  0.00    -0.303 N 
ATOM     11  O   UNL d   1      13.976  13.098  -3.435  0.00  0.00    -0.267 OA
ATOM     12  C   UNL d   1      13.791  13.772  -4.296  0.00  0.00     0.080 A 
ATOM     13  C   UNL d   1      13.825  15.108  -4.750  0.00  0.00     0.080 A 
ENDROOT
BRANCH   6  14
ATOM     14  C   UNL d   1      14.409  13.064  -2.075  0.00  0.00     0.056 A 
ATOM     15  C   UNL d   1      14.005  13.235  -1.385  0.00  0.00     0.005 A 
ATOM     16  C   UNL d   1      14.165  12.807  -0.698  0.00  0.00     0.000 A 
ATOM     17  C   UNL d   1      14.732  12.207  -0.705  0.00  0.00     0.000 A 
ATOM     18  C   UNL d   1      15.140  12.035  -1.406  0.00  0.00     0.000 A 
ATOM     19  C   UNL d   1      14.890  11.780  -0.014  0.00  0.00     0.000 C 
ATOM     20  C   UNL d   1      14.979  12.463  -2.088  0.00  0.00     0.005 A 
ENDBRANCH   6  14
BRANCH   5  21
ATOM     21  C   UNL d   1      14.875  16.200  -1.943  0.00  0.00     0.020 A 
ATOM     22  C   UNL d   1      14.669  16.968  -2.189  0.00  0.00     0.004 A 
ATOM     23  C   UNL d   1      14.907  17.628  -1.730  0.00  0.00     0.030 A 
ATOM     24  C   UNL d   1      15.344  17.508  -1.035  0.00  0.00     0.140 A 
ATOM     25  C   UNL d   1      15.543  16.752  -0.799  0.00  0.00     0.030 A 
ATOM     26  F   UNL d   1      15.576  18.160  -0.587  0.00  0.00    -0.204 F 
ATOM     27  C   UNL d   1      15.318  16.092  -1.237  0.00  0.00     0.004 A 
ENDBRANCH   5  21
BRANCH  10  28
ATOM     28  C   UNL d   1      13.399  14.075  -5.639  0.00  0.00     0.080 C 
ATOM     29  C   UNL d   1      12.776  13.533  -5.692  0.00  0.00     0.021 C 
ENDBRANCH  10  28
TORSDOF 3
ENDMDL
MODEL 3
REMARK VINA RESULT:      87.5      2.278      5.009
REMARK  3 active torsions:
REMARK  status: ('A' for Active; 'I' for Inactive)
REMARK       I    between atoms: C_6  and  N_1 
REMARK    1  A    between atoms: C_11  and  C_5 
REMARK    2  A    between atoms: C_12  and  C_6 
REMARK    3  A    between atoms: C_27  and  N_10 
ROOT
ATOM      1  N   UNL d   1      14.747  15.182  -1.639  0.00  0.00    -0.264 N 
ATOM      2  C   UNL d   1      14.778  15.957  -1.940  0.00  0.00     0.198 A 
ATOM      3  C   UNL d   1      14.394  14.705  -2.217  0.00  0.00     0.138 A 
ATOM      4  N   UNL d   1      14.447  15.947  -2.692  0.00  0.00    -0.243 NA
ATOM      5  C   UNL d   1      14.209  15.177  -2.867  0.00  0.00     0.105 A 
ATOM      6  C   UNL d   1      15.014  14.939  -0.910  0.00  0.00     0.263 C 
ATOM      7  C   UNL d   1      14.775  16.699  -2.303  0.00  0.00     0.041 A 
ATOM      8  C   UNL d   1      15.086  15.868  -1.191  0.00  0.00     0.041 A 
ATOM      9  S   UNL d   1      14.251  13.889  -2.152  0.00  0.00    -0.058 SA
ATOM     10  N   UNL d   1      15.400  17.256  -1.142  0.00  0.00    -0.303 N 
ATOM     11  O   UNL d   1      15.356  15.486  -0.389  0.00  0.00    -0.267 OA
ATOM     12  C   UNL d   1      15.398  16.518  -0.791  0.00  0.00     0.080 A 
ATOM     13  C   UNL d   1      15.091  17.346  -1.892  0.00  0.00     0.080 A 
ENDROOT
BRANCH   6  14
ATOM     14  C   UNL d   1      14.945  14.151  -0.688  0.00  0.00     0.056 A 
ATOM     15  C   UNL d   1      14.286  13.904  -0.272  0.00  0.00     0.005 A 
ATOM     16  C   UNL d   1      14.214  13.114  -0.047  0.00  0.00     0.000 A 
ATOM     17  C   UNL d   1      14.806  12.571  -0.241  0.00  0.00     0.000 A 
ATOM     18  C   UNL d   1      15.473  12.824  -0.663  0.00  0.00     0.000 A 
ATOM     19  C   UNL d   1      14.731  11.779  -0.014  0.00  0.00     0.000 C 
ATOM     20  C   UNL d   1      15.542  13.612  -0.885  0.00  0.00     0.005 A 
ENDBRANCH   6  14
BRANCH   5  21
ATOM     21  C   UNL d   1      13.852  14.928  -3.564  0.00  0.00     0.020 A 
ATOM     22  C   UNL d   1      13.195  14.417  -3.532  0.00  0.00     0.004 A 
ATOM     23  C   UNL d   1      12.833  14.164  -4.245  0.00  0.00     0.030 A 
ATOM     24  C   UNL d   1      13.133  14.426  -4.973  0.00  0.00     0.140 A 
ATOM     25  C   UNL d   1      13.778  14.926  -4.997  0.00  0.00     0.030 A 
ATOM     26  F   UNL d   1      12.773  14.174  -5.672  0.00  0.00    -0.204 F 
ATOM     27  C   UNL d   1      14.147  15.185  -4.308  0.00  0.00     0.004 A 
ENDBRANCH   5  21
BRANCH  10  28
ATOM     28  C   UNL d   1      15.714  17.913  -0.739  0.00  0.00     0.080 C 
ATOM     29  C   UNL d   1      15.205  18.495  -0.443  0.00  0.00     0.021 C 
ENDBRANCH  10  28
TORSDOF 3
ENDMDL
