MODEL 1
REMARK VINA RESULT:      -9.6      0.000      0.000
REMARK  3 active torsions:
REMARK  status: ('A' for Active; 'I' for Inactive)
REMARK       I    between atoms: C_2  and  N_1 
REMARK    1  A    between atoms: C_4  and  C_2 
REMARK    2  A    between atoms: C_6  and  C_4 
REMARK    3  A    between atoms: C_10  and  C_6 
ROOT
ATOM      1  N   UNL d   1      52.992  33.303  53.687  0.00  0.00    -0.273 N 
ATOM      2  C   UNL d   1      53.424  32.646  53.908  0.00  0.00     0.265 C 
ATOM      3  C   UNL d   1      53.072  34.054  53.998  0.00  0.00     0.067 A 
ATOM      4  C   UNL d   1      52.403  33.321  53.113  0.00  0.00     0.083 A 
ATOM      5  C   UNL d   1      52.531  34.547  53.619  0.00  0.00     0.018 A 
ATOM      6  O   UNL d   1      54.000  32.707  54.493  0.00  0.00    -0.267 OA
ATOM      7  C   UNL d   1      52.115  34.097  53.071  0.00  0.00     0.021 A 
ATOM      8  C   UNL d   1      53.570  34.362  54.584  0.00  0.00     0.018 A 
ATOM      9  C   UNL d   1      52.485  35.348  53.823  0.00  0.00     0.002 A 
ATOM     10  C   UNL d   1      53.522  35.159  54.784  0.00  0.00     0.002 A 
ATOM     11  C   UNL d   1      52.980  35.656  54.405  0.00  0.00     0.000 A 
ENDROOT
BRANCH   2  12
ATOM     12  C   UNL d   1      53.286  31.919  53.546  0.00  0.00     0.061 C 
BRANCH  12  13
ATOM     13  C   UNL d   1      53.753  31.266  53.730  0.00  0.00     0.005 C 
BRANCH  13  14
ATOM     14  C   UNL d   1      53.439  30.511  53.664  0.00  0.00     0.002 A 
ATOM     15  C   UNL d   1      53.563  29.959  54.264  0.00  0.00     0.030 A 
ATOM     16  C   UNL d   1      53.248  29.195  54.202  0.00  0.00     0.140 A 
ATOM     17  F   UNL d   1      53.373  28.647  54.800  0.00  0.00    -0.204 F 
ATOM     18  C   UNL d   1      52.807  28.986  53.533  0.00  0.00     0.030 A 
ATOM     19  C   UNL d   1      52.683  29.542  52.932  0.00  0.00     0.002 A 
ATOM     20  C   UNL d   1      52.998  30.302  52.996  0.00  0.00     0.000 A 
ENDBRANCH  13  14
ENDBRANCH  12  13
ENDBRANCH   2  12
TORSDOF 3
ENDMDL
MODEL 2
REMARK VINA RESULT:      -9.2      2.746      4.320
REMARK  3 active torsions:
REMARK  status: ('A' for Active; 'I' for Inactive)
REMARK       I    between atoms: C_2  and  N_1 
REMARK    1  A    between atoms: C_4  and  C_2 
REMARK    2  A    between atoms: C_6  and  C_4 
REMARK    3  A    between atoms: C_10  and  C_6 
ROOT
ATOM      1  N   UNL d   1      52.775  34.056  53.941  0.00  0.00    -0.273 N 
ATOM      2  C   UNL d   1      52.236  33.696  53.444  0.00  0.00     0.265 C 
ATOM      3  C   UNL d   1      53.424  33.696  54.283  0.00  0.00     0.067 A 
ATOM      4  C   UNL d   1      52.756  34.842  54.184  0.00  0.00     0.083 A 
ATOM      5  C   UNL d   1      53.816  34.257  54.742  0.00  0.00     0.018 A 
ATOM      6  O   UNL d   1      52.321  32.901  53.246  0.00  0.00    -0.267 OA
ATOM      7  C   UNL d   1      53.406  34.967  54.683  0.00  0.00     0.021 A 
ATOM      8  C   UNL d   1      53.717  32.923  54.238  0.00  0.00     0.018 A 
ATOM      9  C   UNL d   1      54.501  34.049  55.157  0.00  0.00     0.002 A 
ATOM     10  C   UNL d   1      54.398  32.719  54.653  0.00  0.00     0.002 A 
ATOM     11  C   UNL d   1      54.794  33.280  55.114  0.00  0.00     0.000 A 
ENDROOT
BRANCH   2  12
ATOM     12  C   UNL d   1      51.604  34.126  53.138  0.00  0.00     0.061 C 
BRANCH  12  13
ATOM     13  C   UNL d   1      50.989  33.744  52.746  0.00  0.00     0.005 C 
BRANCH  13  14
ATOM     14  C   UNL d   1      50.334  34.173  52.502  0.00  0.00     0.002 A 
ATOM     15  C   UNL d   1      50.102  34.157  51.711  0.00  0.00     0.030 A 
ATOM     16  C   UNL d   1      49.441  34.589  51.460  0.00  0.00     0.140 A 
ATOM     17  F   UNL d   1      49.211  34.573  50.672  0.00  0.00    -0.204 F 
ATOM     18  C   UNL d   1      49.011  35.038  52.008  0.00  0.00     0.030 A 
ATOM     19  C   UNL d   1      49.246  35.052  52.802  0.00  0.00     0.002 A 
ATOM     20  C   UNL d   1      49.905  34.621  53.049  0.00  0.00     0.000 A 
ENDBRANCH  13  14
ENDBRANCH  12  13
ENDBRANCH   2  12
TORSDOF 3
ENDMDL
MODEL 3
REMARK VINA RESULT:      -8.9      2.700      4.410
REMARK  3 active torsions:
REMARK  status: ('A' for Active; 'I' for Inactive)
REMARK       I    between atoms: C_2  and  N_1 
REMARK    1  A    between atoms: C_4  and  C_2 
REMARK    2  A    between atoms: C_6  and  C_4 
REMARK    3  A    between atoms: C_10  and  C_6 
ROOT
ATOM      1  N   UNL d   1      52.593  33.444  53.500  0.00  0.00    -0.273 N 
ATOM      2  C   UNL d   1      52.057  34.059  53.460  0.00  0.00     0.265 C 
ATOM      3  C   UNL d   1      53.259  33.422  53.972  0.00  0.00     0.067 A 
ATOM      4  C   UNL d   1      52.553  32.742  53.073  0.00  0.00     0.083 A 
ATOM      5  C   UNL d   1      53.641  32.703  53.842  0.00  0.00     0.018 A 
ATOM      6  O   UNL d   1      52.164  34.733  53.920  0.00  0.00    -0.267 OA
ATOM      7  C   UNL d   1      53.208  32.280  53.287  0.00  0.00     0.021 A 
ATOM      8  C   UNL d   1      53.576  33.965  54.511  0.00  0.00     0.018 A 
ATOM      9  C   UNL d   1      54.340  32.524  54.248  0.00  0.00     0.002 A 
ATOM     10  C   UNL d   1      54.271  33.784  54.913  0.00  0.00     0.002 A 
ATOM     11  C   UNL d   1      54.656  33.063  54.785  0.00  0.00     0.000 A 
ENDROOT
BRANCH   2  12
ATOM     12  C   UNL d   1      51.406  34.009  52.957  0.00  0.00     0.061 C 
BRANCH  12  13
ATOM     13  C   UNL d   1      50.777  34.534  53.035  0.00  0.00     0.005 C 
BRANCH  13  14
ATOM     14  C   UNL d   1      50.185  34.546  52.467  0.00  0.00     0.002 A 
ATOM     15  C   UNL d   1      49.454  34.885  52.639  0.00  0.00     0.030 A 
ATOM     16  C   UNL d   1      48.854  34.900  52.068  0.00  0.00     0.140 A 
ATOM     17  F   UNL d   1      48.126  35.238  52.242  0.00  0.00    -0.204 F 
ATOM     18  C   UNL d   1      48.991  34.573  51.320  0.00  0.00     0.030 A 
ATOM     19  C   UNL d   1      49.726  34.233  51.149  0.00  0.00     0.002 A 
ATOM     20  C   UNL d   1      50.322  34.219  51.719  0.00  0.00     0.000 A 
ENDBRANCH  13  14
ENDBRANCH  12  13
ENDBRANCH   2  12
TORSDOF 3
ENDMDL
MODEL 4
REMARK VINA RESULT:      -8.7      1.733      4.561
REMARK  3 active torsions:
REMARK  status: ('A' for Active; 'I' for Inactive)
REMARK       I    between atoms: C_2  and  N_1 
REMARK    1  A    between atoms: C_4  and  C_2 
REMARK    2  A    between atoms: C_6  and  C_4 
REMARK    3  A    between atoms: C_10  and  C_6 
ROOT
ATOM      1  N   UNL d   1      53.267  31.203  53.694  0.00  0.00    -0.273 N 
ATOM      2  C   UNL d   1      53.569  31.817  54.140  0.00  0.00     0.265 C 
ATOM      3  C   UNL d   1      53.263  30.414  53.909  0.00  0.00     0.067 A 
ATOM      4  C   UNL d   1      52.915  31.272  52.954  0.00  0.00     0.083 A 
ATOM      5  C   UNL d   1      52.908  29.986  53.301  0.00  0.00     0.018 A 
ATOM      6  O   UNL d   1      53.907  31.668  54.876  0.00  0.00    -0.267 OA
ATOM      7  C   UNL d   1      52.691  30.512  52.709  0.00  0.00     0.021 A 
ATOM      8  C   UNL d   1      53.539  30.021  54.584  0.00  0.00     0.018 A 
ATOM      9  C   UNL d   1      52.827  29.164  53.365  0.00  0.00     0.002 A 
ATOM     10  C   UNL d   1      53.456  29.204  54.644  0.00  0.00     0.002 A 
ATOM     11  C   UNL d   1      53.100  28.772  54.035  0.00  0.00     0.000 A 
ENDROOT
BRANCH   2  12
ATOM     12  C   UNL d   1      53.536  32.590  53.856  0.00  0.00     0.061 C 
BRANCH  12  13
ATOM     13  C   UNL d   1      53.804  33.216  54.318  0.00  0.00     0.005 C 
BRANCH  13  14
ATOM     14  C   UNL d   1      53.478  33.962  54.218  0.00  0.00     0.002 A 
ATOM     15  C   UNL d   1      53.216  34.203  53.474  0.00  0.00     0.030 A 
ATOM     16  C   UNL d   1      52.886  34.955  53.369  0.00  0.00     0.140 A 
ATOM     17  F   UNL d   1      52.626  35.193  52.627  0.00  0.00    -0.204 F 
ATOM     18  C   UNL d   1      52.820  35.468  54.015  0.00  0.00     0.030 A 
ATOM     19  C   UNL d   1      53.083  35.225  54.762  0.00  0.00     0.002 A 
ATOM     20  C   UNL d   1      53.411  34.475  54.864  0.00  0.00     0.000 A 
ENDBRANCH  13  14
ENDBRANCH  12  13
ENDBRANCH   2  12
TORSDOF 3
ENDMDL
MODEL 5
REMARK VINA RESULT:      -8.5      4.197      5.489
REMARK  3 active torsions:
REMARK  status: ('A' for Active; 'I' for Inactive)
REMARK       I    between atoms: C_2  and  N_1 
REMARK    1  A    between atoms: C_4  and  C_2 
REMARK    2  A    between atoms: C_6  and  C_4 
REMARK    3  A    between atoms: C_10  and  C_6 
ROOT
ATOM      1  N   UNL d   1      48.528  35.483  52.756  0.00  0.00    -0.273 N 
ATOM      2  C   UNL d   1      49.062  34.986  52.390  0.00  0.00     0.265 C 
ATOM      3  C   UNL d   1      47.817  35.734  52.441  0.00  0.00     0.067 A 
ATOM      4  C   UNL d   1      48.613  35.817  53.503  0.00  0.00     0.083 A 
ATOM      5  C   UNL d   1      47.453  36.227  52.992  0.00  0.00     0.018 A 
ATOM      6  O   UNL d   1      48.907  34.690  51.638  0.00  0.00    -0.267 OA
ATOM      7  C   UNL d   1      47.942  36.282  53.650  0.00  0.00     0.021 A 
ATOM      8  C   UNL d   1      47.444  35.578  51.717  0.00  0.00     0.018 A 
ATOM      9  C   UNL d   1      46.717  36.567  52.822  0.00  0.00     0.002 A 
ATOM     10  C   UNL d   1      46.713  35.918  51.553  0.00  0.00     0.002 A 
ATOM     11  C   UNL d   1      46.345  36.414  52.103  0.00  0.00     0.000 A 
ENDROOT
BRANCH   2  12
ATOM     12  C   UNL d   1      49.762  34.777  52.773  0.00  0.00     0.061 C 
BRANCH  12  13
ATOM     13  C   UNL d   1      50.312  34.290  52.402  0.00  0.00     0.005 C 
BRANCH  13  14
ATOM     14  C   UNL d   1      51.023  34.122  52.775  0.00  0.00     0.002 A 
ATOM     15  C   UNL d   1      51.665  34.633  52.690  0.00  0.00     0.030 A 
ATOM     16  C   UNL d   1      52.384  34.467  53.064  0.00  0.00     0.140 A 
ATOM     17  F   UNL d   1      53.022  34.977  52.978  0.00  0.00    -0.204 F 
ATOM     18  C   UNL d   1      52.459  33.784  53.527  0.00  0.00     0.030 A 
ATOM     19  C   UNL d   1      51.813  33.273  53.612  0.00  0.00     0.002 A 
ATOM     20  C   UNL d   1      51.097  33.439  53.238  0.00  0.00     0.000 A 
ENDBRANCH  13  14
ENDBRANCH  12  13
ENDBRANCH   2  12
TORSDOF 3
ENDMDL
MODEL 6
REMARK VINA RESULT:      -8.2      2.320      3.781
REMARK  3 active torsions:
REMARK  status: ('A' for Active; 'I' for Inactive)
REMARK       I    between atoms: C_2  and  N_1 
REMARK    1  A    between atoms: C_4  and  C_2 
REMARK    2  A    between atoms: C_6  and  C_4 
REMARK    3  A    between atoms: C_10  and  C_6 
ROOT
ATOM      1  N   UNL d   1      50.668  34.337  52.688  0.00  0.00    -0.273 N 
ATOM      2  C   UNL d   1      51.412  34.016  52.582  0.00  0.00     0.265 C 
ATOM      3  C   UNL d   1      50.097  34.418  52.110  0.00  0.00     0.067 A 
ATOM      4  C   UNL d   1      50.368  34.633  53.395  0.00  0.00     0.083 A 
ATOM      5  C   UNL d   1      49.433  34.766  52.454  0.00  0.00     0.018 A 
ATOM      6  O   UNL d   1      51.642  33.739  51.842  0.00  0.00    -0.267 OA
ATOM      7  C   UNL d   1      49.597  34.901  53.248  0.00  0.00     0.021 A 
ATOM      8  C   UNL d   1      50.088  34.219  51.306  0.00  0.00     0.018 A 
ATOM      9  C   UNL d   1      48.760  34.918  51.996  0.00  0.00     0.002 A 
ATOM     10  C   UNL d   1      49.417  34.372  50.855  0.00  0.00     0.002 A 
ATOM     11  C   UNL d   1      48.750  34.721  51.196  0.00  0.00     0.000 A 
ENDROOT
BRANCH   2  12
ATOM     12  C   UNL d   1      51.936  33.967  53.217  0.00  0.00     0.061 C 
BRANCH  12  13
ATOM     13  C   UNL d   1      52.698  33.677  53.107  0.00  0.00     0.005 C 
BRANCH  13  14
ATOM     14  C   UNL d   1      53.179  33.541  53.758  0.00  0.00     0.002 A 
ATOM     15  C   UNL d   1      53.321  32.769  54.012  0.00  0.00     0.030 A 
ATOM     16  C   UNL d   1      53.805  32.628  54.668  0.00  0.00     0.140 A 
ATOM     17  F   UNL d   1      53.946  31.859  54.920  0.00  0.00    -0.204 F 
ATOM     18  C   UNL d   1      54.148  33.265  55.071  0.00  0.00     0.030 A 
ATOM     19  C   UNL d   1      54.004  34.039  54.815  0.00  0.00     0.002 A 
ATOM     20  C   UNL d   1      53.522  34.178  54.161  0.00  0.00     0.000 A 
ENDBRANCH  13  14
ENDBRANCH  12  13
ENDBRANCH   2  12
TORSDOF 3
ENDMDL
MODEL 7
REMARK VINA RESULT:      -7.0      2.435      4.697
REMARK  3 active torsions:
REMARK  status: ('A' for Active; 'I' for Inactive)
REMARK       I    between atoms: C_2  and  N_1 
REMARK    1  A    between atoms: C_4  and  C_2 
REMARK    2  A    between atoms: C_6  and  C_4 
REMARK    3  A    between atoms: C_10  and  C_6 
ROOT
ATOM      1  N   UNL d   1      52.684  32.416  53.333  0.00  0.00    -0.273 N 
ATOM      2  C   UNL d   1      52.072  32.671  52.857  0.00  0.00     0.265 C 
ATOM      3  C   UNL d   1      53.023  31.673  53.318  0.00  0.00     0.067 A 
ATOM      4  C   UNL d   1      53.064  32.864  53.909  0.00  0.00     0.083 A 
ATOM      5  C   UNL d   1      53.619  31.652  53.887  0.00  0.00     0.018 A 
ATOM      6  O   UNL d   1      51.741  32.163  52.300  0.00  0.00    -0.267 OA
ATOM      7  C   UNL d   1      53.648  32.386  54.255  0.00  0.00     0.021 A 
ATOM      8  C   UNL d   1      52.868  31.002  52.858  0.00  0.00     0.018 A 
ATOM      9  C   UNL d   1      54.062  30.961  53.999  0.00  0.00     0.002 A 
ATOM     10  C   UNL d   1      53.311  30.317  52.972  0.00  0.00     0.002 A 
ATOM     11  C   UNL d   1      53.910  30.293  53.542  0.00  0.00     0.000 A 
ENDROOT
BRANCH   2  12
ATOM     12  C   UNL d   1      51.782  33.439  52.931  0.00  0.00     0.061 C 
BRANCH  12  13
ATOM     13  C   UNL d   1      51.387  33.798  52.304  0.00  0.00     0.005 C 
BRANCH  13  14
ATOM     14  C   UNL d   1      50.702  34.227  52.449  0.00  0.00     0.002 A 
ATOM     15  C   UNL d   1      50.119  34.282  51.868  0.00  0.00     0.030 A 
ATOM     16  C   UNL d   1      49.427  34.714  52.010  0.00  0.00     0.140 A 
ATOM     17  F   UNL d   1      48.847  34.767  51.430  0.00  0.00    -0.204 F 
ATOM     18  C   UNL d   1      49.320  35.091  52.739  0.00  0.00     0.030 A 
ATOM     19  C   UNL d   1      49.906  35.035  53.321  0.00  0.00     0.002 A 
ATOM     20  C   UNL d   1      50.595  34.604  53.178  0.00  0.00     0.000 A 
ENDBRANCH  13  14
ENDBRANCH  12  13
ENDBRANCH   2  12
TORSDOF 3
ENDMDL
