MODEL 1
REMARK VINA RESULT:      30.2      0.000      0.000
REMARK  3 active torsions:
REMARK  status: ('A' for Active; 'I' for Inactive)
REMARK    1  A    between atoms: C_9  and  C_1 
REMARK    2  A    between atoms: C_11  and  N_5 
REMARK    3  A    between atoms: N_8  and  C_9 
ROOT
ATOM      1  N   UNL d   1      45.616 -15.309  44.425  0.00  0.00    -0.301 N 
ATOM      2  N   UNL d   1      46.047 -16.868  44.777  0.00  0.00    -0.300 N 
ATOM      3  C   UNL d   1      45.048 -15.915  44.400  0.00  0.00     0.100 A 
ATOM      4  C   UNL d   1      46.400 -15.487  44.627  0.00  0.00     0.100 A 
ATOM      5  C   UNL d   1      45.264 -16.703  44.578  0.00  0.00     0.100 A 
ATOM      6  C   UNL d   1      46.603 -16.259  44.799  0.00  0.00     0.100 A 
ENDROOT
BRANCH   2   7
ATOM      7  C   UNL d   1      46.270 -17.646  44.955  0.00  0.00     0.084 C 
BRANCH   7   8
ATOM      8  C   UNL d   1      46.266 -18.202  44.352  0.00  0.00     0.059 A 
ATOM      9  C   UNL d   1      46.457 -17.956  43.585  0.00  0.00     0.214 A 
ATOM     10  C   UNL d   1      46.455 -18.516  42.967  0.00  0.00     0.121 A 
ATOM     11  O   UNL d   1      46.646 -17.177  43.426  0.00  0.00    -0.285 OA
ATOM     12  N   UNL d   1      46.646 -18.270  42.200  0.00  0.00    -0.241 NA
ATOM     13  C   UNL d   1      46.265 -19.304  43.120  0.00  0.00     0.032 A 
ATOM     14  C   UNL d   1      46.643 -18.829  41.585  0.00  0.00     0.099 A 
ATOM     15  C   UNL d   1      46.453 -19.617  41.738  0.00  0.00     0.021 A 
ATOM     16  C   UNL d   1      46.266 -19.846  42.505  0.00  0.00     0.004 A 
ATOM     17  C   UNL d   1      46.078 -19.534  43.883  0.00  0.00     0.059 A 
ATOM     18  C   UNL d   1      46.076 -18.990  44.505  0.00  0.00     0.016 A 
ATOM     19 CL   UNL d   1      45.886 -20.330  44.037  0.00  0.00    -0.082 Cl
ENDBRANCH   7   8
ENDBRANCH   2   7
BRANCH   1  20
ATOM     20  C   UNL d   1      45.399 -14.542  44.250  0.00  0.00     0.064 A 
ATOM     21  C   UNL d   1      45.982 -13.977  44.109  0.00  0.00     0.020 A 
ATOM     22  C   UNL d   1      45.769 -13.195  43.931  0.00  0.00     0.031 A 
ATOM     23  C   UNL d   1      44.964 -12.982  43.895  0.00  0.00     0.140 A 
ATOM     24  C   UNL d   1      44.388 -13.556  44.039  0.00  0.00     0.031 A 
ATOM     25  F   UNL d   1      44.758 -12.209  43.719  0.00  0.00    -0.204 F 
ATOM     26  C   UNL d   1      44.607 -14.333  44.215  0.00  0.00     0.020 A 
ENDBRANCH   1  20
TORSDOF 3
ENDMDL
