MODEL 1
REMARK VINA RESULT:      -8.9      0.000      0.000
REMARK  7 active torsions:
REMARK  status: ('A' for Active; 'I' for Inactive)
REMARK    1  A    between atoms: C_6  and  N_2 
REMARK    2  A    between atoms: C_7  and  C_3 
REMARK    3  A    between atoms: C_10  and  C_6 
REMARK    4  A    between atoms: C_17  and  C_7 
REMARK    5  A    between atoms: O_8  and  C_10 
REMARK    6  A    between atoms: C_9  and  O_8 
REMARK    7  A    between atoms: C_14  and  C_17 
ROOT
ATOM      1  N   UNL d   1      54.049  31.255  54.405  0.00  0.00    -0.227 NA
ATOM      2  N   UNL d   1      53.386  32.103  53.612  0.00  0.00    -0.287 N 
ATOM      3  C   UNL d   1      53.933  32.068  54.245  0.00  0.00     0.148 A 
ATOM      4  C   UNL d   1      53.179  31.339  53.398  0.00  0.00     0.083 A 
ATOM      5  C   UNL d   1      53.606  30.793  53.909  0.00  0.00     0.099 A 
ATOM      6  C   UNL d   1      52.673  31.066  52.822  0.00  0.00     0.019 A 
ATOM      7  C   UNL d   1      53.463  29.983  53.770  0.00  0.00     0.021 A 
ATOM      8  C   UNL d   1      52.584  30.265  52.745  0.00  0.00     0.002 A 
ATOM      9  C   UNL d   1      52.985  29.752  53.224  0.00  0.00     0.002 A 
ENDROOT
BRANCH   2  10
ATOM     10  C   UNL d   1      53.206  32.847  53.381  0.00  0.00     0.108 C 
BRANCH  10  11
ATOM     11  C   UNL d   1      52.463  33.054  53.106  0.00  0.00     0.142 C 
BRANCH  11  12
ATOM     12  O   UNL d   1      52.271  33.810  52.865  0.00  0.00    -0.304 OA
BRANCH  12  13
ATOM     13  C   UNL d   1      51.506  34.042  52.663  0.00  0.00     0.100 A 
ATOM     14  C   UNL d   1      50.925  34.232  53.216  0.00  0.00     0.025 A 
ATOM     15  C   UNL d   1      50.161  34.463  53.013  0.00  0.00     0.002 A 
ATOM     16  C   UNL d   1      49.965  34.507  52.205  0.00  0.00     0.000 A 
ATOM     17  C   UNL d   1      50.537  34.319  51.624  0.00  0.00     0.002 A 
ATOM     18  C   UNL d   1      51.309  34.086  51.855  0.00  0.00     0.025 A 
ENDBRANCH  12  13
ENDBRANCH  11  12
ENDBRANCH  10  11
ENDBRANCH   2  10
BRANCH   3  19
ATOM     19  C   UNL d   1      54.024  32.866  54.325  0.00  0.00     0.041 C 
BRANCH  19  20
ATOM     20  C   UNL d   1      54.428  33.171  54.992  0.00  0.00     0.049 C 
BRANCH  20  21
ATOM     21  C   UNL d   1      55.001  33.771  54.904  0.00  0.00     0.234 C 
ATOM     22  O   UNL d   1      55.398  34.076  55.570  0.00  0.00    -0.283 OA
ENDBRANCH  20  21
ENDBRANCH  19  20
ENDBRANCH   3  19
TORSDOF 7
ENDMDL
MODEL 2
REMARK VINA RESULT:      -8.4      1.098      3.695
REMARK  7 active torsions:
REMARK  status: ('A' for Active; 'I' for Inactive)
REMARK    1  A    between atoms: C_6  and  N_2 
REMARK    2  A    between atoms: C_7  and  C_3 
REMARK    3  A    between atoms: C_10  and  C_6 
REMARK    4  A    between atoms: C_17  and  C_7 
REMARK    5  A    between atoms: O_8  and  C_10 
REMARK    6  A    between atoms: C_9  and  O_8 
REMARK    7  A    between atoms: C_14  and  C_17 
ROOT
ATOM      1  N   UNL d   1      52.580  34.657  53.985  0.00  0.00    -0.227 NA
ATOM      2  N   UNL d   1      52.897  33.443  53.525  0.00  0.00    -0.287 N 
ATOM      3  C   UNL d   1      53.148  34.046  54.049  0.00  0.00     0.148 A 
ATOM      4  C   UNL d   1      52.203  33.681  53.159  0.00  0.00     0.083 A 
ATOM      5  C   UNL d   1      51.999  34.464  53.456  0.00  0.00     0.099 A 
ATOM      6  C   UNL d   1      51.735  33.306  52.609  0.00  0.00     0.019 A 
ATOM      7  C   UNL d   1      51.302  34.797  53.142  0.00  0.00     0.021 A 
ATOM      8  C   UNL d   1      51.072  33.692  52.349  0.00  0.00     0.002 A 
ATOM      9  C   UNL d   1      50.881  34.426  52.628  0.00  0.00     0.002 A 
ENDROOT
BRANCH   2  10
ATOM     10  C   UNL d   1      53.379  32.805  53.511  0.00  0.00     0.108 C 
BRANCH  10  11
ATOM     11  C   UNL d   1      53.099  32.045  53.399  0.00  0.00     0.142 C 
BRANCH  11  12
ATOM     12  O   UNL d   1      53.588  31.395  53.323  0.00  0.00    -0.304 OA
BRANCH  12  13
ATOM     13  C   UNL d   1      53.335  30.620  53.444  0.00  0.00     0.100 A 
ATOM     14  C   UNL d   1      52.820  30.222  52.937  0.00  0.00     0.025 A 
ATOM     15  C   UNL d   1      52.568  29.448  53.059  0.00  0.00     0.002 A 
ATOM     16  C   UNL d   1      52.848  29.044  53.731  0.00  0.00     0.000 A 
ATOM     17  C   UNL d   1      53.372  29.425  54.261  0.00  0.00     0.002 A 
ATOM     18  C   UNL d   1      53.615  30.215  54.116  0.00  0.00     0.025 A 
ENDBRANCH  12  13
ENDBRANCH  11  12
ENDBRANCH  10  11
ENDBRANCH   2  10
BRANCH   3  19
ATOM     19  C   UNL d   1      53.810  33.664  54.309  0.00  0.00     0.041 C 
BRANCH  19  20
ATOM     20  C   UNL d   1      54.322  34.048  54.850  0.00  0.00     0.049 C 
BRANCH  20  21
ATOM     21  C   UNL d   1      54.975  33.645  55.176  0.00  0.00     0.234 C 
ATOM     22  O   UNL d   1      55.597  34.068  55.532  0.00  0.00    -0.283 OA
ENDBRANCH  20  21
ENDBRANCH  19  20
ENDBRANCH   3  19
TORSDOF 7
ENDMDL
MODEL 3
REMARK VINA RESULT:      -8.0      1.159      2.688
REMARK  7 active torsions:
REMARK  status: ('A' for Active; 'I' for Inactive)
REMARK    1  A    between atoms: C_6  and  N_2 
REMARK    2  A    between atoms: C_7  and  C_3 
REMARK    3  A    between atoms: C_10  and  C_6 
REMARK    4  A    between atoms: C_17  and  C_7 
REMARK    5  A    between atoms: O_8  and  C_10 
REMARK    6  A    between atoms: C_9  and  O_8 
REMARK    7  A    between atoms: C_14  and  C_17 
ROOT
ATOM      1  N   UNL d   1      54.181  32.006  54.536  0.00  0.00    -0.227 NA
ATOM      2  N   UNL d   1      53.328  32.666  53.746  0.00  0.00    -0.287 N 
ATOM      3  C   UNL d   1      53.614  31.900  53.931  0.00  0.00     0.148 A 
ATOM      4  C   UNL d   1      53.710  33.213  54.222  0.00  0.00     0.083 A 
ATOM      5  C   UNL d   1      54.260  32.788  54.732  0.00  0.00     0.099 A 
ATOM      6  C   UNL d   1      53.638  34.023  54.266  0.00  0.00     0.019 A 
ATOM      7  C   UNL d   1      54.701  33.260  55.259  0.00  0.00     0.021 A 
ATOM      8  C   UNL d   1      54.100  34.415  54.803  0.00  0.00     0.002 A 
ATOM      9  C   UNL d   1      54.616  34.017  55.281  0.00  0.00     0.002 A 
ENDROOT
BRANCH   2  10
ATOM     10  C   UNL d   1      52.773  32.674  53.171  0.00  0.00     0.108 C 
BRANCH  10  11
ATOM     11  C   UNL d   1      52.194  33.250  53.127  0.00  0.00     0.142 C 
BRANCH  11  12
ATOM     12  O   UNL d   1      51.792  33.428  52.438  0.00  0.00    -0.304 OA
BRANCH  12  13
ATOM     13  C   UNL d   1      51.084  33.850  52.422  0.00  0.00     0.100 A 
ATOM     14  C   UNL d   1      50.680  34.091  53.099  0.00  0.00     0.025 A 
ATOM     15  C   UNL d   1      49.973  34.512  53.082  0.00  0.00     0.002 A 
ATOM     16  C   UNL d   1      49.647  34.705  52.341  0.00  0.00     0.000 A 
ATOM     17  C   UNL d   1      50.038  34.471  51.638  0.00  0.00     0.002 A 
ATOM     18  C   UNL d   1      50.758  34.042  51.680  0.00  0.00     0.025 A 
ENDBRANCH  12  13
ENDBRANCH  11  12
ENDBRANCH  10  11
ENDBRANCH   2  10
BRANCH   3  19
ATOM     19  C   UNL d   1      53.155  31.505  53.397  0.00  0.00     0.041 C 
BRANCH  19  20
ATOM     20  C   UNL d   1      53.263  30.682  53.289  0.00  0.00     0.049 C 
BRANCH  20  21
ATOM     21  C   UNL d   1      52.641  30.206  53.003  0.00  0.00     0.234 C 
ATOM     22  O   UNL d   1      52.585  29.405  53.225  0.00  0.00    -0.283 OA
ENDBRANCH  20  21
ENDBRANCH  19  20
ENDBRANCH   3  19
TORSDOF 7
ENDMDL
MODEL 4
REMARK VINA RESULT:      -8.0      1.401      4.102
REMARK  7 active torsions:
REMARK  status: ('A' for Active; 'I' for Inactive)
REMARK    1  A    between atoms: C_6  and  N_2 
REMARK    2  A    between atoms: C_7  and  C_3 
REMARK    3  A    between atoms: C_10  and  C_6 
REMARK    4  A    between atoms: C_17  and  C_7 
REMARK    5  A    between atoms: O_8  and  C_10 
REMARK    6  A    between atoms: C_9  and  O_8 
REMARK    7  A    between atoms: C_14  and  C_17 
ROOT
ATOM      1  N   UNL d   1      52.924  34.745  54.241  0.00  0.00    -0.227 NA
ATOM      2  N   UNL d   1      53.076  33.522  53.723  0.00  0.00    -0.287 N 
ATOM      3  C   UNL d   1      52.584  34.199  53.706  0.00  0.00     0.148 A 
ATOM      4  C   UNL d   1      53.691  33.655  54.249  0.00  0.00     0.083 A 
ATOM      5  C   UNL d   1      53.592  34.444  54.583  0.00  0.00     0.099 A 
ATOM      6  C   UNL d   1      54.315  33.182  54.470  0.00  0.00     0.019 A 
ATOM      7  C   UNL d   1      54.172  34.676  55.135  0.00  0.00     0.021 A 
ATOM      8  C   UNL d   1      54.840  33.476  55.012  0.00  0.00     0.002 A 
ATOM      9  C   UNL d   1      54.748  34.215  55.325  0.00  0.00     0.002 A 
ENDROOT
BRANCH   2  10
ATOM     10  C   UNL d   1      52.835  32.934  53.240  0.00  0.00     0.108 C 
BRANCH  10  11
ATOM     11  C   UNL d   1      53.123  32.170  53.298  0.00  0.00     0.142 C 
BRANCH  11  12
ATOM     12  O   UNL d   1      52.837  31.549  52.852  0.00  0.00    -0.304 OA
BRANCH  12  13
ATOM     13  C   UNL d   1      52.883  30.761  53.090  0.00  0.00     0.100 A 
ATOM     14  C   UNL d   1      53.592  30.366  53.234  0.00  0.00     0.025 A 
ATOM     15  C   UNL d   1      53.636  29.580  53.471  0.00  0.00     0.002 A 
ATOM     16  C   UNL d   1      52.925  29.158  53.571  0.00  0.00     0.000 A 
ATOM     17  C   UNL d   1      52.191  29.536  53.432  0.00  0.00     0.002 A 
ATOM     18  C   UNL d   1      52.171  30.339  53.190  0.00  0.00     0.025 A 
ENDBRANCH  12  13
ENDBRANCH  11  12
ENDBRANCH  10  11
ENDBRANCH   2  10
BRANCH   3  19
ATOM     19  C   UNL d   1      52.058  33.910  53.165  0.00  0.00     0.041 C 
BRANCH  19  20
ATOM     20  C   UNL d   1      51.434  34.398  52.894  0.00  0.00     0.049 C 
BRANCH  20  21
ATOM     21  C   UNL d   1      50.778  34.068  52.499  0.00  0.00     0.234 C 
ATOM     22  O   UNL d   1      50.039  34.452  52.514  0.00  0.00    -0.283 OA
ENDBRANCH  20  21
ENDBRANCH  19  20
ENDBRANCH   3  19
TORSDOF 7
ENDMDL
MODEL 5
REMARK VINA RESULT:      -6.8      1.418      4.082
REMARK  7 active torsions:
REMARK  status: ('A' for Active; 'I' for Inactive)
REMARK    1  A    between atoms: C_6  and  N_2 
REMARK    2  A    between atoms: C_7  and  C_3 
REMARK    3  A    between atoms: C_10  and  C_6 
REMARK    4  A    between atoms: C_17  and  C_7 
REMARK    5  A    between atoms: O_8  and  C_10 
REMARK    6  A    between atoms: C_9  and  O_8 
REMARK    7  A    between atoms: C_14  and  C_17 
ROOT
ATOM      1  N   UNL d   1      51.119  32.150  52.933  0.00  0.00    -0.227 NA
ATOM      2  N   UNL d   1      52.378  32.592  53.027  0.00  0.00    -0.287 N 
ATOM      3  C   UNL d   1      51.913  31.895  53.005  0.00  0.00     0.148 A 
ATOM      4  C   UNL d   1      51.883  33.243  52.971  0.00  0.00     0.083 A 
ATOM      5  C   UNL d   1      51.071  32.958  52.910  0.00  0.00     0.099 A 
ATOM      6  C   UNL d   1      52.049  34.040  52.966  0.00  0.00     0.019 A 
ATOM      7  C   UNL d   1      50.486  33.549  52.848  0.00  0.00     0.021 A 
ATOM      8  C   UNL d   1      51.427  34.555  52.903  0.00  0.00     0.002 A 
ATOM      9  C   UNL d   1      50.667  34.288  52.846  0.00  0.00     0.002 A 
ENDROOT
BRANCH   2  10
ATOM     10  C   UNL d   1      53.162  32.455  53.095  0.00  0.00     0.108 C 
BRANCH  10  11
ATOM     11  C   UNL d   1      53.669  32.981  53.465  0.00  0.00     0.142 C 
BRANCH  11  12
ATOM     12  O   UNL d   1      54.383  32.757  53.793  0.00  0.00    -0.304 OA
BRANCH  12  13
ATOM     13  C   UNL d   1      54.761  33.181  54.391  0.00  0.00     0.100 A 
ATOM     14  C   UNL d   1      54.540  33.148  55.185  0.00  0.00     0.025 A 
ATOM     15  C   UNL d   1      54.917  33.572  55.780  0.00  0.00     0.002 A 
ATOM     16  C   UNL d   1      55.558  34.062  55.571  0.00  0.00     0.000 A 
ATOM     17  C   UNL d   1      55.801  34.113  54.771  0.00  0.00     0.002 A 
ATOM     18  C   UNL d   1      55.401  33.671  54.181  0.00  0.00     0.025 A 
ENDBRANCH  12  13
ENDBRANCH  11  12
ENDBRANCH  10  11
ENDBRANCH   2  10
BRANCH   3  19
ATOM     19  C   UNL d   1      52.530  31.378  53.068  0.00  0.00     0.041 C 
BRANCH  19  20
ATOM     20  C   UNL d   1      52.390  30.557  52.983  0.00  0.00     0.049 C 
BRANCH  20  21
ATOM     21  C   UNL d   1      52.882  30.001  53.363  0.00  0.00     0.234 C 
ATOM     22  O   UNL d   1      52.670  29.196  53.386  0.00  0.00    -0.283 OA
ENDBRANCH  20  21
ENDBRANCH  19  20
ENDBRANCH   3  19
TORSDOF 7
ENDMDL
MODEL 6
REMARK VINA RESULT:      -6.0      1.047      3.493
REMARK  7 active torsions:
REMARK  status: ('A' for Active; 'I' for Inactive)
REMARK    1  A    between atoms: C_6  and  N_2 
REMARK    2  A    between atoms: C_7  and  C_3 
REMARK    3  A    between atoms: C_10  and  C_6 
REMARK    4  A    between atoms: C_17  and  C_7 
REMARK    5  A    between atoms: O_8  and  C_10 
REMARK    6  A    between atoms: C_9  and  O_8 
REMARK    7  A    between atoms: C_14  and  C_17 
ROOT
ATOM      1  N   UNL d   1      51.578  31.168  53.035  0.00  0.00    -0.227 NA
ATOM      2  N   UNL d   1      52.680  31.913  53.167  0.00  0.00    -0.287 N 
ATOM      3  C   UNL d   1      51.853  31.958  53.043  0.00  0.00     0.148 A 
ATOM      4  C   UNL d   1      52.896  31.125  53.230  0.00  0.00     0.083 A 
ATOM      5  C   UNL d   1      52.185  30.644  53.145  0.00  0.00     0.099 A 
ATOM      6  C   UNL d   1      53.623  30.779  53.351  0.00  0.00     0.019 A 
ATOM      7  C   UNL d   1      52.300  29.820  53.195  0.00  0.00     0.021 A 
ATOM      8  C   UNL d   1      53.657  29.971  53.388  0.00  0.00     0.002 A 
ATOM      9  C   UNL d   1      52.991  29.521  53.309  0.00  0.00     0.002 A 
ENDROOT
BRANCH   2  10
ATOM     10  C   UNL d   1      53.043  32.625  53.191  0.00  0.00     0.108 C 
BRANCH  10  11
ATOM     11  C   UNL d   1      53.705  32.765  53.651  0.00  0.00     0.142 C 
BRANCH  11  12
ATOM     12  O   UNL d   1      53.991  33.514  53.806  0.00  0.00    -0.304 OA
BRANCH  12  13
ATOM     13  C   UNL d   1      54.533  33.678  54.406  0.00  0.00     0.100 A 
ATOM     14  C   UNL d   1      54.333  33.718  55.204  0.00  0.00     0.025 A 
ATOM     15  C   UNL d   1      54.874  33.882  55.802  0.00  0.00     0.002 A 
ATOM     16  C   UNL d   1      55.668  34.014  55.589  0.00  0.00     0.000 A 
ATOM     17  C   UNL d   1      55.897  33.980  54.784  0.00  0.00     0.002 A 
ATOM     18  C   UNL d   1      55.327  33.811  54.192  0.00  0.00     0.025 A 
ENDBRANCH  12  13
ENDBRANCH  11  12
ENDBRANCH  10  11
ENDBRANCH   2  10
BRANCH   3  19
ATOM     19  C   UNL d   1      51.815  32.764  53.005  0.00  0.00     0.041 C 
BRANCH  19  20
ATOM     20  C   UNL d   1      51.068  33.142  53.007  0.00  0.00     0.049 C 
BRANCH  20  21
ATOM     21  C   UNL d   1      50.992  33.933  52.754  0.00  0.00     0.234 C 
ATOM     22  O   UNL d   1      50.244  34.298  52.726  0.00  0.00    -0.283 OA
ENDBRANCH  20  21
ENDBRANCH  19  20
ENDBRANCH   3  19
TORSDOF 7
ENDMDL
