MODEL 1
REMARK VINA RESULT:      -6.4      0.000      0.000
REMARK  2 active torsions:
REMARK  status: ('A' for Active; 'I' for Inactive)
REMARK    1  A    between atoms: S_6  and  C_1 
REMARK    2  A    between atoms: C_7  and  S_6 
ROOT
ATOM      1  C   UNL d   1     -48.555  14.438  22.863  0.00  0.00     0.194 A 
ATOM      2  N   UNL d   1     -47.778  14.731  22.686  0.00  0.00    -0.220 NA
ATOM      3  N   UNL d   1     -48.478  13.648  23.081  0.00  0.00    -0.220 NA
ATOM      4  C   UNL d   1     -47.258  14.123  22.799  0.00  0.00     0.101 A 
ATOM      5  C   UNL d   1     -47.700  13.439  23.048  0.00  0.00     0.101 A 
ATOM      6  C   UNL d   1     -46.427  14.039  22.724  0.00  0.00     0.021 A 
ATOM      7  C   UNL d   1     -47.309  12.730  23.205  0.00  0.00     0.021 A 
ATOM      8  C   UNL d   1     -46.489  12.683  23.121  0.00  0.00     0.002 A 
ATOM      9  C   UNL d   1     -46.060  13.346  22.880  0.00  0.00     0.002 A 
ENDROOT
BRANCH   1  10
ATOM     10  S   UNL d   1     -48.945  15.147  22.706  0.00  0.00    -0.049 SA
BRANCH  10  11
ATOM     11  C   UNL d   1     -49.757  15.209  22.841  0.00  0.00     0.032 C 
ATOM     12  C   UNL d   1     -50.038  15.683  23.455  0.00  0.00     0.007 C 
ATOM     13  C   UNL d   1     -50.429  14.887  22.486  0.00  0.00     0.007 C 
ENDBRANCH  10  11
ENDBRANCH   1  10
TORSDOF 2
ENDMDL
MODEL 2
REMARK VINA RESULT:      -6.3      1.854      3.275
REMARK  2 active torsions:
REMARK  status: ('A' for Active; 'I' for Inactive)
REMARK    1  A    between atoms: S_6  and  C_1 
REMARK    2  A    between atoms: C_7  and  S_6 
ROOT
ATOM      1  C   UNL d   1     -47.732  12.914  22.866  0.00  0.00     0.194 A 
ATOM      2  N   UNL d   1     -47.985  12.356  23.452  0.00  0.00    -0.220 NA
ATOM      3  N   UNL d   1     -48.384  13.090  22.395  0.00  0.00    -0.220 NA
ATOM      4  C   UNL d   1     -48.769  12.208  23.326  0.00  0.00     0.101 A 
ATOM      5  C   UNL d   1     -49.022  12.672  22.658  0.00  0.00     0.101 A 
ATOM      6  C   UNL d   1     -49.342  11.722  23.698  0.00  0.00     0.021 A 
ATOM      7  C   UNL d   1     -49.804  12.633  22.401  0.00  0.00     0.021 A 
ATOM      8  C   UNL d   1     -50.342  12.143  22.790  0.00  0.00     0.002 A 
ATOM      9  C   UNL d   1     -50.098  11.693  23.438  0.00  0.00     0.002 A 
ENDROOT
BRANCH   1  10
ATOM     10  S   UNL d   1     -46.950  12.954  23.124  0.00  0.00    -0.049 SA
BRANCH  10  11
ATOM     11  C   UNL d   1     -46.441  13.523  22.810  0.00  0.00     0.032 C 
ATOM     12  C   UNL d   1     -45.830  13.297  22.304  0.00  0.00     0.007 C 
ATOM     13  C   UNL d   1     -46.378  14.343  22.880  0.00  0.00     0.007 C 
ENDBRANCH  10  11
ENDBRANCH   1  10
TORSDOF 2
ENDMDL
MODEL 3
REMARK VINA RESULT:      -6.2      1.689      2.088
REMARK  2 active torsions:
REMARK  status: ('A' for Active; 'I' for Inactive)
REMARK    1  A    between atoms: S_6  and  C_1 
REMARK    2  A    between atoms: C_7  and  S_6 
ROOT
ATOM      1  C   UNL d   1     -48.792  12.793  22.984  0.00  0.00     0.194 A 
ATOM      2  N   UNL d   1     -48.047  12.386  22.980  0.00  0.00    -0.220 NA
ATOM      3  N   UNL d   1     -48.632  13.600  22.962  0.00  0.00    -0.220 NA
ATOM      4  C   UNL d   1     -47.464  12.945  22.957  0.00  0.00     0.101 A 
ATOM      5  C   UNL d   1     -47.834  13.712  22.945  0.00  0.00     0.101 A 
ATOM      6  C   UNL d   1     -46.627  12.920  22.943  0.00  0.00     0.021 A 
ATOM      7  C   UNL d   1     -47.370  14.393  22.921  0.00  0.00     0.021 A 
ATOM      8  C   UNL d   1     -46.547  14.332  22.908  0.00  0.00     0.002 A 
ATOM      9  C   UNL d   1     -46.189  13.589  22.920  0.00  0.00     0.002 A 
ENDROOT
BRANCH   1  10
ATOM     10  S   UNL d   1     -49.255  12.111  23.008  0.00  0.00    -0.049 SA
BRANCH  10  11
ATOM     11  C   UNL d   1     -50.076  12.173  23.073  0.00  0.00     0.032 C 
ATOM     12  C   UNL d   1     -50.469  11.806  23.698  0.00  0.00     0.007 C 
ATOM     13  C   UNL d   1     -50.664  12.545  22.629  0.00  0.00     0.007 C 
ENDBRANCH  10  11
ENDBRANCH   1  10
TORSDOF 2
ENDMDL
MODEL 4
REMARK VINA RESULT:      -4.8      8.115      8.855
REMARK  2 active torsions:
REMARK  status: ('A' for Active; 'I' for Inactive)
REMARK    1  A    between atoms: S_6  and  C_1 
REMARK    2  A    between atoms: C_7  and  S_6 
ROOT
ATOM      1  C   UNL d   1     -40.533  15.097  18.550  0.00  0.00     0.194 A 
ATOM      2  N   UNL d   1     -40.505  14.408  19.045  0.00  0.00    -0.220 NA
ATOM      3  N   UNL d   1     -40.582  15.754  19.043  0.00  0.00    -0.220 NA
ATOM      4  C   UNL d   1     -40.538  14.659  19.812  0.00  0.00     0.101 A 
ATOM      5  C   UNL d   1     -40.587  15.509  19.811  0.00  0.00     0.101 A 
ATOM      6  C   UNL d   1     -40.535  14.274  20.557  0.00  0.00     0.021 A 
ATOM      7  C   UNL d   1     -40.628  15.921  20.524  0.00  0.00     0.021 A 
ATOM      8  C   UNL d   1     -40.622  15.510  21.240  0.00  0.00     0.002 A 
ATOM      9  C   UNL d   1     -40.575  14.685  21.241  0.00  0.00     0.002 A 
ENDROOT
BRANCH   1  10
ATOM     10  S   UNL d   1     -40.492  14.684  17.837  0.00  0.00    -0.049 SA
BRANCH  10  11
ATOM     11  C   UNL d   1     -40.514  15.095  17.121  0.00  0.00     0.032 C 
ATOM     12  C   UNL d   1     -39.845  15.123  16.640  0.00  0.00     0.007 C 
ATOM     13  C   UNL d   1     -41.092  15.529  16.722  0.00  0.00     0.007 C 
ENDBRANCH  10  11
ENDBRANCH   1  10
TORSDOF 2
ENDMDL
MODEL 5
REMARK VINA RESULT:      -4.6      7.697      8.983
REMARK  2 active torsions:
REMARK  status: ('A' for Active; 'I' for Inactive)
REMARK    1  A    between atoms: S_6  and  C_1 
REMARK    2  A    between atoms: C_7  and  S_6 
ROOT
ATOM      1  C   UNL d   1     -40.474  15.341  19.476  0.00  0.00     0.194 A 
ATOM      2  N   UNL d   1     -40.106  14.650  19.148  0.00  0.00    -0.220 NA
ATOM      3  N   UNL d   1     -40.723  15.811  18.847  0.00  0.00    -0.220 NA
ATOM      4  C   UNL d   1     -40.140  14.716  18.343  0.00  0.00     0.101 A 
ATOM      5  C   UNL d   1     -40.530  15.449  18.153  0.00  0.00     0.101 A 
ATOM      6  C   UNL d   1     -39.885  14.238  17.704  0.00  0.00     0.021 A 
ATOM      7  C   UNL d   1     -40.643  15.664  17.365  0.00  0.00     0.021 A 
ATOM      8  C   UNL d   1     -40.379  15.169  16.760  0.00  0.00     0.002 A 
ATOM      9  C   UNL d   1     -40.001  14.458  16.944  0.00  0.00     0.002 A 
ENDROOT
BRANCH   1  10
ATOM     10  S   UNL d   1     -40.361  15.126  20.264  0.00  0.00    -0.049 SA
BRANCH  10  11
ATOM     11  C   UNL d   1     -40.636  15.615  20.869  0.00  0.00     0.032 C 
ATOM     12  C   UNL d   1     -40.112  15.903  21.437  0.00  0.00     0.007 C 
ATOM     13  C   UNL d   1     -41.375  15.922  21.073  0.00  0.00     0.007 C 
ENDBRANCH  10  11
ENDBRANCH   1  10
TORSDOF 2
ENDMDL
