MODEL 1
REMARK VINA RESULT:      -5.4      0.000      0.000
REMARK  6 active torsions:
REMARK  status: ('A' for Active; 'I' for Inactive)
REMARK    1  A    between atoms: N_3  and  C_1 
REMARK       I    between atoms: C_7  and  N_3 
REMARK    2  A    between atoms: S_13  and  C_4 
REMARK    3  A    between atoms: C_20  and  C_7 
REMARK    4  A    between atoms: C_10  and  C_21 
REMARK       I    between atoms: N_12  and  C_10 
REMARK    5  A    between atoms: C_14  and  N_12 
REMARK    6  A    between atoms: C_21  and  S_13 
ROOT
ATOM      1  C   UNL d   1     -45.899  13.318  22.308  0.00  0.00     0.286 C 
ATOM      2  N   UNL d   1     -46.238  13.728  22.942  0.00  0.00    -0.207 NA
ATOM      3  O   UNL d   1     -46.378  12.973  21.729  0.00  0.00    -0.265 OA
ENDROOT
BRANCH   1   4
ATOM      4  C   UNL d   1     -45.081  13.258  22.261  0.00  0.00     0.100 C 
BRANCH   4   5
ATOM      5  S   UNL d   1     -44.735  12.735  21.718  0.00  0.00    -0.054 SA
BRANCH   5   6
ATOM      6  C   UNL d   1     -43.923  12.777  21.578  0.00  0.00     0.165 A 
ATOM      7  S   UNL d   1     -43.544  13.346  21.127  0.00  0.00    -0.019 SA
ATOM      8  C   UNL d   1     -42.737  13.188  21.127  0.00  0.00     0.219 A 
ATOM      9  N   UNL d   1     -42.618  12.511  21.586  0.00  0.00    -0.120 NA
ATOM     10  N   UNL d   1     -43.350  12.257  21.864  0.00  0.00    -0.133 NA
BRANCH   8  11
ATOM     11  N   UNL d   1     -42.156  13.630  20.738  0.00  0.00    -0.181 NA
ATOM     12  C   UNL d   1     -41.470  13.846  21.148  0.00  0.00     0.281 C 
ATOM     13  O   UNL d   1     -41.370  13.624  21.932  0.00  0.00    -0.265 OA
BRANCH  12  14
ATOM     14  C   UNL d   1     -40.887  14.287  20.763  0.00  0.00     0.058 C 
ATOM     15  C   UNL d   1     -40.526  14.918  21.158  0.00  0.00     0.005 C 
ATOM     16  C   UNL d   1     -40.672  14.097  19.997  0.00  0.00     0.005 C 
ENDBRANCH  12  14
ENDBRANCH   8  11
ENDBRANCH   5   6
ENDBRANCH   4   5
ENDBRANCH   1   4
BRANCH   2  17
ATOM     17  C   UNL d   1     -47.060  13.789  22.989  0.00  0.00     0.087 A 
ATOM     18  C   UNL d   1     -47.428  14.496  22.780  0.00  0.00     0.046 A 
ATOM     19  C   UNL d   1     -48.242  14.566  22.823  0.00  0.00     0.124 A 
ATOM     20  O   UNL d   1     -48.609  15.277  22.612  0.00  0.00    -0.301 OA
ATOM     21  C   UNL d   1     -48.698  13.925  23.079  0.00  0.00     0.123 A 
ATOM     22  C   UNL d   1     -49.434  15.340  22.660  0.00  0.00     0.149 A 
ATOM     23  C   UNL d   1     -49.890  14.697  22.916  0.00  0.00     0.149 A 
ATOM     24  O   UNL d   1     -49.512  13.983  23.127  0.00  0.00    -0.301 OA
ATOM     25  C   UNL d   1     -48.327  13.216  23.289  0.00  0.00     0.028 A 
ATOM     26  C   UNL d   1     -47.507  13.149  23.244  0.00  0.00     0.021 A 
ENDBRANCH   2  17
TORSDOF 6
ENDMDL
MODEL 2
REMARK VINA RESULT:      -5.1      1.931      7.022
REMARK  6 active torsions:
REMARK  status: ('A' for Active; 'I' for Inactive)
REMARK    1  A    between atoms: N_3  and  C_1 
REMARK       I    between atoms: C_7  and  N_3 
REMARK    2  A    between atoms: S_13  and  C_4 
REMARK    3  A    between atoms: C_20  and  C_7 
REMARK    4  A    between atoms: C_10  and  C_21 
REMARK       I    between atoms: N_12  and  C_10 
REMARK    5  A    between atoms: C_14  and  N_12 
REMARK    6  A    between atoms: C_21  and  S_13 
ROOT
ATOM      1  C   UNL d   1     -41.648  13.967  20.726  0.00  0.00     0.286 C 
ATOM      2  N   UNL d   1     -41.157  14.575  20.998  0.00  0.00    -0.207 NA
ATOM      3  O   UNL d   1     -41.573  13.682  19.954  0.00  0.00    -0.265 OA
ENDROOT
BRANCH   1   4
ATOM      4  C   UNL d   1     -42.210  13.649  21.234  0.00  0.00     0.100 C 
BRANCH   4   5
ATOM      5  S   UNL d   1     -42.725  13.057  20.962  0.00  0.00    -0.054 SA
BRANCH   5   6
ATOM      6  C   UNL d   1     -43.361  12.828  21.434  0.00  0.00     0.165 A 
ATOM      7  S   UNL d   1     -44.081  13.214  21.488  0.00  0.00    -0.019 SA
ATOM      8  C   UNL d   1     -44.560  12.807  22.017  0.00  0.00     0.219 A 
ATOM      9  N   UNL d   1     -44.128  12.159  22.294  0.00  0.00    -0.120 NA
ATOM     10  N   UNL d   1     -43.388  12.171  21.934  0.00  0.00    -0.133 NA
BRANCH   8  11
ATOM     11  N   UNL d   1     -45.333  13.013  22.231  0.00  0.00    -0.181 NA
ATOM     12  C   UNL d   1     -45.684  12.645  22.884  0.00  0.00     0.281 C 
ATOM     13  O   UNL d   1     -45.268  12.083  23.314  0.00  0.00    -0.265 OA
BRANCH  12  14
ATOM     14  C   UNL d   1     -46.455  12.847  23.101  0.00  0.00     0.058 C 
ATOM     15  C   UNL d   1     -46.680  13.643  23.109  0.00  0.00     0.005 C 
ATOM     16  C   UNL d   1     -46.987  12.260  23.305  0.00  0.00     0.005 C 
ENDBRANCH  12  14
ENDBRANCH   8  11
ENDBRANCH   5   6
ENDBRANCH   4   5
ENDBRANCH   1   4
BRANCH   2  17
ATOM     17  C   UNL d   1     -40.591  14.894  20.488  0.00  0.00     0.087 A 
ATOM     18  C   UNL d   1     -39.836  14.564  20.462  0.00  0.00     0.046 A 
ATOM     19  C   UNL d   1     -39.268  14.873  19.961  0.00  0.00     0.124 A 
ATOM     20  O   UNL d   1     -38.511  14.540  19.936  0.00  0.00    -0.301 OA
ATOM     21  C   UNL d   1     -39.452  15.520  19.478  0.00  0.00     0.123 A 
ATOM     22  C   UNL d   1     -37.941  14.860  19.425  0.00  0.00     0.149 A 
ATOM     23  C   UNL d   1     -38.126  15.507  18.942  0.00  0.00     0.149 A 
ATOM     24  O   UNL d   1     -38.893  15.837  18.973  0.00  0.00    -0.301 OA
ATOM     25  C   UNL d   1     -40.210  15.849  19.506  0.00  0.00     0.028 A 
ATOM     26  C   UNL d   1     -40.780  15.536  20.012  0.00  0.00     0.021 A 
ENDBRANCH   2  17
TORSDOF 6
ENDMDL
