MODEL 1
REMARK VINA RESULT:      94.9      0.000      0.000
REMARK  4 active torsions:
REMARK  status: ('A' for Active; 'I' for Inactive)
REMARK       I    between atoms: C_3  and  N_1 
REMARK    1  A    between atoms: C_7  and  C_3 
REMARK    2  A    between atoms: C_8  and  C_4 
REMARK    3  A    between atoms: C_9  and  C_5 
REMARK    4  A    between atoms: O_25  and  C_18 
ROOT
ATOM      1  N   UNL d   1     -50.109  25.773  33.792  0.00  0.00    -0.195 N 
ATOM      2  N   UNL d   1     -49.480  26.313  33.867  0.00  0.00    -0.163 NA
ATOM      3  C   UNL d   1     -50.026  24.983  33.542  0.00  0.00     0.282 C 
ATOM      4  C   UNL d   1     -50.814  26.135  34.000  0.00  0.00     0.088 A 
ATOM      5  C   UNL d   1     -49.799  27.022  34.126  0.00  0.00     0.103 A 
ATOM      6  C   UNL d   1     -50.622  26.912  34.208  0.00  0.00     0.040 A 
ATOM      7  O   UNL d   1     -49.287  24.682  33.347  0.00  0.00    -0.265 OA
ENDROOT
BRANCH   3   8
ATOM      8  C   UNL d   1     -50.712  24.497  33.491  0.00  0.00     0.077 A 
ATOM      9  C   UNL d   1     -51.458  24.827  33.533  0.00  0.00     0.104 A 
ATOM     10  N   UNL d   1     -52.123  24.355  33.484  0.00  0.00    -0.242 NA
ATOM     11  C   UNL d   1     -52.026  23.534  33.390  0.00  0.00     0.099 A 
ATOM     12  C   UNL d   1     -51.279  23.201  33.348  0.00  0.00     0.021 A 
ATOM     13  C   UNL d   1     -50.615  23.675  33.397  0.00  0.00     0.008 A 
ENDBRANCH   3   8
BRANCH   4  14
ATOM     14  C   UNL d   1     -51.566  25.796  34.003  0.00  0.00     0.018 A 
ATOM     15  C   UNL d   1     -52.004  25.758  33.306  0.00  0.00     0.004 A 
ATOM     16  C   UNL d   1     -52.756  25.418  33.308  0.00  0.00     0.024 A 
ATOM     17  C   UNL d   1     -53.070  25.117  34.009  0.00  0.00     0.094 A 
ATOM     18  C   UNL d   1     -52.632  25.156  34.702  0.00  0.00     0.024 A 
ATOM     19  C   UNL d   1     -51.880  25.495  34.700  0.00  0.00     0.004 A 
BRANCH  17  20
ATOM     20  O   UNL d   1     -53.822  24.777  34.011  0.00  0.00    -0.328 OA
ATOM     21  C   UNL d   1     -54.446  25.155  33.627  0.00  0.00     0.181 C 
ENDBRANCH  17  20
ENDBRANCH   4  14
BRANCH   5  22
ATOM     22  C   UNL d   1     -49.379  27.703  34.273  0.00  0.00     0.019 A 
ATOM     23  C   UNL d   1     -48.828  27.694  34.896  0.00  0.00     0.002 A 
ATOM     24  C   UNL d   1     -48.391  28.399  35.052  0.00  0.00     0.007 A 
ATOM     25  C   UNL d   1     -48.511  29.065  34.599  0.00  0.00     0.035 A 
ATOM     26  C   UNL d   1     -49.063  29.074  33.976  0.00  0.00     0.007 A 
ATOM     27 BR   UNL d   1     -48.075  29.745  34.766  0.00  0.00    -0.049 Br
ATOM     28  C   UNL d   1     -49.502  28.365  33.822  0.00  0.00     0.002 A 
ENDBRANCH   5  22
TORSDOF 4
ENDMDL
