MODEL 1
REMARK VINA RESULT:      -7.0      0.000      0.000
REMARK  2 active torsions:
REMARK  status: ('A' for Active; 'I' for Inactive)
REMARK    1  A    between atoms: C_2  and  N_1 
REMARK    2  A    between atoms: C_4  and  C_7 
ROOT
ATOM      1  C   UNL d   1     -41.607-122.468 -51.627  0.00  0.00     0.146 A 
ATOM      2  C   UNL d   1     -41.770-122.207 -52.392  0.00  0.00     0.027 A 
ATOM      3  C   UNL d   1     -41.610-122.705 -53.049  0.00  0.00     0.021 A 
ATOM      4  C   UNL d   1     -41.287-123.218 -51.507  0.00  0.00     0.125 A 
ATOM      5  C   UNL d   1     -41.292-123.451 -52.924  0.00  0.00     0.003 A 
ATOM      6  C   UNL d   1     -41.127-123.717 -52.165  0.00  0.00     0.023 A 
ATOM      7  N   UNL d   1     -41.123-123.482 -50.740  0.00  0.00    -0.146 N 
ENDROOT
BRANCH   3   8
ATOM      8  C   UNL d   1     -41.775-122.439 -53.808  0.00  0.00     0.103 A 
ATOM      9  N   UNL d   1     -42.170-121.723 -53.935  0.00  0.00    -0.145 NA
ATOM     10  N   UNL d   1     -42.334-121.457 -54.694  0.00  0.00    -0.106 NA
ATOM     11  C   UNL d   1     -42.103-121.911 -55.344  0.00  0.00     0.297 A 
ATOM     12  C   UNL d   1     -41.705-122.633 -55.224  0.00  0.00     0.066 A 
ATOM     13  O   UNL d   1     -42.265-121.651 -56.110  0.00  0.00    -0.264 OA
ATOM     14  C   UNL d   1     -41.543-122.893 -54.458  0.00  0.00     0.024 A 
ATOM     15  C   UNL d   1     -41.147-123.612 -54.341  0.00  0.00     0.002 C 
ENDBRANCH   3   8
BRANCH   1  16
ATOM     16  N   UNL d   1     -41.764-121.977 -50.980  0.00  0.00    -0.112 N 
ATOM     17  O   UNL d   1     -41.164-121.511 -50.659  0.00  0.00    -0.532 OA
ATOM     18  O   UNL d   1     -42.522-121.953 -50.654  0.00  0.00    -0.532 OA
ENDBRANCH   1  16
TORSDOF 2
ENDMDL
MODEL 2
REMARK VINA RESULT:      -6.2      1.006      3.612
REMARK  2 active torsions:
REMARK  status: ('A' for Active; 'I' for Inactive)
REMARK    1  A    between atoms: C_2  and  N_1 
REMARK    2  A    between atoms: C_4  and  C_7 
ROOT
ATOM      1  C   UNL d   1     -42.097-122.263 -54.128  0.00  0.00     0.146 A 
ATOM      2  C   UNL d   1     -42.126-122.311 -53.305  0.00  0.00     0.027 A 
ATOM      3  C   UNL d   1     -41.649-122.871 -52.899  0.00  0.00     0.021 A 
ATOM      4  C   UNL d   1     -41.600-122.766 -54.552  0.00  0.00     0.125 A 
ATOM      5  C   UNL d   1     -41.156-123.368 -53.327  0.00  0.00     0.003 A 
ATOM      6  C   UNL d   1     -41.123-123.326 -54.146  0.00  0.00     0.023 A 
ATOM      7  N   UNL d   1     -41.569-122.719 -55.378  0.00  0.00    -0.146 N 
ENDROOT
BRANCH   3   8
ATOM      8  C   UNL d   1     -41.683-122.914 -52.080  0.00  0.00     0.103 A 
ATOM      9  N   UNL d   1     -41.977-123.587 -51.698  0.00  0.00    -0.145 NA
ATOM     10  N   UNL d   1     -42.010-123.630 -50.879  0.00  0.00    -0.106 NA
ATOM     11  C   UNL d   1     -41.746-122.991 -50.427  0.00  0.00     0.297 A 
ATOM     12  C   UNL d   1     -41.449-122.311 -50.804  0.00  0.00     0.066 A 
ATOM     13  O   UNL d   1     -41.776-123.027 -49.603  0.00  0.00    -0.264 OA
ATOM     14  C   UNL d   1     -41.419-122.275 -51.628  0.00  0.00     0.024 A 
ATOM     15  C   UNL d   1     -41.123-121.597 -52.001  0.00  0.00     0.002 C 
ENDBRANCH   3   8
BRANCH   1  16
ATOM     16  N   UNL d   1     -42.567-121.712 -54.527  0.00  0.00    -0.112 N 
ATOM     17  O   UNL d   1     -43.385-121.815 -54.563  0.00  0.00    -0.532 OA
ATOM     18  O   UNL d   1     -42.218-121.058 -54.890  0.00  0.00    -0.532 OA
ENDBRANCH   1  16
TORSDOF 2
ENDMDL
MODEL 3
REMARK VINA RESULT:      -5.9      1.808      2.625
REMARK  2 active torsions:
REMARK  status: ('A' for Active; 'I' for Inactive)
REMARK    1  A    between atoms: C_2  and  N_1 
REMARK    2  A    between atoms: C_4  and  C_7 
ROOT
ATOM      1  C   UNL d   1     -42.617-123.179 -49.679  0.00  0.00     0.146 A 
ATOM      2  C   UNL d   1     -42.469-123.071 -50.483  0.00  0.00     0.027 A 
ATOM      3  C   UNL d   1     -41.712-123.251 -50.800  0.00  0.00     0.021 A 
ATOM      4  C   UNL d   1     -42.020-123.463 -49.186  0.00  0.00     0.125 A 
ATOM      5  C   UNL d   1     -41.123-123.534 -50.304  0.00  0.00     0.003 A 
ATOM      6  C   UNL d   1     -41.263-123.643 -49.502  0.00  0.00     0.023 A 
ATOM      7  N   UNL d   1     -42.166-123.573 -48.378  0.00  0.00    -0.146 N 
ENDROOT
BRANCH   3   8
ATOM      8  C   UNL d   1     -41.572-123.141 -51.601  0.00  0.00     0.103 A 
ATOM      9  N   UNL d   1     -41.722-123.744 -52.148  0.00  0.00    -0.145 NA
ATOM     10  N   UNL d   1     -41.582-123.634 -52.950  0.00  0.00    -0.106 NA
ATOM     11  C   UNL d   1     -41.286-122.910 -53.216  0.00  0.00     0.297 A 
ATOM     12  C   UNL d   1     -41.134-122.299 -52.672  0.00  0.00     0.066 A 
ATOM     13  O   UNL d   1     -41.143-122.793 -54.021  0.00  0.00    -0.264 OA
ATOM     14  C   UNL d   1     -41.277-122.417 -51.868  0.00  0.00     0.024 A 
ATOM     15  C   UNL d   1     -41.124-121.808 -51.327  0.00  0.00     0.002 C 
ENDBRANCH   3   8
BRANCH   1  16
ATOM     16  N   UNL d   1     -43.362-123.002 -49.367  0.00  0.00    -0.112 N 
ATOM     17  O   UNL d   1     -43.450-122.374 -48.838  0.00  0.00    -0.532 OA
ATOM     18  O   UNL d   1     -44.018-123.452 -49.583  0.00  0.00    -0.532 OA
ENDBRANCH   1  16
TORSDOF 2
ENDMDL
MODEL 4
REMARK VINA RESULT:      -5.3      2.273      4.661
REMARK  2 active torsions:
REMARK  status: ('A' for Active; 'I' for Inactive)
REMARK    1  A    between atoms: C_2  and  N_1 
REMARK    2  A    between atoms: C_4  and  C_7 
ROOT
ATOM      1  C   UNL d   1     -41.452-122.373 -51.260  0.00  0.00     0.146 A 
ATOM      2  C   UNL d   1     -41.602-122.396 -50.449  0.00  0.00     0.027 A 
ATOM      3  C   UNL d   1     -41.574-123.127 -50.036  0.00  0.00     0.021 A 
ATOM      4  C   UNL d   1     -41.274-123.069 -51.665  0.00  0.00     0.125 A 
ATOM      5  C   UNL d   1     -41.396-123.816 -50.445  0.00  0.00     0.003 A 
ATOM      6  C   UNL d   1     -41.246-123.800 -51.252  0.00  0.00     0.023 A 
ATOM      7  N   UNL d   1     -41.123-123.048 -52.479  0.00  0.00    -0.146 N 
ENDROOT
BRANCH   3   8
ATOM      8  C   UNL d   1     -41.724-123.143 -49.230  0.00  0.00     0.103 A 
ATOM      9  N   UNL d   1     -41.129-122.974 -48.680  0.00  0.00    -0.145 NA
ATOM     10  N   UNL d   1     -41.279-122.990 -47.873  0.00  0.00    -0.106 NA
ATOM     11  C   UNL d   1     -42.037-123.177 -47.603  0.00  0.00     0.297 A 
ATOM     12  C   UNL d   1     -42.641-123.348 -48.150  0.00  0.00     0.066 A 
ATOM     13  O   UNL d   1     -42.196-123.195 -46.793  0.00  0.00    -0.264 OA
ATOM     14  C   UNL d   1     -42.482-123.330 -48.960  0.00  0.00     0.024 A 
ATOM     15  C   UNL d   1     -43.085-123.500 -49.503  0.00  0.00     0.002 C 
ENDBRANCH   3   8
BRANCH   1  16
ATOM     16  N   UNL d   1     -41.480-121.653 -51.666  0.00  0.00    -0.112 N 
ATOM     17  O   UNL d   1     -41.159-120.974 -51.325  0.00  0.00    -0.532 OA
ATOM     18  O   UNL d   1     -41.829-121.613 -52.412  0.00  0.00    -0.532 OA
ENDBRANCH   1  16
TORSDOF 2
ENDMDL
MODEL 5
REMARK VINA RESULT:      -4.7      2.049      4.344
REMARK  2 active torsions:
REMARK  status: ('A' for Active; 'I' for Inactive)
REMARK    1  A    between atoms: C_2  and  N_1 
REMARK    2  A    between atoms: C_4  and  C_7 
ROOT
ATOM      1  C   UNL d   1     -41.594-122.564 -52.217  0.00  0.00     0.146 A 
ATOM      2  C   UNL d   1     -41.750-122.898 -51.479  0.00  0.00     0.027 A 
ATOM      3  C   UNL d   1     -41.592-122.463 -50.778  0.00  0.00     0.021 A 
ATOM      4  C   UNL d   1     -41.282-121.802 -52.265  0.00  0.00     0.125 A 
ATOM      5  C   UNL d   1     -41.282-121.706 -50.833  0.00  0.00     0.003 A 
ATOM      6  C   UNL d   1     -41.124-121.367 -51.564  0.00  0.00     0.023 A 
ATOM      7  N   UNL d   1     -41.124-121.465 -53.005  0.00  0.00    -0.146 N 
ENDROOT
BRANCH   3   8
ATOM      8  C   UNL d   1     -41.750-122.802 -50.047  0.00  0.00     0.103 A 
ATOM      9  N   UNL d   1     -41.184-123.263 -49.658  0.00  0.00    -0.145 NA
ATOM     10  N   UNL d   1     -41.342-123.602 -48.927  0.00  0.00    -0.106 NA
ATOM     11  C   UNL d   1     -42.078-123.480 -48.572  0.00  0.00     0.297 A 
ATOM     12  C   UNL d   1     -42.652-123.018 -48.958  0.00  0.00     0.066 A 
ATOM     13  O   UNL d   1     -42.244-123.817 -47.837  0.00  0.00    -0.264 OA
ATOM     14  C   UNL d   1     -42.486-122.681 -49.693  0.00  0.00     0.024 A 
ATOM     15  C   UNL d   1     -43.059-122.220 -50.075  0.00  0.00     0.002 C 
ENDBRANCH   3   8
BRANCH   1  16
ATOM     16  N   UNL d   1     -41.750-122.992 -52.907  0.00  0.00    -0.112 N 
ATOM     17  O   UNL d   1     -41.367-123.711 -53.043  0.00  0.00    -0.532 OA
ATOM     18  O   UNL d   1     -42.288-122.702 -53.461  0.00  0.00    -0.532 OA
ENDBRANCH   1  16
TORSDOF 2
ENDMDL
