MODEL 1
REMARK VINA RESULT:      29.2      0.000      0.000
REMARK  5 active torsions:
REMARK  status: ('A' for Active; 'I' for Inactive)
REMARK    1  A    between atoms: C_4  and  S_1 
REMARK    2  A    between atoms: N_7  and  S_1 
REMARK    3  A    between atoms: C_8  and  C_2 
REMARK    4  A    between atoms: C_6  and  C_13 
REMARK    5  A    between atoms: C_13  and  N_7 
ROOT
ATOM      1  C   UNL d   1      13.360  13.923  -4.397  0.00  0.00     0.112 A 
ATOM      2  N   UNL d   1      13.370  13.525  -3.665  0.00  0.00    -0.237 NA
ATOM      3  S   UNL d   1      13.072  13.394  -4.958  0.00  0.00    -0.066 SA
ATOM      4  C   UNL d   1      13.090  12.764  -3.785  0.00  0.00     0.108 A 
ATOM      5  C   UNL d   1      12.905  12.677  -4.579  0.00  0.00     0.058 A 
ENDROOT
BRANCH   4   6
ATOM      6  C   UNL d   1      13.009  12.180  -3.198  0.00  0.00     0.132 C 
BRANCH   6   7
ATOM      7  N   UNL d   1      13.669  11.780  -2.915  0.00  0.00    -0.155 NA
BRANCH   7   8
ATOM      8  S   UNL d   1      13.908  11.864  -2.122  0.00  0.00     0.291 S 
ATOM      9  O   UNL d   1      14.691  11.946  -2.365  0.00  0.00    -0.198 OA
ATOM     10  O   UNL d   1      13.110  11.779  -1.882  0.00  0.00    -0.198 OA
BRANCH   8  11
ATOM     11  C   UNL d   1      14.136  11.945  -1.337  0.00  0.00     0.135 A 
ATOM     12  S   UNL d   1      13.665  11.844  -0.696  0.00  0.00    -0.073 SA
ATOM     13  C   UNL d   1      14.107  11.977  -0.014  0.00  0.00     0.036 A 
ATOM     14  C   UNL d   1      14.874  12.166  -0.254  0.00  0.00     0.008 A 
ATOM     15  C   UNL d   1      14.897  12.148  -1.075  0.00  0.00     0.020 A 
ENDBRANCH   8  11
ENDBRANCH   7   8
ENDBRANCH   6   7
ENDBRANCH   4   6
BRANCH   1  16
ATOM     16  C   UNL d   1      13.597  14.708  -4.532  0.00  0.00     0.043 A 
ATOM     17  C   UNL d   1      13.332  15.089  -5.213  0.00  0.00     0.101 A 
ATOM     18  N   UNL d   1      13.565  15.872  -5.355  0.00  0.00    -0.242 NA
ATOM     19  C   UNL d   1      14.052  16.243  -4.813  0.00  0.00     0.099 A 
ATOM     20  C   UNL d   1      14.316  15.854  -4.128  0.00  0.00     0.021 A 
ATOM     21  C   UNL d   1      14.085  15.083  -3.991  0.00  0.00     0.005 A 
ENDBRANCH   1  16
TORSDOF 5
ENDMDL
