MODEL 1
REMARK VINA RESULT:      14.8      0.000      0.000
REMARK  8 active torsions:
REMARK  status: ('A' for Active; 'I' for Inactive)
REMARK    1  A    between atoms: C_2  and  S_1 
REMARK    2  A    between atoms: N_13  and  S_1 
REMARK    3  A    between atoms: C_16  and  C_4 
REMARK    4  A    between atoms: O_17  and  C_5 
REMARK    5  A    between atoms: N_8  and  C_18 
REMARK    6  A    between atoms: C_21  and  N_13 
REMARK    7  A    between atoms: C_18  and  C_19 
REMARK    8  A    between atoms: C_19  and  C_21 
ROOT
ATOM      1  C   UNL d   1      46.257 -17.926  43.793  0.00  0.00     0.128 A 
ATOM      2  C   UNL d   1      46.115 -18.543  44.331  0.00  0.00     0.015 A 
ATOM      3  C   UNL d   1      46.138 -19.326  44.072  0.00  0.00     0.001 A 
ATOM      4  C   UNL d   1      46.421 -18.094  43.001  0.00  0.00     0.106 A 
ATOM      5  C   UNL d   1      46.304 -19.492  43.275  0.00  0.00     0.002 A 
ATOM      6  C   UNL d   1      46.445 -18.877  42.742  0.00  0.00     0.025 A 
ATOM      7  C   UNL d   1      46.327 -20.275  43.017  0.00  0.00     0.000 C 
ENDROOT
BRANCH   1   8
ATOM      8  S   UNL d   1      46.233 -17.143  44.052  0.00  0.00     0.287 S 
ATOM      9  O   UNL d   1      46.638 -17.358  44.738  0.00  0.00    -0.198 OA
ATOM     10  O   UNL d   1      45.828 -16.928  43.365  0.00  0.00    -0.198 OA
BRANCH   8  11
ATOM     11  N   UNL d   1      46.210 -16.356  44.312  0.00  0.00    -0.157 NA
BRANCH  11  12
ATOM     12  C   UNL d   1      45.784 -15.790  43.877  0.00  0.00     0.114 C 
BRANCH  12  13
ATOM     13  C   UNL d   1      45.336 -15.222  44.273  0.00  0.00     0.041 C 
BRANCH  13  14
ATOM     14  C   UNL d   1      45.673 -14.499  44.495  0.00  0.00     0.083 C 
BRANCH  14  15
ATOM     15  N   UNL d   1      45.424 -13.795  44.144  0.00  0.00    -0.285 N 
ATOM     16  C   UNL d   1      45.898 -13.136  44.004  0.00  0.00     0.183 A 
ATOM     17  N   UNL d   1      45.423 -12.561  43.645  0.00  0.00    -0.222 NA
ATOM     18  C   UNL d   1      44.661 -12.869  43.567  0.00  0.00     0.120 A 
ATOM     19  C   UNL d   1      44.664 -13.636  43.877  0.00  0.00     0.102 A 
ENDBRANCH  14  15
ENDBRANCH  13  14
ENDBRANCH  12  13
ENDBRANCH  11  12
ENDBRANCH   8  11
ENDBRANCH   1   8
BRANCH   4  20
ATOM     20  O   UNL d   1      46.562 -17.480  42.470  0.00  0.00    -0.327 OA
ATOM     21  C   UNL d   1      46.621 -17.639  41.665  0.00  0.00     0.181 C 
ENDBRANCH   4  20
BRANCH   3  22
ATOM     22  C   UNL d   1      45.998 -19.940  44.603  0.00  0.00     0.000 C 
ATOM     23  C   UNL d   1      45.224 -20.164  44.781  0.00  0.00     0.000 C 
ATOM     24  C   UNL d   1      46.632 -20.330  44.955  0.00  0.00     0.000 C 
ENDBRANCH   3  22
TORSDOF 8
ENDMDL
