MODEL 1
REMARK VINA RESULT:      -3.8      0.000      0.000
REMARK  3 active torsions:
REMARK  status: ('A' for Active; 'I' for Inactive)
REMARK    1  A    between atoms: C_9  and  C_4 
REMARK    2  A    between atoms: C_10  and  C_7 
REMARK    3  A    between atoms: C_11  and  C_10 
ROOT
ATOM      1  C   UNL d   1      33.095  20.390 -22.570  0.00  0.00     0.179 A 
ATOM      2  N   UNL d   1      32.899  19.896 -21.941  0.00  0.00    -0.282 N 
ATOM      3  N   UNL d   1      33.071  21.174 -22.302  0.00  0.00    -0.221 NA
ATOM      4  C   UNL d   1      32.860  21.165 -21.508  0.00  0.00     0.101 A 
ATOM      5  S   UNL d   1      33.241  19.917 -23.229  0.00  0.00    -0.048 SA
ATOM      6  C   UNL d   1      32.753  20.377 -21.282  0.00  0.00     0.101 A 
ATOM      7  C   UNL d   1      33.135  19.134 -23.006  0.00  0.00     0.050 A 
ATOM      8  C   UNL d   1      32.923  19.123 -22.204  0.00  0.00     0.089 A 
ENDROOT
BRANCH   7   9
ATOM      9  C   UNL d   1      33.225  18.476 -23.493  0.00  0.00     0.008 C 
BRANCH   9  10
ATOM     10  C   UNL d   1      32.560  18.073 -23.763  0.00  0.00     0.001 A 
ATOM     11  C   UNL d   1      32.297  17.397 -23.364  0.00  0.00     0.002 A 
ATOM     12  C   UNL d   1      31.632  16.994 -23.634  0.00  0.00     0.030 A 
ATOM     13  C   UNL d   1      31.227  17.262 -24.301  0.00  0.00     0.140 A 
ATOM     14  C   UNL d   1      31.488  17.934 -24.698  0.00  0.00     0.030 A 
ATOM     15  F   UNL d   1      30.557  16.852 -24.569  0.00  0.00    -0.204 F 
ATOM     16  C   UNL d   1      32.156  18.341 -24.430  0.00  0.00     0.002 A 
ENDBRANCH   9  10
ENDBRANCH   7   9
BRANCH   4  17
ATOM     17  C   UNL d   1      32.770  21.818 -21.021  0.00  0.00     0.019 A 
ATOM     18  C   UNL d   1      33.238  21.902 -20.352  0.00  0.00     0.002 A 
ATOM     19  C   UNL d   1      33.145  22.559 -19.864  0.00  0.00     0.000 A 
ATOM     20  C   UNL d   1      32.582  23.135 -20.048  0.00  0.00     0.000 A 
ATOM     21  C   UNL d   1      32.112  23.051 -20.721  0.00  0.00     0.000 A 
ATOM     22  C   UNL d   1      32.204  22.394 -21.209  0.00  0.00     0.002 A 
ENDBRANCH   4  17
TORSDOF 3
ENDMDL
MODEL 2
REMARK VINA RESULT:      -3.5      0.526      1.085
REMARK  3 active torsions:
REMARK  status: ('A' for Active; 'I' for Inactive)
REMARK    1  A    between atoms: C_9  and  C_4 
REMARK    2  A    between atoms: C_10  and  C_7 
REMARK    3  A    between atoms: C_11  and  C_10 
ROOT
ATOM      1  C   UNL d   1      33.044  19.740 -22.065  0.00  0.00     0.179 A 
ATOM      2  N   UNL d   1      33.135  20.235 -22.717  0.00  0.00    -0.282 N 
ATOM      3  N   UNL d   1      32.958  20.214 -21.389  0.00  0.00    -0.221 NA
ATOM      4  C   UNL d   1      32.996  21.000 -21.623  0.00  0.00     0.101 A 
ATOM      5  S   UNL d   1      33.072  18.962 -22.332  0.00  0.00    -0.048 SA
ATOM      6  C   UNL d   1      33.106  21.017 -22.443  0.00  0.00     0.101 A 
ATOM      7  C   UNL d   1      33.181  18.977 -23.145  0.00  0.00     0.050 A 
ATOM      8  C   UNL d   1      33.220  19.771 -23.383  0.00  0.00     0.089 A 
ENDROOT
BRANCH   7   9
ATOM      9  C   UNL d   1      33.241  18.319 -23.638  0.00  0.00     0.008 C 
BRANCH   9  10
ATOM     10  C   UNL d   1      32.560  17.982 -23.954  0.00  0.00     0.001 A 
ATOM     11  C   UNL d   1      32.270  18.245 -24.684  0.00  0.00     0.002 A 
ATOM     12  C   UNL d   1      31.589  17.908 -25.000  0.00  0.00     0.030 A 
ATOM     13  C   UNL d   1      31.195  17.308 -24.592  0.00  0.00     0.140 A 
ATOM     14  C   UNL d   1      31.482  17.046 -23.867  0.00  0.00     0.030 A 
ATOM     15  F   UNL d   1      30.509  16.972 -24.916  0.00  0.00    -0.204 F 
ATOM     16  C   UNL d   1      32.166  17.383 -23.546  0.00  0.00     0.002 A 
ENDBRANCH   9  10
ENDBRANCH   7   9
BRANCH   4  17
ATOM     17  C   UNL d   1      32.937  21.656 -21.135  0.00  0.00     0.019 A 
ATOM     18  C   UNL d   1      32.598  22.349 -21.414  0.00  0.00     0.002 A 
ATOM     19  C   UNL d   1      32.540  23.007 -20.922  0.00  0.00     0.000 A 
ATOM     20  C   UNL d   1      32.823  22.969 -20.146  0.00  0.00     0.000 A 
ATOM     21  C   UNL d   1      33.164  22.272 -19.866  0.00  0.00     0.000 A 
ATOM     22  C   UNL d   1      33.222  21.615 -20.358  0.00  0.00     0.002 A 
ENDBRANCH   4  17
TORSDOF 3
ENDMDL
MODEL 3
REMARK VINA RESULT:      -2.5      1.207      2.057
REMARK  3 active torsions:
REMARK  status: ('A' for Active; 'I' for Inactive)
REMARK    1  A    between atoms: C_9  and  C_4 
REMARK    2  A    between atoms: C_10  and  C_7 
REMARK    3  A    between atoms: C_11  and  C_10 
ROOT
ATOM      1  C   UNL d   1      32.443  18.882 -23.519  0.00  0.00     0.179 A 
ATOM      2  N   UNL d   1      32.688  18.424 -22.880  0.00  0.00    -0.282 N 
ATOM      3  N   UNL d   1      32.509  19.681 -23.304  0.00  0.00    -0.221 NA
ATOM      4  C   UNL d   1      32.793  19.716 -22.535  0.00  0.00     0.101 A 
ATOM      5  S   UNL d   1      32.226  18.374 -24.129  0.00  0.00    -0.048 SA
ATOM      6  C   UNL d   1      32.905  18.941 -22.270  0.00  0.00     0.101 A 
ATOM      7  C   UNL d   1      32.337  17.604 -23.866  0.00  0.00     0.050 A 
ATOM      8  C   UNL d   1      32.624  17.637 -23.089  0.00  0.00     0.089 A 
ENDROOT
BRANCH   7   9
ATOM      9  C   UNL d   1      32.188  16.919 -24.300  0.00  0.00     0.008 C 
BRANCH   9  10
ATOM     10  C   UNL d   1      31.453  16.552 -24.246  0.00  0.00     0.001 A 
ATOM     11  C   UNL d   1      30.804  16.866 -24.652  0.00  0.00     0.002 A 
ATOM     12  C   UNL d   1      30.069  16.500 -24.598  0.00  0.00     0.030 A 
ATOM     13  C   UNL d   1      29.979  15.819 -24.140  0.00  0.00     0.140 A 
ATOM     14  C   UNL d   1      30.623  15.505 -23.737  0.00  0.00     0.030 A 
ATOM     15  F   UNL d   1      29.235  15.453 -24.089  0.00  0.00    -0.204 F 
ATOM     16  C   UNL d   1      31.363  15.872 -23.789  0.00  0.00     0.002 A 
ENDBRANCH   9  10
ENDBRANCH   7   9
BRANCH   4  17
ATOM     17  C   UNL d   1      32.942  20.396 -22.102  0.00  0.00     0.019 A 
ATOM     18  C   UNL d   1      32.999  21.123 -22.479  0.00  0.00     0.002 A 
ATOM     19  C   UNL d   1      33.149  21.804 -22.041  0.00  0.00     0.000 A 
ATOM     20  C   UNL d   1      33.241  21.756 -21.221  0.00  0.00     0.000 A 
ATOM     21  C   UNL d   1      33.183  21.026 -20.842  0.00  0.00     0.000 A 
ATOM     22  C   UNL d   1      33.034  20.344 -21.279  0.00  0.00     0.002 A 
ENDBRANCH   4  17
TORSDOF 3
ENDMDL
MODEL 4
REMARK VINA RESULT:      -2.0      1.865      5.039
REMARK  3 active torsions:
REMARK  status: ('A' for Active; 'I' for Inactive)
REMARK    1  A    between atoms: C_9  and  C_4 
REMARK    2  A    between atoms: C_10  and  C_7 
REMARK    3  A    between atoms: C_11  and  C_10 
ROOT
ATOM      1  C   UNL d   1      32.871  19.713 -23.163  0.00  0.00     0.179 A 
ATOM      2  N   UNL d   1      32.981  19.496 -22.376  0.00  0.00    -0.282 N 
ATOM      3  N   UNL d   1      32.718  19.026 -23.602  0.00  0.00    -0.221 NA
ATOM      4  C   UNL d   1      32.733  18.387 -23.088  0.00  0.00     0.101 A 
ATOM      5  S   UNL d   1      32.955  20.531 -23.215  0.00  0.00    -0.048 SA
ATOM      6  C   UNL d   1      32.895  18.673 -22.329  0.00  0.00     0.101 A 
ATOM      7  C   UNL d   1      33.117  20.816 -22.463  0.00  0.00     0.050 A 
ATOM      8  C   UNL d   1      33.132  20.171 -21.942  0.00  0.00     0.089 A 
ENDROOT
BRANCH   7   9
ATOM      9  C   UNL d   1      33.241  21.606 -22.262  0.00  0.00     0.008 C 
BRANCH   9  10
ATOM     10  C   UNL d   1      32.888  21.917 -21.587  0.00  0.00     0.001 A 
ATOM     11  C   UNL d   1      32.184  22.347 -21.649  0.00  0.00     0.002 A 
ATOM     12  C   UNL d   1      31.830  22.657 -20.974  0.00  0.00     0.030 A 
ATOM     13  C   UNL d   1      32.177  22.541 -20.235  0.00  0.00     0.140 A 
ATOM     14  C   UNL d   1      32.877  22.114 -20.171  0.00  0.00     0.030 A 
ATOM     15  F   UNL d   1      31.817  22.857 -19.556  0.00  0.00    -0.204 F 
ATOM     16  C   UNL d   1      33.235  21.800 -20.847  0.00  0.00     0.002 A 
ENDBRANCH   9  10
ENDBRANCH   7   9
BRANCH   4  17
ATOM     17  C   UNL d   1      32.609  17.601 -23.285  0.00  0.00     0.019 A 
ATOM     18  C   UNL d   1      31.871  17.350 -23.543  0.00  0.00     0.002 A 
ATOM     19  C   UNL d   1      31.751  16.559 -23.741  0.00  0.00     0.000 A 
ATOM     20  C   UNL d   1      32.372  16.018 -23.680  0.00  0.00     0.000 A 
ATOM     21  C   UNL d   1      33.113  16.270 -23.421  0.00  0.00     0.000 A 
ATOM     22  C   UNL d   1      33.235  17.060 -23.223  0.00  0.00     0.002 A 
ENDBRANCH   4  17
TORSDOF 3
ENDMDL
