MODEL 1
REMARK VINA RESULT:      -3.5      0.000      0.000
REMARK  5 active torsions:
REMARK  status: ('A' for Active; 'I' for Inactive)
REMARK    1  A    between atoms: N_5  and  C_1 
REMARK    2  A    between atoms: C_8  and  C_2 
REMARK       I    between atoms: C_7  and  N_5 
REMARK    3  A    between atoms: C_9  and  C_7 
REMARK    4  A    between atoms: O_16  and  C_8 
REMARK    5  A    between atoms: C_20  and  O_16 
ROOT
ATOM      1  C   UNL d   1      58.698  -0.293  29.971  0.00  0.00     0.119 A 
ATOM      2  C   UNL d   1      58.971  -0.744  29.327  0.00  0.00     0.088 A 
ATOM      3  S   UNL d   1      59.205   0.338  30.092  0.00  0.00    -0.068 SA
ATOM      4  C   UNL d   1      59.679  -0.373  29.040  0.00  0.00     0.013 A 
ATOM      5  C   UNL d   1      59.807   0.294  29.525  0.00  0.00     0.031 A 
ATOM      6  C   UNL d   1      60.289  -0.394  28.486  0.00  0.00     0.001 A 
ATOM      7  C   UNL d   1      60.515   0.682  29.253  0.00  0.00     0.006 A 
ATOM      8  C   UNL d   1      60.788   0.244  28.620  0.00  0.00     0.001 A 
ENDROOT
BRANCH   1   9
ATOM      9  N   UNL d   1      57.997  -0.450  30.444  0.00  0.00    -0.201 NA
ATOM     10  C   UNL d   1      57.875  -0.027  31.157  0.00  0.00     0.286 C 
ATOM     11  O   UNL d   1      58.397   0.537  31.430  0.00  0.00    -0.265 OA
BRANCH  10  12
ATOM     12  C   UNL d   1      57.190  -0.178  31.623  0.00  0.00     0.087 A 
ATOM     13  S   UNL d   1      56.796   0.462  31.922  0.00  0.00    -0.082 SA
ATOM     14  C   UNL d   1      56.137   0.162  32.364  0.00  0.00     0.036 A 
ATOM     15  C   UNL d   1      56.156  -0.641  32.316  0.00  0.00     0.008 A 
ATOM     16  C   UNL d   1      56.803  -0.854  31.860  0.00  0.00     0.012 A 
ENDBRANCH  10  12
ENDBRANCH   1   9
BRANCH   2  17
ATOM     17  C   UNL d   1      58.630  -1.428  29.013  0.00  0.00     0.302 C 
ATOM     18  O   UNL d   1      58.008  -1.381  28.455  0.00  0.00    -0.259 OA
BRANCH  17  19
ATOM     19  O   UNL d   1      58.910  -2.184  29.255  0.00  0.00    -0.271 OA
BRANCH  19  20
ATOM     20  C   UNL d   1      58.656  -2.850  28.833  0.00  0.00     0.126 C 
ATOM     21  C   UNL d   1      59.051  -3.559  28.912  0.00  0.00     0.029 C 
ENDBRANCH  19  20
ENDBRANCH  17  19
ENDBRANCH   2  17
TORSDOF 5
ENDMDL
MODEL 2
REMARK VINA RESULT:      -1.6      1.541      3.485
REMARK  5 active torsions:
REMARK  status: ('A' for Active; 'I' for Inactive)
REMARK    1  A    between atoms: N_5  and  C_1 
REMARK    2  A    between atoms: C_8  and  C_2 
REMARK       I    between atoms: C_7  and  N_5 
REMARK    3  A    between atoms: C_9  and  C_7 
REMARK    4  A    between atoms: O_16  and  C_8 
REMARK    5  A    between atoms: C_20  and  O_16 
ROOT
ATOM      1  C   UNL d   1      59.421  -1.375  29.108  0.00  0.00     0.119 A 
ATOM      2  C   UNL d   1      59.136  -0.662  29.429  0.00  0.00     0.088 A 
ATOM      3  S   UNL d   1      60.224  -1.303  28.962  0.00  0.00    -0.068 SA
ATOM      4  C   UNL d   1      59.794  -0.127  29.482  0.00  0.00     0.013 A 
ATOM      5  C   UNL d   1      60.457  -0.541  29.189  0.00  0.00     0.031 A 
ATOM      6  C   UNL d   1      60.051   0.625  29.699  0.00  0.00     0.001 A 
ATOM      7  C   UNL d   1      61.130  -0.021  29.233  0.00  0.00     0.006 A 
ATOM      8  C   UNL d   1      60.857   0.682  29.547  0.00  0.00     0.001 A 
ENDROOT
BRANCH   1   9
ATOM      9  N   UNL d   1      58.961  -2.084  28.950  0.00  0.00    -0.201 NA
ATOM     10  C   UNL d   1      59.341  -2.830  28.935  0.00  0.00     0.286 C 
ATOM     11  O   UNL d   1      60.142  -2.921  29.066  0.00  0.00    -0.265 OA
BRANCH  10  12
ATOM     12  C   UNL d   1      58.894  -3.527  28.780  0.00  0.00     0.087 A 
ATOM     13  S   UNL d   1      59.305  -4.195  28.581  0.00  0.00    -0.082 SA
ATOM     14  C   UNL d   1      58.732  -4.808  28.455  0.00  0.00     0.036 A 
ATOM     15  C   UNL d   1      58.003  -4.491  28.581  0.00  0.00     0.008 A 
ATOM     16  C   UNL d   1      58.099  -3.703  28.782  0.00  0.00     0.012 A 
ENDBRANCH  10  12
ENDBRANCH   1   9
BRANCH   2  17
ATOM     17  C   UNL d   1      58.362  -0.489  29.658  0.00  0.00     0.302 C 
ATOM     18  O   UNL d   1      57.812  -0.172  29.113  0.00  0.00    -0.259 OA
BRANCH  17  19
ATOM     19  O   UNL d   1      58.118  -0.633  30.451  0.00  0.00    -0.271 OA
BRANCH  19  20
ATOM     20  C   UNL d   1      57.383  -0.342  30.695  0.00  0.00     0.126 C 
ATOM     21  C   UNL d   1      57.266  -0.125  31.471  0.00  0.00     0.029 C 
ENDBRANCH  19  20
ENDBRANCH  17  19
ENDBRANCH   2  17
TORSDOF 5
ENDMDL
