MODEL 1
REMARK VINA RESULT:      -8.8      0.000      0.000
REMARK  3 active torsions:
REMARK  status: ('A' for Active; 'I' for Inactive)
REMARK    1  A    between atoms: C_2  and  N_1 
REMARK    2  A    between atoms: C_4  and  N_1 
REMARK    3  A    between atoms: C_5  and  C_2 
ROOT
ATOM      1  N   UNL d   1      53.307  32.397  53.413  0.00  0.00    -0.184 N 
ATOM      2  O   UNL d   1      54.000  32.761  53.160  0.00  0.00    -0.080 OA
ENDROOT
BRANCH   1   3
ATOM      3  C   UNL d   1      52.693  32.848  53.712  0.00  0.00     0.108 C 
BRANCH   3   4
ATOM      4  C   UNL d   1      52.804  33.654  53.866  0.00  0.00     0.020 A 
ATOM      5  C   UNL d   1      52.571  34.214  53.300  0.00  0.00     0.004 A 
ATOM      6  C   UNL d   1      52.682  35.017  53.454  0.00  0.00     0.030 A 
ATOM      7  C   UNL d   1      53.020  35.261  54.157  0.00  0.00     0.140 A 
ATOM      8  C   UNL d   1      53.247  34.698  54.710  0.00  0.00     0.030 A 
ATOM      9  F   UNL d   1      53.131  36.061  54.310  0.00  0.00    -0.204 F 
ATOM     10  C   UNL d   1      53.140  33.892  54.567  0.00  0.00     0.004 A 
ENDBRANCH   3   4
ENDBRANCH   1   3
BRANCH   1  11
ATOM     11  C   UNL d   1      53.236  31.569  53.364  0.00  0.00     0.090 A 
ATOM     12  C   UNL d   1      52.679  31.237  52.873  0.00  0.00     0.020 A 
ATOM     13  C   UNL d   1      52.614  30.421  52.830  0.00  0.00     0.002 A 
ATOM     14  C   UNL d   1      53.112  29.940  53.283  0.00  0.00     0.000 A 
ATOM     15  C   UNL d   1      53.676  30.290  53.780  0.00  0.00     0.002 A 
ATOM     16  C   UNL d   1      53.741  31.101  53.823  0.00  0.00     0.020 A 
ENDBRANCH   1  11
TORSDOF 3
ENDMDL
MODEL 2
REMARK VINA RESULT:      -8.5      2.129      2.932
REMARK  3 active torsions:
REMARK  status: ('A' for Active; 'I' for Inactive)
REMARK    1  A    between atoms: C_2  and  N_1 
REMARK    2  A    between atoms: C_4  and  N_1 
REMARK    3  A    between atoms: C_5  and  C_2 
ROOT
ATOM      1  N   UNL d   1      52.684  33.477  53.657  0.00  0.00    -0.184 N 
ATOM      2  O   UNL d   1      52.224  32.801  53.570  0.00  0.00    -0.080 OA
ENDROOT
BRANCH   1   3
ATOM      3  C   UNL d   1      52.416  34.196  53.372  0.00  0.00     0.108 C 
BRANCH   3   4
ATOM      4  C   UNL d   1      51.701  34.238  52.957  0.00  0.00     0.020 A 
ATOM      5  C   UNL d   1      50.994  34.356  53.375  0.00  0.00     0.004 A 
ATOM      6  C   UNL d   1      50.281  34.399  52.961  0.00  0.00     0.030 A 
ATOM      7  C   UNL d   1      50.270  34.325  52.147  0.00  0.00     0.140 A 
ATOM      8  C   UNL d   1      50.976  34.209  51.744  0.00  0.00     0.030 A 
ATOM      9  F   UNL d   1      49.560  34.368  51.735  0.00  0.00    -0.204 F 
ATOM     10  C   UNL d   1      51.694  34.165  52.148  0.00  0.00     0.004 A 
ENDBRANCH   3   4
ENDBRANCH   1   3
BRANCH   1  11
ATOM     11  C   UNL d   1      53.423  33.424  54.037  0.00  0.00     0.090 A 
ATOM     12  C   UNL d   1      53.530  33.765  54.768  0.00  0.00     0.020 A 
ATOM     13  C   UNL d   1      54.260  33.710  55.136  0.00  0.00     0.002 A 
ATOM     14  C   UNL d   1      54.883  33.309  54.766  0.00  0.00     0.000 A 
ATOM     15  C   UNL d   1      54.762  32.966  54.022  0.00  0.00     0.002 A 
ATOM     16  C   UNL d   1      54.037  33.021  53.655  0.00  0.00     0.020 A 
ENDBRANCH   1  11
TORSDOF 3
ENDMDL
MODEL 3
REMARK VINA RESULT:      -8.5      2.124      3.165
REMARK  3 active torsions:
REMARK  status: ('A' for Active; 'I' for Inactive)
REMARK    1  A    between atoms: C_2  and  N_1 
REMARK    2  A    between atoms: C_4  and  N_1 
REMARK    3  A    between atoms: C_5  and  C_2 
ROOT
ATOM      1  N   UNL d   1      52.387  34.224  53.320  0.00  0.00    -0.184 N 
ATOM      2  O   UNL d   1      52.881  34.880  53.298  0.00  0.00    -0.080 OA
ENDROOT
BRANCH   1   3
ATOM      3  C   UNL d   1      52.605  33.559  53.744  0.00  0.00     0.108 C 
BRANCH   3   4
ATOM      4  C   UNL d   1      53.338  33.533  54.128  0.00  0.00     0.020 A 
ATOM      5  C   UNL d   1      53.966  33.115  53.781  0.00  0.00     0.004 A 
ATOM      6  C   UNL d   1      54.696  33.088  54.164  0.00  0.00     0.030 A 
ATOM      7  C   UNL d   1      54.803  33.471  54.878  0.00  0.00     0.140 A 
ATOM      8  C   UNL d   1      54.176  33.882  55.212  0.00  0.00     0.030 A 
ATOM      9  F   UNL d   1      55.531  33.445  55.259  0.00  0.00    -0.204 F 
ATOM     10  C   UNL d   1      53.441  33.914  54.839  0.00  0.00     0.004 A 
ENDBRANCH   3   4
ENDBRANCH   1   3
BRANCH   1  11
ATOM     11  C   UNL d   1      51.663  34.241  52.909  0.00  0.00     0.090 A 
ATOM     12  C   UNL d   1      50.965  34.335  53.316  0.00  0.00     0.020 A 
ATOM     13  C   UNL d   1      50.256  34.351  52.905  0.00  0.00     0.002 A 
ATOM     14  C   UNL d   1      50.252  34.272  52.081  0.00  0.00     0.000 A 
ATOM     15  C   UNL d   1      50.969  34.177  51.677  0.00  0.00     0.002 A 
ATOM     16  C   UNL d   1      51.674  34.161  52.085  0.00  0.00     0.020 A 
ENDBRANCH   1  11
TORSDOF 3
ENDMDL
MODEL 4
REMARK VINA RESULT:      -8.3      1.816      3.865
REMARK  3 active torsions:
REMARK  status: ('A' for Active; 'I' for Inactive)
REMARK    1  A    between atoms: C_2  and  N_1 
REMARK    2  A    between atoms: C_4  and  N_1 
REMARK    3  A    between atoms: C_5  and  C_2 
ROOT
ATOM      1  N   UNL d   1      53.346  32.908  54.014  0.00  0.00    -0.184 N 
ATOM      2  O   UNL d   1      53.514  32.504  54.710  0.00  0.00    -0.080 OA
ENDROOT
BRANCH   1   3
ATOM      3  C   UNL d   1      53.315  32.505  53.302  0.00  0.00     0.108 C 
BRANCH   3   4
ATOM      4  C   UNL d   1      53.235  31.681  53.295  0.00  0.00     0.020 A 
ATOM      5  C   UNL d   1      52.520  31.343  53.040  0.00  0.00     0.004 A 
ATOM      6  C   UNL d   1      52.440  30.522  53.032  0.00  0.00     0.030 A 
ATOM      7  C   UNL d   1      53.058  30.043  53.273  0.00  0.00     0.140 A 
ATOM      8  C   UNL d   1      53.759  30.388  53.523  0.00  0.00     0.030 A 
ATOM      9  F   UNL d   1      52.978  29.225  53.265  0.00  0.00    -0.204 F 
ATOM     10  C   UNL d   1      53.851  31.208  53.535  0.00  0.00     0.004 A 
ENDBRANCH   3   4
ENDBRANCH   1   3
BRANCH   1  11
ATOM     11  C   UNL d   1      53.208  33.728  54.038  0.00  0.00     0.090 A 
ATOM     12  C   UNL d   1      52.864  34.103  53.403  0.00  0.00     0.020 A 
ATOM     13  C   UNL d   1      52.731  34.911  53.434  0.00  0.00     0.002 A 
ATOM     14  C   UNL d   1      52.946  35.342  54.107  0.00  0.00     0.000 A 
ATOM     15  C   UNL d   1      53.295  34.950  54.748  0.00  0.00     0.002 A 
ATOM     16  C   UNL d   1      53.427  34.147  54.718  0.00  0.00     0.020 A 
ENDBRANCH   1  11
TORSDOF 3
ENDMDL
