MODEL 1
REMARK VINA RESULT:      70.8      0.000      0.000
REMARK  9 active torsions:
REMARK  status: ('A' for Active; 'I' for Inactive)
REMARK    1  A    between atoms: C_11  and  C_3 
REMARK    2  A    between atoms: C_12  and  N_6 
REMARK    3  A    between atoms: C_15  and  C_7 
REMARK    4  A    between atoms: O_24  and  C_11 
REMARK    5  A    between atoms: C_23  and  C_12 
REMARK    6  A    between atoms: O_26  and  C_14 
REMARK    7  A    between atoms: O_28  and  C_17 
REMARK    8  A    between atoms: C_22  and  C_23 
REMARK    9  A    between atoms: C_32  and  O_24 
ROOT
ATOM      1  C   UNL d   1     -50.439  25.579  33.345  0.00  0.00     0.080 A 
ATOM      2  C   UNL d   1     -50.125  26.346  33.354  0.00  0.00     0.267 A 
ATOM      3  C   UNL d   1     -51.580  24.727  33.329  0.00  0.00     0.107 A 
ATOM      4  C   UNL d   1     -49.946  24.922  33.343  0.00  0.00     0.108 A 
ATOM      5  C   UNL d   1     -51.087  24.071  33.327  0.00  0.00     0.208 A 
ATOM      6  N   UNL d   1     -49.304  26.446  33.361  0.00  0.00    -0.273 N 
ATOM      7  C   UNL d   1     -51.255  25.489  33.338  0.00  0.00     0.017 A 
ATOM      8  O   UNL d   1     -50.265  24.166  33.334  0.00  0.00    -0.288 OA
ATOM      9  C   UNL d   1     -49.119  25.029  33.350  0.00  0.00     0.043 A 
ATOM     10  C   UNL d   1     -48.805  25.796  33.359  0.00  0.00     0.069 A 
ATOM     11  O   UNL d   1     -50.622  27.004  33.357  0.00  0.00    -0.267 OA
ATOM     12  N   UNL d   1     -51.407  23.311  33.317  0.00  0.00    -0.121 N 
ATOM     13  C   UNL d   1     -47.985  25.897  33.366  0.00  0.00     0.019 C 
ENDROOT
BRANCH   6  14
ATOM     14  C   UNL d   1     -48.991  27.214  33.371  0.00  0.00     0.083 C 
BRANCH  14  15
ATOM     15  C   UNL d   1     -48.254  27.344  33.721  0.00  0.00     0.019 C 
BRANCH  15  16
ATOM     16  C   UNL d   1     -48.204  27.909  34.326  0.00  0.00     0.004 A 
ATOM     17  C   UNL d   1     -47.618  28.468  34.306  0.00  0.00     0.026 A 
ATOM     18  C   UNL d   1     -47.568  29.027  34.904  0.00  0.00     0.116 A 
ATOM     19  C   UNL d   1     -48.118  29.019  35.530  0.00  0.00     0.116 A 
ATOM     20  C   UNL d   1     -48.709  28.447  35.540  0.00  0.00     0.026 A 
ATOM     21  C   UNL d   1     -48.755  27.890  34.940  0.00  0.00     0.002 A 
BRANCH  18  22
ATOM     22  O   UNL d   1     -46.973  29.603  34.895  0.00  0.00    -0.326 OA
ATOM     23  C   UNL d   1     -46.197  29.376  34.773  0.00  0.00     0.181 C 
ENDBRANCH  18  22
BRANCH  19  24
ATOM     24  O   UNL d   1     -48.075  29.577  36.135  0.00  0.00    -0.326 OA
ATOM     25  C   UNL d   1     -47.848  30.348  35.970  0.00  0.00     0.181 C 
ENDBRANCH  19  24
ENDBRANCH  15  16
ENDBRANCH  14  15
ENDBRANCH   6  14
BRANCH   7  26
ATOM     26  C   UNL d   1     -51.751  26.147  33.341  0.00  0.00     0.020 A 
ATOM     27  C   UNL d   1     -51.433  26.900  33.358  0.00  0.00     0.099 A 
ATOM     28  N   UNL d   1     -51.921  27.554  33.361  0.00  0.00    -0.242 NA
ATOM     29  C   UNL d   1     -52.747  27.455  33.345  0.00  0.00     0.099 A 
ATOM     30  C   UNL d   1     -53.065  26.690  33.327  0.00  0.00     0.021 A 
ATOM     31  C   UNL d   1     -52.569  26.036  33.325  0.00  0.00     0.003 A 
ENDBRANCH   7  26
BRANCH   3  32
ATOM     32  C   UNL d   1     -52.402  24.632  33.322  0.00  0.00     0.304 C 
ATOM     33  O   UNL d   1     -52.895  25.289  33.307  0.00  0.00    -0.259 OA
BRANCH  32  34
ATOM     34  O   UNL d   1     -52.721  23.875  33.330  0.00  0.00    -0.271 OA
BRANCH  34  35
ATOM     35  C   UNL d   1     -53.147  23.588  33.980  0.00  0.00     0.126 C 
ATOM     36  C   UNL d   1     -53.853  23.191  33.856  0.00  0.00     0.029 C 
ENDBRANCH  34  35
ENDBRANCH  32  34
ENDBRANCH   3  32
TORSDOF 9
ENDMDL
