MODEL 1
REMARK VINA RESULT:      19.1      0.000      0.000
REMARK  5 active torsions:
REMARK  status: ('A' for Active; 'I' for Inactive)
REMARK    1  A    between atoms: C_4  and  S_1 
REMARK    2  A    between atoms: N_5  and  S_1 
REMARK    3  A    between atoms: C_2  and  C_8 
REMARK       I    between atoms: N_3  and  C_2 
REMARK    4  A    between atoms: C_16  and  N_5 
REMARK    5  A    between atoms: C_17  and  N_5 
ROOT
ATOM      1  C   UNL d   1      45.653 -16.709  43.939  0.00  0.00     0.104 A 
ATOM      2  C   UNL d   1      45.107 -15.231  44.437  0.00  0.00     0.057 A 
ATOM      3  C   UNL d   1      45.884 -16.406  44.675  0.00  0.00     0.013 A 
ATOM      4  C   UNL d   1      45.151 -16.274  43.453  0.00  0.00     0.013 A 
ATOM      5  C   UNL d   1      45.612 -15.670  44.922  0.00  0.00     0.005 A 
ATOM      6  C   UNL d   1      44.876 -15.533  43.700  0.00  0.00     0.005 A 
ENDROOT
BRANCH   1   7
ATOM      7  S   UNL d   1      45.930 -17.452  43.692  0.00  0.00     0.271 S 
ATOM      8  O   UNL d   1      45.961 -17.272  42.820  0.00  0.00    -0.200 OA
ATOM      9  O   UNL d   1      45.923 -17.714  44.600  0.00  0.00    -0.200 OA
BRANCH   7  10
ATOM     10  N   UNL d   1      46.203 -18.187  43.449  0.00  0.00    -0.229 N 
BRANCH  10  11
ATOM     11  C   UNL d   1      46.511 -18.276  42.685  0.00  0.00     0.092 C 
ATOM     12  C   UNL d   1      46.461 -19.006  42.304  0.00  0.00     0.021 C 
ENDBRANCH  10  11
BRANCH  10  13
ATOM     13  C   UNL d   1      46.175 -18.836  43.956  0.00  0.00     0.092 C 
ATOM     14  C   UNL d   1      46.646 -19.496  43.798  0.00  0.00     0.021 C 
ENDBRANCH  10  13
ENDBRANCH   7  10
ENDBRANCH   1   7
BRANCH   2  15
ATOM     15  C   UNL d   1      44.837 -14.491  44.692  0.00  0.00     0.265 C 
ATOM     16  N   UNL d   1      45.352 -13.850  44.686  0.00  0.00    -0.272 N 
ATOM     17  C   UNL d   1      46.130 -13.946  44.429  0.00  0.00     0.083 A 
ATOM     18  C   UNL d   1      45.090 -13.111  44.939  0.00  0.00     0.083 A 
ATOM     19  C   UNL d   1      46.645 -13.304  44.424  0.00  0.00     0.019 A 
ATOM     20  C   UNL d   1      46.383 -12.566  44.676  0.00  0.00     0.003 A 
ATOM     21  C   UNL d   1      45.605 -12.469  44.933  0.00  0.00     0.019 A 
ATOM     22  O   UNL d   1      44.058 -14.398  44.948  0.00  0.00    -0.267 OA
ENDBRANCH   2  15
TORSDOF 5
ENDMDL
