MODEL 1
REMARK VINA RESULT:      48.5      0.000      0.000
REMARK  2 active torsions:
REMARK  status: ('A' for Active; 'I' for Inactive)
REMARK    1  A    between atoms: N_2  and  S_1 
REMARK    2  A    between atoms: C_3  and  S_1 
ROOT
ATOM      1  S   UNL d   1     -47.674  31.305  34.868  0.00  0.00     0.287 S 
ATOM      2  O   UNL d   1     -47.426  32.034  35.162  0.00  0.00    -0.198 OA
ATOM      3  O   UNL d   1     -47.988  31.257  34.094  0.00  0.00    -0.198 OA
ENDROOT
BRANCH   1   4
ATOM      4  N   UNL d   1     -47.613  30.617  35.337  0.00  0.00    -0.152 N 
ATOM      5  N   UNL d   1     -47.983  29.909  35.090  0.00  0.00    -0.155 NA
ATOM      6  C   UNL d   1     -47.922  29.220  35.560  0.00  0.00     0.104 A 
ATOM      7  C   UNL d   1     -48.212  28.428  35.494  0.00  0.00     0.022 C 
ATOM      8  C   UNL d   1     -47.128  29.940  36.513  0.00  0.00     0.041 A 
ATOM      9  C   UNL d   1     -47.189  30.629  36.044  0.00  0.00     0.096 A 
ATOM     10  C   UNL d   1     -46.818  31.337  36.290  0.00  0.00     0.022 C 
ENDBRANCH   1   4
BRANCH   1  11
ATOM     11  C   UNL d   1     -47.762  32.305  34.186  0.00  0.00     0.117 A 
ATOM     12  C   UNL d   1     -48.437  32.659  34.048  0.00  0.00     0.025 A 
ATOM     13  C   UNL d   1     -48.457  33.302  33.603  0.00  0.00     0.059 A 
ATOM     14 CL   UNL d   1     -49.189  33.687  33.453  0.00  0.00    -0.082 Cl
ATOM     15  C   UNL d   1     -47.794  33.577  33.306  0.00  0.00     0.012 A 
ATOM     16  C   UNL d   1     -47.117  33.224  33.443  0.00  0.00     0.013 A 
ATOM     17  C   UNL d   1     -47.101  32.583  33.887  0.00  0.00     0.070 A 
ATOM     18 CL   UNL d   1     -46.375  32.200  34.037  0.00  0.00    -0.082 Cl
ENDBRANCH   1  11
TORSDOF 2
ENDMDL
