MODEL 1
REMARK VINA RESULT:      26.4      0.000      0.000
REMARK  4 active torsions:
REMARK  status: ('A' for Active; 'I' for Inactive)
REMARK    1  A    between atoms: C_6  and  N_1 
REMARK    2  A    between atoms: C_7  and  C_6 
REMARK    3  A    between atoms: C_14  and  C_7 
REMARK    4  A    between atoms: N_10  and  C_14 
ROOT
ATOM      1  N   UNL d   1      13.529  12.746  -2.917  0.00  0.00    -0.303 N 
ATOM      2  C   UNL d   1      13.758  13.541  -2.938  0.00  0.00     0.064 A 
ATOM      3  C   UNL d   1      13.644  13.823  -3.712  0.00  0.00     0.018 A 
ATOM      4  C   UNL d   1      13.274  12.536  -3.675  0.00  0.00     0.064 A 
ATOM      5  C   UNL d   1      13.345  13.199  -4.165  0.00  0.00     0.018 A 
ATOM      6  C   UNL d   1      14.056  14.048  -2.356  0.00  0.00     0.018 A 
ATOM      7  C   UNL d   1      13.827  14.605  -3.897  0.00  0.00     0.002 A 
ATOM      8  C   UNL d   1      12.987  11.826  -3.983  0.00  0.00     0.018 A 
ATOM      9  C   UNL d   1      13.128  13.149  -4.959  0.00  0.00     0.002 A 
ATOM     10  C   UNL d   1      14.124  15.110  -3.318  0.00  0.00     0.000 A 
ATOM     11  C   UNL d   1      14.240  14.837  -2.547  0.00  0.00     0.002 A 
ATOM     12  C   UNL d   1      12.772  11.779  -4.773  0.00  0.00     0.002 A 
ATOM     13  C   UNL d   1      12.842  12.442  -5.263  0.00  0.00     0.000 A 
ENDROOT
BRANCH   1  14
ATOM     14  C   UNL d   1      13.554  12.261  -2.259  0.00  0.00     0.124 C 
BRANCH  14  15
ATOM     15  C   UNL d   1      14.248  12.169  -1.831  0.00  0.00     0.232 C 
ATOM     16  O   UNL d   1      14.897  11.787  -2.163  0.00  0.00    -0.283 OA
BRANCH  15  17
ATOM     17  C   UNL d   1      14.293  12.464  -1.062  0.00  0.00     0.142 C 
BRANCH  17  18
ATOM     18  N   UNL d   1      14.456  11.955  -0.432  0.00  0.00    -0.237 NA
ATOM     19  C   UNL d   1      15.172  12.027  -0.030  0.00  0.00     0.120 C 
ENDBRANCH  17  18
ENDBRANCH  15  17
ENDBRANCH  14  15
ENDBRANCH   1  14
TORSDOF 4
ENDMDL
MODEL 2
REMARK VINA RESULT:      26.5      0.237      2.159
REMARK  4 active torsions:
REMARK  status: ('A' for Active; 'I' for Inactive)
REMARK    1  A    between atoms: C_6  and  N_1 
REMARK    2  A    between atoms: C_7  and  C_6 
REMARK    3  A    between atoms: C_14  and  C_7 
REMARK    4  A    between atoms: N_10  and  C_14 
ROOT
ATOM      1  N   UNL d   1      13.473  12.973  -2.914  0.00  0.00    -0.303 N 
ATOM      2  C   UNL d   1      13.253  12.669  -3.651  0.00  0.00     0.064 A 
ATOM      3  C   UNL d   1      13.395  13.253  -4.225  0.00  0.00     0.018 A 
ATOM      4  C   UNL d   1      13.751  13.743  -3.030  0.00  0.00     0.064 A 
ATOM      5  C   UNL d   1      13.704  13.916  -3.837  0.00  0.00     0.018 A 
ATOM      6  C   UNL d   1      12.940  11.938  -3.880  0.00  0.00     0.018 A 
ATOM      7  C   UNL d   1      13.226  13.103  -5.018  0.00  0.00     0.002 A 
ATOM      8  C   UNL d   1      14.042  14.308  -2.504  0.00  0.00     0.018 A 
ATOM      9  C   UNL d   1      13.947  14.653  -4.116  0.00  0.00     0.002 A 
ATOM     10  C   UNL d   1      12.915  12.375  -5.245  0.00  0.00     0.000 A 
ATOM     11  C   UNL d   1      12.770  11.790  -4.681  0.00  0.00     0.002 A 
ATOM     12  C   UNL d   1      14.284  15.041  -2.783  0.00  0.00     0.002 A 
ATOM     13  C   UNL d   1      14.236  15.214  -3.591  0.00  0.00     0.000 A 
ENDROOT
BRANCH   1  14
ATOM     14  C   UNL d   1      13.422  12.575  -2.200  0.00  0.00     0.124 C 
BRANCH  14  15
ATOM     15  C   UNL d   1      14.088  12.238  -1.860  0.00  0.00     0.232 C 
ATOM     16  O   UNL d   1      14.674  11.903  -2.329  0.00  0.00    -0.283 OA
BRANCH  15  17
ATOM     17  C   UNL d   1      14.167  12.238  -1.038  0.00  0.00     0.142 C 
BRANCH  17  18
ATOM     18  N   UNL d   1      14.755  11.781  -0.679  0.00  0.00    -0.237 NA
ATOM     19  C   UNL d   1      15.164  12.086  -0.031  0.00  0.00     0.120 C 
ENDBRANCH  17  18
ENDBRANCH  15  17
ENDBRANCH  14  15
ENDBRANCH   1  14
TORSDOF 4
ENDMDL
MODEL 3
REMARK VINA RESULT:      26.5      9.212     10.520
REMARK  4 active torsions:
REMARK  status: ('A' for Active; 'I' for Inactive)
REMARK    1  A    between atoms: C_6  and  N_1 
REMARK    2  A    between atoms: C_7  and  C_6 
REMARK    3  A    between atoms: C_14  and  C_7 
REMARK    4  A    between atoms: N_10  and  C_14 
ROOT
ATOM      1  N   UNL d   1      23.960  12.200  -2.470  0.00  0.00    -0.303 N 
ATOM      2  C   UNL d   1      23.245  12.608  -2.548  0.00  0.00     0.064 A 
ATOM      3  C   UNL d   1      22.966  12.789  -1.786  0.00  0.00     0.018 A 
ATOM      4  C   UNL d   1      24.124  12.128  -1.662  0.00  0.00     0.064 A 
ATOM      5  C   UNL d   1      23.512  12.491  -1.241  0.00  0.00     0.018 A 
ATOM      6  C   UNL d   1      22.808  12.840  -3.211  0.00  0.00     0.018 A 
ATOM      7  C   UNL d   1      22.256  13.199  -1.694  0.00  0.00     0.002 A 
ATOM      8  C   UNL d   1      24.753  11.779  -1.257  0.00  0.00     0.018 A 
ATOM      9  C   UNL d   1      23.530  12.504  -0.416  0.00  0.00     0.002 A 
ATOM     10  C   UNL d   1      21.821  13.430  -2.354  0.00  0.00     0.000 A 
ATOM     11  C   UNL d   1      22.092  13.253  -3.114  0.00  0.00     0.002 A 
ATOM     12  C   UNL d   1      24.768  11.793  -0.436  0.00  0.00     0.002 A 
ATOM     13  C   UNL d   1      24.156  12.156  -0.015  0.00  0.00     0.000 A 
ENDROOT
BRANCH   1  14
ATOM     14  C   UNL d   1      24.419  11.919  -3.087  0.00  0.00     0.124 C 
BRANCH  14  15
ATOM     15  C   UNL d   1      24.637  12.414  -3.705  0.00  0.00     0.232 C 
ATOM     16  O   UNL d   1      24.725  13.223  -3.583  0.00  0.00    -0.283 OA
BRANCH  15  17
ATOM     17  C   UNL d   1      24.768  12.093  -4.454  0.00  0.00     0.142 C 
BRANCH  17  18
ATOM     18  N   UNL d   1      24.513  12.498  -5.129  0.00  0.00    -0.237 NA
ATOM     19  C   UNL d   1      24.603  12.145  -5.868  0.00  0.00     0.120 C 
ENDBRANCH  17  18
ENDBRANCH  15  17
ENDBRANCH  14  15
ENDBRANCH   1  14
TORSDOF 4
ENDMDL
MODEL 4
REMARK VINA RESULT:      29.2      0.894      3.131
REMARK  4 active torsions:
REMARK  status: ('A' for Active; 'I' for Inactive)
REMARK    1  A    between atoms: C_6  and  N_1 
REMARK    2  A    between atoms: C_7  and  C_6 
REMARK    3  A    between atoms: C_14  and  C_7 
REMARK    4  A    between atoms: N_10  and  C_14 
ROOT
ATOM      1  N   UNL d   1      13.771  12.659  -2.090  0.00  0.00    -0.303 N 
ATOM      2  C   UNL d   1      14.000  13.420  -2.317  0.00  0.00     0.064 A 
ATOM      3  C   UNL d   1      14.535  13.710  -1.751  0.00  0.00     0.018 A 
ATOM      4  C   UNL d   1      14.162  12.476  -1.384  0.00  0.00     0.064 A 
ATOM      5  C   UNL d   1      14.632  13.123  -1.175  0.00  0.00     0.018 A 
ATOM      6  C   UNL d   1      13.795  13.892  -2.966  0.00  0.00     0.018 A 
ATOM      7  C   UNL d   1      14.858  14.463  -1.835  0.00  0.00     0.002 A 
ATOM      8  C   UNL d   1      14.149  11.804  -0.906  0.00  0.00     0.018 A 
ATOM      9  C   UNL d   1      15.089  13.096  -0.488  0.00  0.00     0.002 A 
ATOM     10  C   UNL d   1      14.654  14.933  -2.480  0.00  0.00     0.000 A 
ATOM     11  C   UNL d   1      14.123  14.652  -3.048  0.00  0.00     0.002 A 
ATOM     12  C   UNL d   1      14.604  11.779  -0.223  0.00  0.00     0.002 A 
ATOM     13  C   UNL d   1      15.075  12.426  -0.014  0.00  0.00     0.000 A 
ENDROOT
BRANCH   1  14
ATOM     14  C   UNL d   1      13.248  12.177  -2.497  0.00  0.00     0.124 C 
BRANCH  14  15
ATOM     15  C   UNL d   1      13.424  11.915  -3.255  0.00  0.00     0.232 C 
ATOM     16  O   UNL d   1      14.204  11.787  -3.483  0.00  0.00    -0.283 OA
BRANCH  15  17
ATOM     17  C   UNL d   1      12.810  11.779  -3.789  0.00  0.00     0.142 C 
BRANCH  17  18
ATOM     18  N   UNL d   1      12.796  12.177  -4.514  0.00  0.00    -0.237 NA
ATOM     19  C   UNL d   1      13.139  11.825  -5.174  0.00  0.00     0.120 C 
ENDBRANCH  17  18
ENDBRANCH  15  17
ENDBRANCH  14  15
ENDBRANCH   1  14
TORSDOF 4
ENDMDL
