MODEL 1
REMARK VINA RESULT:      54.6      0.000      0.000
REMARK  4 active torsions:
REMARK  status: ('A' for Active; 'I' for Inactive)
REMARK       I    between atoms: C_6  and  N_7 
REMARK    1  A    between atoms: C_9  and  C_6 
REMARK    2  A    between atoms: N_7  and  C_15 
REMARK    3  A    between atoms: C_15  and  C_14 
REMARK    4  A    between atoms: O_22  and  C_18 
ROOT
ATOM      1  C   UNL d   1      60.029  49.588  51.047  0.00  0.00     0.102 C 
ENDROOT
BRANCH   1   2
ATOM      2  N   UNL d   1      60.455  49.033  50.625  0.00  0.00    -0.206 NA
ATOM      3  C   UNL d   1      60.856  48.428  51.006  0.00  0.00     0.279 C 
ATOM      4  O   UNL d   1      60.829  48.377  51.829  0.00  0.00    -0.265 OA
BRANCH   3   5
ATOM      5  C   UNL d   1      61.287  47.867  50.580  0.00  0.00     0.058 A 
ATOM      6  C   UNL d   1      61.847  48.106  50.024  0.00  0.00     0.007 A 
ATOM      7  C   UNL d   1      62.270  47.534  49.606  0.00  0.00     0.024 A 
ATOM      8  C   UNL d   1      62.145  46.741  49.732  0.00  0.00     0.094 A 
ATOM      9  C   UNL d   1      61.575  46.497  50.299  0.00  0.00     0.024 A 
ATOM     10  C   UNL d   1      61.144  47.059  50.724  0.00  0.00     0.007 A 
BRANCH   8  11
ATOM     11  O   UNL d   1      62.562  46.167  49.320  0.00  0.00    -0.328 OA
ATOM     12  C   UNL d   1      62.138  45.558  48.939  0.00  0.00     0.181 C 
ENDBRANCH   8  11
ENDBRANCH   3   5
ENDBRANCH   1   2
BRANCH   1  13
ATOM     13  C   UNL d   1      59.209  49.612  50.997  0.00  0.00     0.019 A 
ATOM     14  C   UNL d   1      58.748  49.629  51.691  0.00  0.00     0.003 A 
ATOM     15  C   UNL d   1      57.924  49.654  51.639  0.00  0.00     0.018 A 
ATOM     16  C   UNL d   1      57.559  49.662  50.901  0.00  0.00     0.064 A 
ATOM     17  N   UNL d   1      56.766  49.685  50.680  0.00  0.00    -0.304 N 
ATOM     18  C   UNL d   1      58.007  49.646  50.210  0.00  0.00     0.018 A 
ATOM     19  C   UNL d   1      56.726  49.684  49.859  0.00  0.00     0.064 A 
ATOM     20  C   UNL d   1      56.123  49.707  51.198  0.00  0.00     0.099 C 
ATOM     21  C   UNL d   1      57.497  49.659  49.571  0.00  0.00     0.019 A 
ATOM     22  C   UNL d   1      56.039  49.703  49.403  0.00  0.00     0.019 C 
ATOM     23  C   UNL d   1      58.840  49.621  50.258  0.00  0.00     0.003 A 
ENDBRANCH   1  13
TORSDOF 4
ENDMDL
