MODEL 1
REMARK VINA RESULT:     135.9      0.000      0.000
REMARK  9 active torsions:
REMARK  status: ('A' for Active; 'I' for Inactive)
REMARK    1  A    between atoms: C_17  and  N_4 
REMARK    2  A    between atoms: S_16  and  C_7 
REMARK    3  A    between atoms: S_15  and  C_8 
REMARK    4  A    between atoms: C_11  and  C_19 
REMARK    5  A    between atoms: C_22  and  S_15 
REMARK    6  A    between atoms: C_19  and  S_16 
REMARK    7  A    between atoms: C_20  and  C_22 
REMARK    8  A    between atoms: O_25  and  C_20 
REMARK    9  A    between atoms: C_29  and  O_25 
ROOT
ATOM      1  N   UNL d   1      62.094  44.042  50.087  0.00  0.00    -0.269 N 
ATOM      2  C   UNL d   1      62.599  43.469  49.745  0.00  0.00     0.201 A 
ATOM      3  C   UNL d   1      62.136  44.723  49.635  0.00  0.00     0.177 A 
ATOM      4  N   UNL d   1      62.953  43.802  49.077  0.00  0.00    -0.121 NA
ATOM      5  N   UNL d   1      62.661  44.573  49.019  0.00  0.00    -0.127 NA
ENDROOT
BRANCH   3   6
ATOM      6  C   UNL d   1      61.695  45.376  49.844  0.00  0.00     0.078 C 
BRANCH   6   7
ATOM      7  S   UNL d   1      61.942  46.141  49.634  0.00  0.00    -0.045 SA
BRANCH   7   8
ATOM      8  C   UNL d   1      61.624  46.825  50.006  0.00  0.00     0.198 A 
ATOM      9  N   UNL d   1      61.598  47.552  49.590  0.00  0.00    -0.183 NA
ATOM     10  C   UNL d   1      61.290  48.221  49.945  0.00  0.00     0.283 A 
ATOM     11  C   UNL d   1      61.000  48.200  50.713  0.00  0.00     0.082 A 
ATOM     12  O   UNL d   1      61.273  48.951  49.503  0.00  0.00    -0.265 OA
ATOM     13  C   UNL d   1      61.017  47.494  51.139  0.00  0.00     0.117 A 
ATOM     14  C   UNL d   1      60.671  48.765  51.191  0.00  0.00     0.013 A 
ATOM     15  N   UNL d   1      61.322  46.805  50.805  0.00  0.00    -0.214 NA
ATOM     16  S   UNL d   1      60.702  47.621  51.875  0.00  0.00    -0.068 SA
ATOM     17  C   UNL d   1      60.486  48.414  51.907  0.00  0.00     0.031 A 
ATOM     18  C   UNL d   1      60.153  49.006  52.378  0.00  0.00     0.006 A 
ATOM     19  C   UNL d   1      60.126  49.708  51.982  0.00  0.00     0.001 A 
ATOM     20  C   UNL d   1      60.456  49.557  51.223  0.00  0.00     0.001 A 
ENDBRANCH   7   8
ENDBRANCH   6   7
ENDBRANCH   3   6
BRANCH   1  21
ATOM     21  C   UNL d   1      61.644  43.907  50.768  0.00  0.00     0.067 A 
ATOM     22  C   UNL d   1      62.006  43.894  51.510  0.00  0.00     0.018 A 
ATOM     23  C   UNL d   1      61.522  43.753  52.195  0.00  0.00     0.002 A 
ATOM     24  C   UNL d   1      60.716  43.634  52.127  0.00  0.00     0.000 A 
ATOM     25  C   UNL d   1      60.349  43.647  51.377  0.00  0.00     0.002 A 
ATOM     26  C   UNL d   1      60.807  43.782  50.701  0.00  0.00     0.018 A 
ENDBRANCH   1  21
BRANCH   2  27
ATOM     27  S   UNL d   1      62.754  42.670  50.003  0.00  0.00    -0.042 SA
BRANCH  27  28
ATOM     28  C   UNL d   1      62.792  42.076  49.434  0.00  0.00     0.107 C 
BRANCH  28  29
ATOM     29  C   UNL d   1      62.902  41.282  49.662  0.00  0.00     0.307 C 
ATOM     30  O   UNL d   1      62.758  41.045  50.442  0.00  0.00    -0.258 OA
BRANCH  29  31
ATOM     31  O   UNL d   1      63.156  40.744  49.094  0.00  0.00    -0.271 OA
BRANCH  31  32
ATOM     32  C   UNL d   1      62.669  40.126  48.828  0.00  0.00     0.126 C 
ATOM     33  C   UNL d   1      62.696  39.376  49.168  0.00  0.00     0.029 C 
ENDBRANCH  31  32
ENDBRANCH  29  31
ENDBRANCH  28  29
ENDBRANCH  27  28
ENDBRANCH   2  27
TORSDOF 9
ENDMDL
MODEL 2
REMARK VINA RESULT:     138.7      7.119      7.822
REMARK  9 active torsions:
REMARK  status: ('A' for Active; 'I' for Inactive)
REMARK    1  A    between atoms: C_17  and  N_4 
REMARK    2  A    between atoms: S_16  and  C_7 
REMARK    3  A    between atoms: S_15  and  C_8 
REMARK    4  A    between atoms: C_11  and  C_19 
REMARK    5  A    between atoms: C_22  and  S_15 
REMARK    6  A    between atoms: C_19  and  S_16 
REMARK    7  A    between atoms: C_20  and  C_22 
REMARK    8  A    between atoms: O_25  and  C_20 
REMARK    9  A    between atoms: C_29  and  O_25 
ROOT
ATOM      1  N   UNL d   1      57.681  40.012  54.960  0.00  0.00    -0.269 N 
ATOM      2  C   UNL d   1      58.053  39.278  55.110  0.00  0.00     0.201 A 
ATOM      3  C   UNL d   1      57.833  40.510  55.593  0.00  0.00     0.177 A 
ATOM      4  N   UNL d   1      58.437  39.327  55.840  0.00  0.00    -0.121 NA
ATOM      5  N   UNL d   1      58.295  40.089  56.127  0.00  0.00    -0.127 NA
ENDROOT
BRANCH   3   6
ATOM      6  C   UNL d   1      57.534  41.269  55.592  0.00  0.00     0.078 C 
BRANCH   6   7
ATOM      7  S   UNL d   1      57.466  41.700  56.299  0.00  0.00    -0.045 SA
BRANCH   7   8
ATOM      8  C   UNL d   1      57.444  42.541  56.303  0.00  0.00     0.198 A 
ATOM      9  N   UNL d   1      58.159  42.977  56.303  0.00  0.00    -0.183 NA
ATOM     10  C   UNL d   1      58.145  43.794  56.307  0.00  0.00     0.283 A 
ATOM     11  C   UNL d   1      57.435  44.207  56.311  0.00  0.00     0.082 A 
ATOM     12  O   UNL d   1      58.885  44.219  56.307  0.00  0.00    -0.265 OA
ATOM     13  C   UNL d   1      56.721  43.796  56.311  0.00  0.00     0.117 A 
ATOM     14  C   UNL d   1      57.261  44.998  56.315  0.00  0.00     0.013 A 
ATOM     15  N   UNL d   1      56.706  42.971  56.307  0.00  0.00    -0.214 NA
ATOM     16  S   UNL d   1      56.109  44.327  56.315  0.00  0.00    -0.068 SA
ATOM     17  C   UNL d   1      56.445  45.077  56.318  0.00  0.00     0.031 A 
ATOM     18  C   UNL d   1      56.290  45.889  56.322  0.00  0.00     0.006 A 
ATOM     19  C   UNL d   1      56.976  46.314  56.322  0.00  0.00     0.001 A 
ATOM     20  C   UNL d   1      57.597  45.747  56.318  0.00  0.00     0.001 A 
ENDBRANCH   7   8
ENDBRANCH   6   7
ENDBRANCH   3   6
BRANCH   1  21
ATOM     21  C   UNL d   1      57.241  40.172  54.278  0.00  0.00     0.067 A 
ATOM     22  C   UNL d   1      57.510  39.918  53.541  0.00  0.00     0.018 A 
ATOM     23  C   UNL d   1      57.040  40.094  52.854  0.00  0.00     0.002 A 
ATOM     24  C   UNL d   1      56.337  40.506  52.916  0.00  0.00     0.000 A 
ATOM     25  C   UNL d   1      56.064  40.764  53.663  0.00  0.00     0.002 A 
ATOM     26  C   UNL d   1      56.510  40.600  54.340  0.00  0.00     0.018 A 
ENDBRANCH   1  21
BRANCH   2  27
ATOM     27  S   UNL d   1      58.063  38.575  54.626  0.00  0.00    -0.042 SA
BRANCH  27  28
ATOM     28  C   UNL d   1      57.703  37.895  54.917  0.00  0.00     0.107 C 
BRANCH  28  29
ATOM     29  C   UNL d   1      57.883  37.150  54.588  0.00  0.00     0.307 C 
ATOM     30  O   UNL d   1      58.656  36.969  54.356  0.00  0.00    -0.258 OA
BRANCH  29  31
ATOM     31  O   UNL d   1      57.274  36.603  54.503  0.00  0.00    -0.271 OA
BRANCH  31  32
ATOM     32  C   UNL d   1      56.834  36.333  55.153  0.00  0.00     0.126 C 
ATOM     33  C   UNL d   1      56.171  35.853  55.059  0.00  0.00     0.029 C 
ENDBRANCH  31  32
ENDBRANCH  29  31
ENDBRANCH  28  29
ENDBRANCH  27  28
ENDBRANCH   2  27
TORSDOF 9
ENDMDL
