MODEL 1
REMARK VINA RESULT:      70.8      0.000      0.000
REMARK  6 active torsions:
REMARK  status: ('A' for Active; 'I' for Inactive)
REMARK    1  A    between atoms: N_10  and  C_3 
REMARK    2  A    between atoms: C_9  and  C_4 
REMARK    3  A    between atoms: C_20  and  N_13 
REMARK    4  A    between atoms: O_24  and  C_14 
REMARK    5  A    between atoms: O_26  and  C_16 
REMARK    6  A    between atoms: C_25  and  C_20 
ROOT
ATOM      1  N   UNL d   1      45.534 -18.204  40.282  0.00  0.00    -0.196 N 
ATOM      2  C   UNL d   1      45.678 -18.393  41.072  0.00  0.00     0.167 A 
ATOM      3  C   UNL d   1      45.165 -17.504  40.103  0.00  0.00     0.152 A 
ATOM      4  C   UNL d   1      46.045 -19.086  41.270  0.00  0.00     0.055 A 
ATOM      5  N   UNL d   1      46.130 -19.413  39.885  0.00  0.00    -0.163 NA
ATOM      6  C   UNL d   1      46.274 -19.602  40.675  0.00  0.00     0.104 A 
ATOM      7  N   UNL d   1      45.450 -17.877  41.667  0.00  0.00    -0.227 NA
ATOM      8  C   UNL d   1      44.933 -16.984  40.683  0.00  0.00     0.057 A 
ATOM      9  C   UNL d   1      45.077 -17.173  41.473  0.00  0.00     0.086 A 
ATOM     10  C   UNL d   1      46.640 -20.296  40.860  0.00  0.00     0.023 C 
ATOM     11  C   UNL d   1      44.840 -16.638  42.088  0.00  0.00     0.021 C 
ENDROOT
BRANCH   3  12
ATOM     12  N   UNL d   1      45.017 -17.310  39.293  0.00  0.00    -0.286 N 
ATOM     13  C   UNL d   1      45.475 -16.608  39.184  0.00  0.00     0.101 A 
ATOM     14  C   UNL d   1      45.480 -16.227  38.431  0.00  0.00     0.100 A 
ATOM     15  N   UNL d   1      45.034 -16.538  37.787  0.00  0.00    -0.300 N 
ATOM     16  C   UNL d   1      44.572 -17.250  37.903  0.00  0.00     0.100 A 
ATOM     17  C   UNL d   1      44.564 -17.632  38.649  0.00  0.00     0.101 A 
BRANCH  15  18
ATOM     18  C   UNL d   1      45.045 -16.147  37.031  0.00  0.00     0.080 C 
BRANCH  18  19
ATOM     19  C   UNL d   1      45.425 -15.396  36.956  0.00  0.00     0.018 A 
ATOM     20  C   UNL d   1      46.258 -15.351  36.881  0.00  0.00     0.002 A 
ATOM     21  C   UNL d   1      46.636 -14.596  36.806  0.00  0.00     0.000 A 
ATOM     22  C   UNL d   1      46.173 -13.898  36.807  0.00  0.00     0.000 A 
ATOM     23  C   UNL d   1      45.334 -13.948  36.882  0.00  0.00     0.000 A 
ATOM     24  C   UNL d   1      44.962 -14.697  36.956  0.00  0.00     0.002 A 
ENDBRANCH  18  19
ENDBRANCH  15  18
ENDBRANCH   3  12
BRANCH   4  25
ATOM     25  C   UNL d   1      46.187 -19.272  42.048  0.00  0.00     0.007 A 
ATOM     26  C   UNL d   1      46.338 -18.675  42.581  0.00  0.00     0.026 A 
ATOM     27  C   UNL d   1      46.482 -18.864  43.371  0.00  0.00     0.116 A 
ATOM     28  C   UNL d   1      46.472 -19.645  43.612  0.00  0.00     0.116 A 
ATOM     29  C   UNL d   1      46.320 -20.227  43.071  0.00  0.00     0.026 A 
ATOM     30  C   UNL d   1      46.177 -20.039  42.284  0.00  0.00     0.002 A 
BRANCH  27  31
ATOM     31  O   UNL d   1      46.637 -18.263  43.925  0.00  0.00    -0.326 OA
ATOM     32  C   UNL d   1      46.053 -18.071  44.521  0.00  0.00     0.181 C 
ENDBRANCH  27  31
BRANCH  28  33
ATOM     33  O   UNL d   1      46.620 -19.840  44.427  0.00  0.00    -0.326 OA
ATOM     34  C   UNL d   1      45.961 -19.963  44.953  0.00  0.00     0.181 C 
ENDBRANCH  28  33
ENDBRANCH   4  25
TORSDOF 6
ENDMDL
