MODEL 1
REMARK VINA RESULT:      -4.4      0.000      0.000
REMARK  3 active torsions:
REMARK  status: ('A' for Active; 'I' for Inactive)
REMARK    1  A    between atoms: C_6  and  N_1 
REMARK    2  A    between atoms: C_7  and  C_6 
REMARK    3  A    between atoms: C_8  and  C_7 
ROOT
ATOM      1  N   UNL d   1     -41.672-122.438 -53.820  0.00  0.00    -0.211 N 
ATOM      2  N   UNL d   1     -41.793-122.817 -55.098  0.00  0.00    -0.206 NA
ATOM      3  C   UNL d   1     -41.568-123.066 -54.341  0.00  0.00     0.166 A 
ATOM      4  N   UNL d   1     -41.966-121.789 -54.256  0.00  0.00    -0.144 NA
ATOM      5  C   UNL d   1     -42.040-122.026 -55.051  0.00  0.00     0.184 A 
ATOM      6  C   UNL d   1     -41.289-123.818 -54.152  0.00  0.00     0.042 C 
ATOM      7  C   UNL d   1     -42.310-121.557 -55.671  0.00  0.00     0.044 C 
ENDROOT
BRANCH   1   8
ATOM      8  C   UNL d   1     -41.517-122.437 -53.005  0.00  0.00     0.091 C 
ATOM      9  C   UNL d   1     -41.123-123.083 -52.670  0.00  0.00     0.021 C 
BRANCH   8  10
ATOM     10  C   UNL d   1     -41.751-121.805 -52.534  0.00  0.00     0.089 C 
BRANCH  10  11
ATOM     11  C   UNL d   1     -41.712-121.863 -51.711  0.00  0.00     0.213 C 
ATOM     12  O   UNL d   1     -41.131-121.454 -51.296  0.00  0.00    -0.644 OA
ATOM     13  O   UNL d   1     -42.258-122.334 -51.305  0.00  0.00    -0.644 OA
ENDBRANCH  10  11
ENDBRANCH   8  10
ENDBRANCH   1   8
TORSDOF 3
ENDMDL
MODEL 2
REMARK VINA RESULT:      -4.2      1.868      2.777
REMARK  3 active torsions:
REMARK  status: ('A' for Active; 'I' for Inactive)
REMARK    1  A    between atoms: C_6  and  N_1 
REMARK    2  A    between atoms: C_7  and  C_6 
REMARK    3  A    between atoms: C_8  and  C_7 
ROOT
ATOM      1  N   UNL d   1     -41.540-122.593 -51.366  0.00  0.00    -0.211 N 
ATOM      2  N   UNL d   1     -41.124-122.056 -52.519  0.00  0.00    -0.206 NA
ATOM      3  C   UNL d   1     -41.256-121.905 -51.716  0.00  0.00     0.166 A 
ATOM      4  N   UNL d   1     -41.585-123.181 -51.957  0.00  0.00    -0.144 NA
ATOM      5  C   UNL d   1     -41.326-122.846 -52.674  0.00  0.00     0.184 A 
ATOM      6  C   UNL d   1     -41.123-121.184 -51.340  0.00  0.00     0.042 C 
ATOM      7  C   UNL d   1     -41.281-123.232 -53.399  0.00  0.00     0.044 C 
ENDROOT
BRANCH   1   8
ATOM      8  C   UNL d   1     -41.748-122.696 -50.569  0.00  0.00     0.091 C 
ATOM      9  C   UNL d   1     -41.182-122.988 -50.041  0.00  0.00     0.021 C 
BRANCH   8  10
ATOM     10  C   UNL d   1     -42.505-122.512 -50.306  0.00  0.00     0.089 C 
BRANCH  10  11
ATOM     11  C   UNL d   1     -42.819-122.894 -49.645  0.00  0.00     0.213 C 
ATOM     12  O   UNL d   1     -42.652-122.615 -48.889  0.00  0.00    -0.644 OA
ATOM     13  O   UNL d   1     -43.301-123.559 -49.744  0.00  0.00    -0.644 OA
ENDBRANCH  10  11
ENDBRANCH   8  10
ENDBRANCH   1   8
TORSDOF 3
ENDMDL
MODEL 3
REMARK VINA RESULT:      -3.8      2.044      3.440
REMARK  3 active torsions:
REMARK  status: ('A' for Active; 'I' for Inactive)
REMARK    1  A    between atoms: C_6  and  N_1 
REMARK    2  A    between atoms: C_7  and  C_6 
REMARK    3  A    between atoms: C_8  and  C_7 
ROOT
ATOM      1  N   UNL d   1     -41.434-122.685 -51.941  0.00  0.00    -0.211 N 
ATOM      2  N   UNL d   1     -41.267-122.434 -50.637  0.00  0.00    -0.206 NA
ATOM      3  C   UNL d   1     -41.267-122.095 -51.392  0.00  0.00     0.166 A 
ATOM      4  N   UNL d   1     -41.539-123.400 -51.524  0.00  0.00    -0.144 NA
ATOM      5  C   UNL d   1     -41.435-123.243 -50.713  0.00  0.00     0.184 A 
ATOM      6  C   UNL d   1     -41.123-121.300 -51.556  0.00  0.00     0.042 C 
ATOM      7  C   UNL d   1     -41.490-123.793 -50.103  0.00  0.00     0.044 C 
ENDROOT
BRANCH   1   8
ATOM      8  C   UNL d   1     -41.490-122.596 -52.765  0.00  0.00     0.091 C 
ATOM      9  C   UNL d   1     -41.799-121.893 -53.073  0.00  0.00     0.021 C 
BRANCH   8  10
ATOM     10  C   UNL d   1     -41.242-123.197 -53.268  0.00  0.00     0.089 C 
BRANCH  10  11
ATOM     11  C   UNL d   1     -41.536-123.240 -54.039  0.00  0.00     0.213 C 
ATOM     12  O   UNL d   1     -42.239-123.640 -54.191  0.00  0.00    -0.644 OA
ATOM     13  O   UNL d   1     -41.123-122.880 -54.658  0.00  0.00    -0.644 OA
ENDBRANCH  10  11
ENDBRANCH   8  10
ENDBRANCH   1   8
TORSDOF 3
ENDMDL
MODEL 4
REMARK VINA RESULT:      -2.7      3.737      4.721
REMARK  3 active torsions:
REMARK  status: ('A' for Active; 'I' for Inactive)
REMARK    1  A    between atoms: C_6  and  N_1 
REMARK    2  A    between atoms: C_7  and  C_6 
REMARK    3  A    between atoms: C_8  and  C_7 
ROOT
ATOM      1  N   UNL d   1     -42.026-123.064 -49.286  0.00  0.00    -0.211 N 
ATOM      2  N   UNL d   1     -42.682-122.884 -50.438  0.00  0.00    -0.206 NA
ATOM      3  C   UNL d   1     -42.714-123.251 -49.697  0.00  0.00     0.166 A 
ATOM      4  N   UNL d   1     -41.560-122.574 -49.775  0.00  0.00    -0.144 NA
ATOM      5  C   UNL d   1     -41.968-122.463 -50.492  0.00  0.00     0.184 A 
ATOM      6  C   UNL d   1     -43.333-123.723 -49.427  0.00  0.00     0.042 C 
ATOM      7  C   UNL d   1     -41.708-122.017 -51.132  0.00  0.00     0.044 C 
ENDROOT
BRANCH   1   8
ATOM      8  C   UNL d   1     -41.822-123.312 -48.520  0.00  0.00     0.091 C 
ATOM      9  C   UNL d   1     -41.175-123.817 -48.420  0.00  0.00     0.021 C 
BRANCH   8  10
ATOM     10  C   UNL d   1     -42.255-123.059 -47.868  0.00  0.00     0.089 C 
BRANCH  10  11
ATOM     11  C   UNL d   1     -41.922-123.082 -47.114  0.00  0.00     0.213 C 
ATOM     12  O   UNL d   1     -41.797-123.805 -46.740  0.00  0.00    -0.644 OA
ATOM     13  O   UNL d   1     -41.713-122.377 -46.734  0.00  0.00    -0.644 OA
ENDBRANCH  10  11
ENDBRANCH   8  10
ENDBRANCH   1   8
TORSDOF 3
ENDMDL
