MODEL 1
REMARK VINA RESULT:      -3.2      0.000      0.000
REMARK  3 active torsions:
REMARK  status: ('A' for Active; 'I' for Inactive)
REMARK    1  A    between atoms: C_2  and  S_1 
REMARK    2  A    between atoms: N_3  and  S_1 
REMARK    3  A    between atoms: O_17  and  C_7 
ROOT
ATOM      1  S   UNL d   1      58.015  -0.062  30.770  0.00  0.00     0.273 S 
ATOM      2  O   UNL d   1      57.833  -0.792  30.397  0.00  0.00    -0.200 OA
ATOM      3  O   UNL d   1      58.200   0.663  31.135  0.00  0.00    -0.200 OA
ENDROOT
BRANCH   1   4
ATOM      4  C   UNL d   1      58.607   0.091  30.181  0.00  0.00     0.127 A 
ATOM      5  C   UNL d   1      59.392  -0.018  30.377  0.00  0.00     0.026 A 
ATOM      6  C   UNL d   1      59.985   0.126  29.818  0.00  0.00     0.059 A 
ATOM      7 CL   UNL d   1      60.783   0.013  30.023  0.00  0.00    -0.082 Cl
ATOM      8  C   UNL d   1      59.784   0.384  29.049  0.00  0.00     0.013 A 
ATOM      9  C   UNL d   1      58.970   0.491  28.863  0.00  0.00     0.026 A 
ATOM     10  C   UNL d   1      58.390   0.344  29.430  0.00  0.00     0.106 A 
BRANCH  10  11
ATOM     11  O   UNL d   1      57.592   0.457  29.225  0.00  0.00    -0.327 OA
ATOM     12  C   UNL d   1      57.392   0.682  28.455  0.00  0.00     0.181 C 
ENDBRANCH  10  11
ENDBRANCH   1   4
BRANCH   1  13
ATOM     13  N   UNL d   1      57.442  -0.201  31.347  0.00  0.00    -0.226 N 
ATOM     14  C   UNL d   1      57.067  -0.927  31.411  0.00  0.00     0.111 A 
ATOM     15  C   UNL d   1      56.494  -1.067  31.989  0.00  0.00     0.100 A 
ATOM     16  N   UNL d   1      56.289  -0.468  32.517  0.00  0.00    -0.299 N 
ATOM     17  C   UNL d   1      56.664   0.262  32.456  0.00  0.00     0.100 A 
ATOM     18  C   UNL d   1      55.859  -0.597  32.939  0.00  0.00     0.100 C 
ATOM     19  C   UNL d   1      57.235   0.397  31.877  0.00  0.00     0.111 A 
ENDBRANCH   1  13
TORSDOF 3
ENDMDL
MODEL 2
REMARK VINA RESULT:      -3.0      1.134      1.817
REMARK  3 active torsions:
REMARK  status: ('A' for Active; 'I' for Inactive)
REMARK    1  A    between atoms: C_2  and  S_1 
REMARK    2  A    between atoms: N_3  and  S_1 
REMARK    3  A    between atoms: O_17  and  C_7 
ROOT
ATOM      1  S   UNL d   1      57.382   0.042  31.300  0.00  0.00     0.273 S 
ATOM      2  O   UNL d   1      57.832  -0.602  31.595  0.00  0.00    -0.200 OA
ATOM      3  O   UNL d   1      56.939   0.682  31.003  0.00  0.00    -0.200 OA
ENDROOT
BRANCH   1   4
ATOM      4  C   UNL d   1      57.973   0.185  30.708  0.00  0.00     0.127 A 
ATOM      5  C   UNL d   1      57.787   0.044  29.925  0.00  0.00     0.026 A 
ATOM      6  C   UNL d   1      58.349   0.177  29.333  0.00  0.00     0.059 A 
ATOM      7 CL   UNL d   1      58.154   0.032  28.537  0.00  0.00    -0.082 Cl
ATOM      8  C   UNL d   1      59.111   0.457  29.532  0.00  0.00     0.013 A 
ATOM      9  C   UNL d   1      59.287   0.598  30.343  0.00  0.00     0.026 A 
ATOM     10  C   UNL d   1      58.717   0.461  30.922  0.00  0.00     0.106 A 
BRANCH  10  11
ATOM     11  O   UNL d   1      58.912   0.606  31.718  0.00  0.00    -0.327 OA
ATOM     12  C   UNL d   1      59.704   0.682  31.941  0.00  0.00     0.181 C 
ENDBRANCH  10  11
ENDBRANCH   1   4
BRANCH   1  13
ATOM     13  N   UNL d   1      56.801  -0.089  31.870  0.00  0.00    -0.226 N 
ATOM     14  C   UNL d   1      56.381   0.532  32.204  0.00  0.00     0.111 A 
ATOM     15  C   UNL d   1      55.800   0.401  32.775  0.00  0.00     0.100 A 
ATOM     16  N   UNL d   1      55.631  -0.368  33.021  0.00  0.00    -0.299 N 
ATOM     17  C   UNL d   1      56.050  -0.993  32.689  0.00  0.00     0.100 A 
ATOM     18  C   UNL d   1      55.193  -0.438  33.448  0.00  0.00     0.100 C 
ATOM     19  C   UNL d   1      56.630  -0.858  32.118  0.00  0.00     0.111 A 
ENDBRANCH   1  13
TORSDOF 3
ENDMDL
MODEL 3
REMARK VINA RESULT:      -2.1      2.679      3.704
REMARK  3 active torsions:
REMARK  status: ('A' for Active; 'I' for Inactive)
REMARK    1  A    between atoms: C_2  and  S_1 
REMARK    2  A    between atoms: N_3  and  S_1 
REMARK    3  A    between atoms: O_17  and  C_7 
ROOT
ATOM      1  S   UNL d   1      58.991  -1.529  29.446  0.00  0.00     0.273 S 
ATOM      2  O   UNL d   1      58.235  -1.798  29.201  0.00  0.00    -0.200 OA
ATOM      3  O   UNL d   1      59.739  -1.257  29.692  0.00  0.00    -0.200 OA
ENDROOT
BRANCH   1   4
ATOM      4  C   UNL d   1      58.645  -0.805  29.722  0.00  0.00     0.127 A 
ATOM      5  C   UNL d   1      58.129  -0.834  30.355  0.00  0.00     0.026 A 
ATOM      6  C   UNL d   1      57.780  -0.141  30.640  0.00  0.00     0.059 A 
ATOM      7 CL   UNL d   1      57.256  -0.176  31.285  0.00  0.00    -0.082 Cl
ATOM      8  C   UNL d   1      57.952   0.595  30.282  0.00  0.00     0.013 A 
ATOM      9  C   UNL d   1      58.485   0.607  29.630  0.00  0.00     0.026 A 
ATOM     10  C   UNL d   1      58.826  -0.092  29.357  0.00  0.00     0.106 A 
BRANCH  10  11
ATOM     11  O   UNL d   1      59.350  -0.057  28.712  0.00  0.00    -0.327 OA
ATOM     12  C   UNL d   1      59.639   0.674  28.456  0.00  0.00     0.181 C 
ENDBRANCH  10  11
ENDBRANCH   1   4
BRANCH   1  13
ATOM     13  N   UNL d   1      59.339  -2.229  29.181  0.00  0.00    -0.226 N 
ATOM     14  C   UNL d   1      60.120  -2.410  29.352  0.00  0.00     0.111 A 
ATOM     15  C   UNL d   1      60.468  -3.110  29.087  0.00  0.00     0.100 A 
ATOM     16  N   UNL d   1      60.026  -3.645  28.641  0.00  0.00    -0.299 N 
ATOM     17  C   UNL d   1      59.242  -3.467  28.468  0.00  0.00     0.100 A 
ATOM     18  C   UNL d   1      60.309  -4.160  28.455  0.00  0.00     0.100 C 
ATOM     19  C   UNL d   1      58.898  -2.766  28.734  0.00  0.00     0.111 A 
ENDBRANCH   1  13
TORSDOF 3
ENDMDL
MODEL 4
REMARK VINA RESULT:      -0.8      9.596      9.916
REMARK  3 active torsions:
REMARK  status: ('A' for Active; 'I' for Inactive)
REMARK    1  A    between atoms: C_2  and  S_1 
REMARK    2  A    between atoms: N_3  and  S_1 
REMARK    3  A    between atoms: O_17  and  C_7 
ROOT
ATOM      1  S   UNL d   1      59.433  -9.364  33.192  0.00  0.00     0.273 S 
ATOM      2  O   UNL d   1      58.737  -8.906  33.088  0.00  0.00    -0.200 OA
ATOM      3  O   UNL d   1      60.124  -9.818  33.290  0.00  0.00    -0.200 OA
ENDROOT
BRANCH   1   4
ATOM      4  C   UNL d   1      59.457  -9.518  32.358  0.00  0.00     0.127 A 
ATOM      5  C   UNL d   1      60.182  -9.521  31.981  0.00  0.00     0.026 A 
ATOM      6  C   UNL d   1      60.229  -9.669  31.169  0.00  0.00     0.059 A 
ATOM      7 CL   UNL d   1      60.969  -9.672  30.790  0.00  0.00    -0.082 Cl
ATOM      8  C   UNL d   1      59.534  -9.816  30.728  0.00  0.00     0.013 A 
ATOM      9  C   UNL d   1      58.795  -9.809  31.131  0.00  0.00     0.026 A 
ATOM     10  C   UNL d   1      58.764  -9.660  31.942  0.00  0.00     0.106 A 
BRANCH  10  11
ATOM     11  O   UNL d   1      58.023  -9.658  32.320  0.00  0.00    -0.327 OA
ATOM     12  C   UNL d   1      57.338  -9.818  31.886  0.00  0.00     0.181 C 
ENDBRANCH  10  11
ENDBRANCH   1   4
BRANCH   1  13
ATOM     13  N   UNL d   1      59.419  -9.220  34.005  0.00  0.00    -0.226 N 
ATOM     14  C   UNL d   1      59.236  -9.812  34.541  0.00  0.00     0.111 A 
ATOM     15  C   UNL d   1      59.221  -9.668  35.354  0.00  0.00     0.100 A 
ATOM     16  N   UNL d   1      59.394  -8.915  35.641  0.00  0.00    -0.299 N 
ATOM     17  C   UNL d   1      59.578  -8.318  35.106  0.00  0.00     0.100 A 
ATOM     18  C   UNL d   1      59.377  -8.834  36.251  0.00  0.00     0.100 C 
ATOM     19  C   UNL d   1      59.591  -8.466  34.295  0.00  0.00     0.111 A 
ENDBRANCH   1  13
TORSDOF 3
ENDMDL
