MODEL 1
REMARK VINA RESULT:      -2.0      0.000      0.000
REMARK  8 active torsions:
REMARK  status: ('A' for Active; 'I' for Inactive)
REMARK       I    between atoms: C_2  and  N_1 
REMARK    1  A    between atoms: C_3  and  N_1 
REMARK    2  A    between atoms: C_4  and  C_2 
REMARK    3  A    between atoms: N_12  and  C_3 
REMARK    4  A    between atoms: O_19  and  C_5 
REMARK    5  A    between atoms: O_20  and  C_6 
REMARK    6  A    between atoms: O_21  and  C_7 
REMARK    7  A    between atoms: C_10  and  C_18 
REMARK    8  A    between atoms: C_18  and  N_12 
ROOT
ATOM      1  C   UNL d   1     -41.873-122.515 -50.115  0.00  0.00     0.062 A 
ATOM      2  C   UNL d   1     -42.364-123.378 -48.786  0.00  0.00     0.138 A 
ATOM      3  C   UNL d   1     -41.623-122.998 -48.785  0.00  0.00     0.118 A 
ATOM      4  C   UNL d   1     -42.843-123.316 -49.459  0.00  0.00     0.118 A 
ATOM      5  C   UNL d   1     -42.602-122.890 -50.115  0.00  0.00     0.031 A 
ATOM      6  C   UNL d   1     -41.382-122.566 -49.455  0.00  0.00     0.031 A 
ENDROOT
BRANCH   1   7
ATOM      7  C   UNL d   1     -41.631-122.081 -50.790  0.00  0.00     0.281 C 
ATOM      8  N   UNL d   1     -41.758-122.403 -51.547  0.00  0.00    -0.179 NA
ATOM      9  O   UNL d   1     -41.275-121.351 -50.716  0.00  0.00    -0.265 OA
BRANCH   8  10
ATOM     10  C   UNL d   1     -41.518-121.973 -52.215  0.00  0.00     0.224 C 
ATOM     11  S   UNL d   1     -41.163-121.229 -52.190  0.00  0.00    -0.037 SA
BRANCH  10  12
ATOM     12  N   UNL d   1     -41.655-122.333 -52.931  0.00  0.00    -0.214 NA
BRANCH  12  13
ATOM     13  C   UNL d   1     -41.946-121.893 -53.565  0.00  0.00     0.126 C 
BRANCH  13  14
ATOM     14  C   UNL d   1     -42.122-122.252 -54.282  0.00  0.00     0.119 A 
ATOM     15  O   UNL d   1     -42.102-123.075 -54.468  0.00  0.00    -0.304 OA
ATOM     16  C   UNL d   1     -42.324-123.159 -55.256  0.00  0.00     0.123 A 
ATOM     17  C   UNL d   1     -42.481-122.423 -55.564  0.00  0.00     0.029 A 
ATOM     18  C   UNL d   1     -42.357-121.848 -54.961  0.00  0.00     0.028 A 
ENDBRANCH  13  14
ENDBRANCH  12  13
ENDBRANCH  10  12
ENDBRANCH   8  10
ENDBRANCH   1   7
BRANCH   4  19
ATOM     19  O   UNL d   1     -43.588-123.701 -49.455  0.00  0.00    -0.326 OA
ATOM     20  C   UNL d   1     -44.098-123.601 -50.114  0.00  0.00     0.181 C 
ENDBRANCH   4  19
BRANCH   3  21
ATOM     21  O   UNL d   1     -41.124-123.052 -48.108  0.00  0.00    -0.326 OA
ATOM     22  C   UNL d   1     -41.237-122.568 -47.458  0.00  0.00     0.181 C 
ENDBRANCH   3  21
BRANCH   2  23
ATOM     23  O   UNL d   1     -42.620-123.817 -48.119  0.00  0.00    -0.324 OA
ATOM     24  C   UNL d   1     -43.414-123.809 -47.878  0.00  0.00     0.182 C 
ENDBRANCH   2  23
TORSDOF 8
ENDMDL
MODEL 2
REMARK VINA RESULT:      -0.2      1.284      5.473
REMARK  8 active torsions:
REMARK  status: ('A' for Active; 'I' for Inactive)
REMARK       I    between atoms: C_2  and  N_1 
REMARK    1  A    between atoms: C_3  and  N_1 
REMARK    2  A    between atoms: C_4  and  C_2 
REMARK    3  A    between atoms: N_12  and  C_3 
REMARK    4  A    between atoms: O_19  and  C_5 
REMARK    5  A    between atoms: O_20  and  C_6 
REMARK    6  A    between atoms: O_21  and  C_7 
REMARK    7  A    between atoms: C_10  and  C_18 
REMARK    8  A    between atoms: C_18  and  N_12 
ROOT
ATOM      1  C   UNL d   1     -41.769-122.751 -53.335  0.00  0.00     0.062 A 
ATOM      2  C   UNL d   1     -42.085-121.929 -54.741  0.00  0.00     0.138 A 
ATOM      3  C   UNL d   1     -42.241-122.746 -54.692  0.00  0.00     0.118 A 
ATOM      4  C   UNL d   1     -41.773-121.543 -54.079  0.00  0.00     0.118 A 
ATOM      5  C   UNL d   1     -41.616-121.947 -53.385  0.00  0.00     0.031 A 
ATOM      6  C   UNL d   1     -42.080-123.153 -53.984  0.00  0.00     0.031 A 
ENDROOT
BRANCH   1   7
ATOM      7  C   UNL d   1     -41.606-123.160 -52.621  0.00  0.00     0.281 C 
ATOM      8  N   UNL d   1     -41.946-122.887 -51.912  0.00  0.00    -0.179 NA
ATOM      9  O   UNL d   1     -41.123-123.817 -52.613  0.00  0.00    -0.265 OA
BRANCH   8  10
ATOM     10  C   UNL d   1     -41.784-123.293 -51.205  0.00  0.00     0.224 C 
ATOM     11  S   UNL d   1     -41.156-123.817 -51.099  0.00  0.00    -0.037 SA
BRANCH  10  12
ATOM     12  N   UNL d   1     -42.298-123.145 -50.592  0.00  0.00    -0.214 NA
BRANCH  12  13
ATOM     13  C   UNL d   1     -42.025-122.782 -49.905  0.00  0.00     0.126 C 
BRANCH  13  14
ATOM     14  C   UNL d   1     -42.336-122.979 -49.171  0.00  0.00     0.119 A 
ATOM     15  O   UNL d   1     -42.009-122.821 -48.410  0.00  0.00    -0.304 OA
ATOM     16  C   UNL d   1     -42.525-123.127 -47.847  0.00  0.00     0.123 A 
ATOM     17  C   UNL d   1     -43.157-123.468 -48.228  0.00  0.00     0.029 A 
ATOM     18  C   UNL d   1     -43.048-123.381 -49.059  0.00  0.00     0.028 A 
ENDBRANCH  13  14
ENDBRANCH  12  13
ENDBRANCH  10  12
ENDBRANCH   8  10
ENDBRANCH   1   7
BRANCH   4  19
ATOM     19  O   UNL d   1     -41.618-120.721 -54.134  0.00  0.00    -0.326 OA
ATOM     20  C   UNL d   1     -41.508-120.282 -53.426  0.00  0.00     0.181 C 
ENDBRANCH   4  19
BRANCH   3  21
ATOM     21  O   UNL d   1     -42.560-123.153 -55.358  0.00  0.00    -0.326 OA
ATOM     22  C   UNL d   1     -43.051-123.800 -55.264  0.00  0.00     0.181 C 
ENDBRANCH   3  21
BRANCH   2  23
ATOM     23  O   UNL d   1     -42.243-121.506 -55.448  0.00  0.00    -0.324 OA
ATOM     24  C   UNL d   1     -41.758-121.590 -56.116  0.00  0.00     0.182 C 
ENDBRANCH   2  23
TORSDOF 8
ENDMDL
