MODEL 1
REMARK VINA RESULT:      40.3      0.000      0.000
REMARK  5 active torsions:
REMARK  status: ('A' for Active; 'I' for Inactive)
REMARK    1  A    between atoms: C_2  and  S_1 
REMARK    2  A    between atoms: N_4  and  S_1 
REMARK    3  A    between atoms: C_11  and  N_4 
REMARK    4  A    between atoms: O_14  and  C_5 
REMARK    5  A    between atoms: O_15  and  C_7 
ROOT
ATOM      1  C   UNL d   1     -51.065  25.648  33.825  0.00  0.00     0.129 A 
ATOM      2  C   UNL d   1     -51.562  26.307  33.851  0.00  0.00     0.040 A 
ATOM      3  C   UNL d   1     -50.252  25.755  33.804  0.00  0.00     0.107 A 
ATOM      4  C   UNL d   1     -49.926  26.508  33.809  0.00  0.00     0.034 A 
ATOM      5  C   UNL d   1     -51.242  27.068  33.856  0.00  0.00     0.101 A 
ATOM      6  C   UNL d   1     -50.423  27.167  33.835  0.00  0.00     0.059 A 
ATOM      7 BR   UNL d   1     -50.107  27.934  33.840  0.00  0.00    -0.047 Br
ENDROOT
BRANCH   1   8
ATOM      8  S   UNL d   1     -51.391  24.895  33.821  0.00  0.00     0.287 S 
ATOM      9  O   UNL d   1     -51.986  25.137  34.326  0.00  0.00    -0.198 OA
ATOM     10  O   UNL d   1     -50.792  24.646  33.311  0.00  0.00    -0.198 OA
BRANCH   8  11
ATOM     11  N   UNL d   1     -51.714  24.135  33.812  0.00  0.00    -0.157 NA
BRANCH  11  12
ATOM     12  C   UNL d   1     -52.523  24.034  33.685  0.00  0.00     0.113 A 
ATOM     13  C   UNL d   1     -53.038  24.658  33.805  0.00  0.00     0.119 A 
ATOM     14  N   UNL d   1     -53.846  24.557  33.678  0.00  0.00    -0.241 NA
ATOM     15  C   UNL d   1     -54.141  23.821  33.428  0.00  0.00     0.099 A 
ATOM     16  C   UNL d   1     -53.615  23.194  33.309  0.00  0.00     0.022 A 
ATOM     17  C   UNL d   1     -52.806  23.296  33.436  0.00  0.00     0.023 A 
ENDBRANCH  11  12
ENDBRANCH   8  11
ENDBRANCH   1   8
BRANCH   3  18
ATOM     18  O   UNL d   1     -49.754  25.095  33.778  0.00  0.00    -0.327 OA
ATOM     19  C   UNL d   1     -49.070  25.111  33.317  0.00  0.00     0.181 C 
ENDBRANCH   3  18
BRANCH   5  20
ATOM     20  O   UNL d   1     -51.740  27.727  33.882  0.00  0.00    -0.328 OA
ATOM     21  C   UNL d   1     -52.327  27.825  33.311  0.00  0.00     0.181 C 
ENDBRANCH   5  20
TORSDOF 5
ENDMDL
MODEL 2
REMARK VINA RESULT:      40.5      1.969      3.552
REMARK  5 active torsions:
REMARK  status: ('A' for Active; 'I' for Inactive)
REMARK    1  A    between atoms: C_2  and  S_1 
REMARK    2  A    between atoms: N_4  and  S_1 
REMARK    3  A    between atoms: C_11  and  N_4 
REMARK    4  A    between atoms: O_14  and  C_5 
REMARK    5  A    between atoms: O_15  and  C_7 
ROOT
ATOM      1  C   UNL d   1     -51.174  25.174  33.413  0.00  0.00     0.129 A 
ATOM      2  C   UNL d   1     -51.991  25.268  33.493  0.00  0.00     0.040 A 
ATOM      3  C   UNL d   1     -50.854  24.419  33.389  0.00  0.00     0.107 A 
ATOM      4  C   UNL d   1     -51.335  23.755  33.443  0.00  0.00     0.034 A 
ATOM      5  C   UNL d   1     -52.481  24.606  33.548  0.00  0.00     0.101 A 
ATOM      6  C   UNL d   1     -52.152  23.849  33.523  0.00  0.00     0.059 A 
ATOM      7 BR   UNL d   1     -52.649  23.188  33.579  0.00  0.00    -0.047 Br
ENDROOT
BRANCH   1   8
ATOM      8  S   UNL d   1     -50.694  25.837  33.359  0.00  0.00     0.287 S 
ATOM      9  O   UNL d   1     -51.349  26.322  33.311  0.00  0.00    -0.198 OA
ATOM     10  O   UNL d   1     -50.029  25.351  33.408  0.00  0.00    -0.198 OA
BRANCH   8  11
ATOM     11  N   UNL d   1     -50.204  26.499  33.306  0.00  0.00    -0.157 NA
BRANCH  11  12
ATOM     12  C   UNL d   1     -49.886  26.831  33.991  0.00  0.00     0.113 A 
ATOM     13  C   UNL d   1     -50.374  27.204  34.532  0.00  0.00     0.119 A 
ATOM     14  N   UNL d   1     -50.056  27.535  35.217  0.00  0.00    -0.241 NA
ATOM     15  C   UNL d   1     -49.237  27.491  35.361  0.00  0.00     0.099 A 
ATOM     16  C   UNL d   1     -48.750  27.113  34.810  0.00  0.00     0.022 A 
ATOM     17  C   UNL d   1     -49.069  26.782  34.125  0.00  0.00     0.023 A 
ENDBRANCH  11  12
ENDBRANCH   8  11
ENDBRANCH   1   8
BRANCH   3  18
ATOM     18  O   UNL d   1     -50.036  24.324  33.309  0.00  0.00    -0.327 OA
ATOM     19  C   UNL d   1     -49.661  23.673  33.648  0.00  0.00     0.181 C 
ENDBRANCH   3  18
BRANCH   5  20
ATOM     20  O   UNL d   1     -53.298  24.700  33.628  0.00  0.00    -0.328 OA
ATOM     21  C   UNL d   1     -53.671  25.364  33.311  0.00  0.00     0.181 C 
ENDBRANCH   5  20
TORSDOF 5
ENDMDL
MODEL 3
REMARK VINA RESULT:      40.8      1.933      3.543
REMARK  5 active torsions:
REMARK  status: ('A' for Active; 'I' for Inactive)
REMARK    1  A    between atoms: C_2  and  S_1 
REMARK    2  A    between atoms: N_4  and  S_1 
REMARK    3  A    between atoms: C_11  and  N_4 
REMARK    4  A    between atoms: O_14  and  C_5 
REMARK    5  A    between atoms: O_15  and  C_7 
ROOT
ATOM      1  C   UNL d   1     -52.434  24.497  33.424  0.00  0.00     0.129 A 
ATOM      2  C   UNL d   1     -53.142  24.921  33.461  0.00  0.00     0.040 A 
ATOM      3  C   UNL d   1     -52.454  23.680  33.349  0.00  0.00     0.107 A 
ATOM      4  C   UNL d   1     -53.169  23.278  33.312  0.00  0.00     0.034 A 
ATOM      5  C   UNL d   1     -53.864  24.524  33.424  0.00  0.00     0.101 A 
ATOM      6  C   UNL d   1     -53.877  23.702  33.350  0.00  0.00     0.059 A 
ATOM      7 BR   UNL d   1     -54.607  23.309  33.313  0.00  0.00    -0.047 Br
ENDROOT
BRANCH   1   8
ATOM      8  S   UNL d   1     -51.719  24.899  33.461  0.00  0.00     0.287 S 
ATOM      9  O   UNL d   1     -51.316  24.196  33.565  0.00  0.00    -0.198 OA
ATOM     10  O   UNL d   1     -52.122  25.611  33.357  0.00  0.00    -0.198 OA
BRANCH   8  11
ATOM     11  N   UNL d   1     -51.004  25.310  33.498  0.00  0.00    -0.157 NA
BRANCH  11  12
ATOM     12  C   UNL d   1     -51.001  26.133  33.447  0.00  0.00     0.113 A 
ATOM     13  C   UNL d   1     -50.295  26.537  33.361  0.00  0.00     0.119 A 
ATOM     14  N   UNL d   1     -50.293  27.360  33.310  0.00  0.00    -0.241 NA
ATOM     15  C   UNL d   1     -51.008  27.783  33.346  0.00  0.00     0.099 A 
ATOM     16  C   UNL d   1     -51.718  27.368  33.433  0.00  0.00     0.022 A 
ATOM     17  C   UNL d   1     -51.720  26.545  33.484  0.00  0.00     0.023 A 
ENDBRANCH  11  12
ENDBRANCH   8  11
ENDBRANCH   1   8
BRANCH   3  18
ATOM     18  O   UNL d   1     -51.745  23.256  33.312  0.00  0.00    -0.327 OA
ATOM     19  C   UNL d   1     -51.209  23.291  33.937  0.00  0.00     0.181 C 
ENDBRANCH   3  18
BRANCH   5  20
ATOM     20  O   UNL d   1     -54.573  24.948  33.462  0.00  0.00    -0.328 OA
ATOM     21  C   UNL d   1     -54.596  25.682  33.838  0.00  0.00     0.181 C 
ENDBRANCH   5  20
TORSDOF 5
ENDMDL
