MODEL 1
REMARK VINA RESULT:      11.3      0.000      0.000
REMARK  3 active torsions:
REMARK  status: ('A' for Active; 'I' for Inactive)
REMARK    1  A    between atoms: N_5  and  C_2 
REMARK    2  A    between atoms: C_9  and  C_3 
REMARK       I    between atoms: C_7  and  N_5 
REMARK    3  A    between atoms: C_8  and  C_7 
ROOT
ATOM      1  N   UNL d   1      46.401 -17.403  43.696  0.00  0.00    -0.200 NA
ATOM      2  C   UNL d   1      46.221 -17.019  44.395  0.00  0.00     0.216 A 
ATOM      3  C   UNL d   1      46.283 -18.219  43.826  0.00  0.00     0.172 A 
ATOM      4  N   UNL d   1      46.033 -18.318  44.604  0.00  0.00    -0.187 NA
ATOM      5  S   UNL d   1      45.995 -17.577  44.955  0.00  0.00     0.054 SA
ENDROOT
BRANCH   2   6
ATOM      6  N   UNL d   1      46.262 -16.205  44.512  0.00  0.00    -0.181 NA
ATOM      7  C   UNL d   1      45.574 -15.747  44.459  0.00  0.00     0.281 C 
ATOM      8  O   UNL d   1      44.853 -16.103  44.291  0.00  0.00    -0.265 OA
BRANCH   7   9
ATOM      9  C   UNL d   1      45.615 -14.938  44.575  0.00  0.00     0.058 A 
ATOM     10  C   UNL d   1      46.325 -14.542  44.464  0.00  0.00     0.005 A 
ATOM     11  C   UNL d   1      46.367 -13.723  44.581  0.00  0.00     0.000 A 
ATOM     12  C   UNL d   1      45.697 -13.307  44.809  0.00  0.00     0.000 A 
ATOM     13  C   UNL d   1      44.978 -13.702  44.922  0.00  0.00     0.000 A 
ATOM     14  C   UNL d   1      45.738 -12.493  44.926  0.00  0.00     0.000 C 
ATOM     15  C   UNL d   1      44.937 -14.521  44.805  0.00  0.00     0.005 A 
ENDBRANCH   7   9
ENDBRANCH   2   6
BRANCH   3  16
ATOM     16  C   UNL d   1      46.396 -18.815  43.277  0.00  0.00     0.036 A 
ATOM     17  C   UNL d   1      46.493 -18.618  42.477  0.00  0.00     0.003 A 
ATOM     18  C   UNL d   1      46.607 -19.227  41.930  0.00  0.00     0.000 A 
ATOM     19  C   UNL d   1      46.624 -20.021  42.176  0.00  0.00     0.000 A 
ATOM     20  C   UNL d   1      46.528 -20.204  42.969  0.00  0.00     0.000 A 
ATOM     21  C   UNL d   1      46.413 -19.601  43.523  0.00  0.00     0.003 A 
ENDBRANCH   3  16
TORSDOF 3
ENDMDL
MODEL 2
REMARK VINA RESULT:      13.3      1.013      5.027
REMARK  3 active torsions:
REMARK  status: ('A' for Active; 'I' for Inactive)
REMARK    1  A    between atoms: N_5  and  C_2 
REMARK    2  A    between atoms: C_9  and  C_3 
REMARK       I    between atoms: C_7  and  N_5 
REMARK    3  A    between atoms: C_8  and  C_7 
ROOT
ATOM      1  N   UNL d   1      45.952 -15.083  43.749  0.00  0.00    -0.200 NA
ATOM      2  C   UNL d   1      45.894 -15.796  44.146  0.00  0.00     0.216 A 
ATOM      3  C   UNL d   1      45.648 -14.494  44.256  0.00  0.00     0.172 A 
ATOM      4  N   UNL d   1      45.411 -14.858  44.955  0.00  0.00    -0.187 NA
ATOM      5  S   UNL d   1      45.563 -15.663  44.886  0.00  0.00     0.054 SA
ENDROOT
BRANCH   2   6
ATOM      6  N   UNL d   1      46.132 -16.524  43.847  0.00  0.00    -0.181 NA
ATOM      7  C   UNL d   1      45.696 -17.205  44.027  0.00  0.00     0.281 C 
ATOM      8  O   UNL d   1      45.028 -17.154  44.502  0.00  0.00    -0.265 OA
BRANCH   7   9
ATOM      9  C   UNL d   1      45.932 -17.930  43.729  0.00  0.00     0.058 A 
ATOM     10  C   UNL d   1      45.823 -18.103  42.933  0.00  0.00     0.005 A 
ATOM     11  C   UNL d   1      46.062 -18.836  42.632  0.00  0.00     0.000 A 
ATOM     12  C   UNL d   1      46.409 -19.391  43.128  0.00  0.00     0.000 A 
ATOM     13  C   UNL d   1      46.521 -19.220  43.931  0.00  0.00     0.000 A 
ATOM     14  C   UNL d   1      46.647 -20.120  42.829  0.00  0.00     0.000 C 
ATOM     15  C   UNL d   1      46.282 -18.487  44.232  0.00  0.00     0.005 A 
ENDBRANCH   7   9
ENDBRANCH   2   6
BRANCH   3  16
ATOM     16  C   UNL d   1      45.596 -13.695  44.088  0.00  0.00     0.036 A 
ATOM     17  C   UNL d   1      45.267 -13.451  43.367  0.00  0.00     0.003 A 
ATOM     18  C   UNL d   1      45.219 -12.642  43.207  0.00  0.00     0.000 A 
ATOM     19  C   UNL d   1      45.495 -12.083  43.756  0.00  0.00     0.000 A 
ATOM     20  C   UNL d   1      45.819 -12.335  44.465  0.00  0.00     0.000 A 
ATOM     21  C   UNL d   1      45.871 -13.143  44.634  0.00  0.00     0.003 A 
ENDBRANCH   3  16
TORSDOF 3
ENDMDL
