MODEL 1
REMARK VINA RESULT:      25.1      0.000      0.000
REMARK  3 active torsions:
REMARK  status: ('A' for Active; 'I' for Inactive)
REMARK    1  A    between atoms: C_8  and  C_4 
REMARK    2  A    between atoms: N_5  and  C_7 
REMARK    3  A    between atoms: C_12  and  C_6 
ROOT
ATOM      1  O   UNL d   1      14.019  12.532  -2.825  0.00  0.00    -0.268 OA
ATOM      2  N   UNL d   1      13.164  11.779  -2.129  0.00  0.00    -0.121 NA
ATOM      3  N   UNL d   1      12.914  11.781  -2.915  0.00  0.00    -0.121 NA
ATOM      4  C   UNL d   1      13.839  12.237  -2.070  0.00  0.00     0.204 A 
ATOM      5  C   UNL d   1      13.439  12.245  -3.349  0.00  0.00     0.204 A 
ENDROOT
BRANCH   4   6
ATOM      6  C   UNL d   1      14.276  12.388  -1.383  0.00  0.00     0.045 A 
ATOM      7  C   UNL d   1      14.570  13.146  -1.238  0.00  0.00     0.027 A 
ATOM      8  C   UNL d   1      15.003  13.292  -0.556  0.00  0.00     0.127 A 
ATOM      9  C   UNL d   1      15.145  12.682  -0.015  0.00  0.00     0.024 A 
ATOM     10  C   UNL d   1      14.854  11.927  -0.157  0.00  0.00     0.002 A 
ATOM     11  C   UNL d   1      14.419  11.779  -0.842  0.00  0.00     0.004 A 
BRANCH   8  12
ATOM     12  N   UNL d   1      15.297  14.058  -0.414  0.00  0.00    -0.114 N 
ATOM     13  O   UNL d   1      16.101  14.164  -0.221  0.00  0.00    -0.532 OA
ATOM     14  O   UNL d   1      14.797  14.714  -0.464  0.00  0.00    -0.532 OA
ENDBRANCH   8  12
ENDBRANCH   4   6
BRANCH   5  15
ATOM     15  C   UNL d   1      13.397  12.397  -4.156  0.00  0.00     0.043 A 
ATOM     16  C   UNL d   1      13.277  11.779  -4.686  0.00  0.00     0.004 A 
ATOM     17  C   UNL d   1      13.235  11.936  -5.500  0.00  0.00     0.000 A 
ATOM     18  C   UNL d   1      13.313  12.708  -5.775  0.00  0.00     0.000 A 
ATOM     19  C   UNL d   1      13.433  13.325  -5.235  0.00  0.00     0.000 A 
ATOM     20  C   UNL d   1      13.476  13.177  -4.426  0.00  0.00     0.004 A 
ENDBRANCH   5  15
TORSDOF 3
ENDMDL
