MODEL 1
REMARK VINA RESULT:      27.1      0.000      0.000
REMARK  2 active torsions:
REMARK  status: ('A' for Active; 'I' for Inactive)
REMARK    1  A    between atoms: C_4  and  C_1 
REMARK       I    between atoms: N_8  and  C_4 
REMARK    2  A    between atoms: O_12  and  C_11 
ROOT
ATOM      1  C   UNL d   1      14.050  13.005  -2.949  0.00  0.00     0.120 A 
ATOM      2  C   UNL d   1      14.571  13.638  -2.858  0.00  0.00     0.305 A 
ATOM      3  O   UNL d   1      14.933  13.775  -2.120  0.00  0.00    -0.271 OA
ATOM      4  C   UNL d   1      13.883  12.501  -2.306  0.00  0.00     0.012 A 
ATOM      5  C   UNL d   1      14.772  13.284  -1.488  0.00  0.00     0.125 A 
ATOM      6  C   UNL d   1      14.246  12.645  -1.579  0.00  0.00     0.025 A 
ATOM      7  O   UNL d   1      14.734  14.132  -3.491  0.00  0.00    -0.259 OA
ATOM      8  C   UNL d   1      15.127  13.412  -0.751  0.00  0.00     0.117 A 
ATOM      9  C   UNL d   1      14.084  12.148  -0.939  0.00  0.00     0.002 A 
ATOM     10  C   UNL d   1      14.444  12.289  -0.212  0.00  0.00     0.002 A 
ATOM     11  C   UNL d   1      14.963  12.918  -0.118  0.00  0.00     0.026 A 
ENDROOT
BRANCH   1  12
ATOM     12  C   UNL d   1      13.694  12.870  -3.674  0.00  0.00     0.270 C 
ATOM     13  N   UNL d   1      13.149  12.266  -3.763  0.00  0.00    -0.269 N 
ATOM     14  C   UNL d   1      12.959  11.795  -3.118  0.00  0.00     0.102 C 
ATOM     15  C   UNL d   1      12.793  12.131  -4.488  0.00  0.00     0.102 C 
ATOM     16  O   UNL d   1      13.884  13.341  -4.320  0.00  0.00    -0.266 OA
ENDBRANCH   1  12
BRANCH   8  17
ATOM     17  O   UNL d   1      15.645  14.042  -0.657  0.00  0.00    -0.326 OA
ATOM     18  C   UNL d   1      15.566  14.547  -0.018  0.00  0.00     0.181 C 
ENDBRANCH   8  17
TORSDOF 2
ENDMDL
MODEL 2
REMARK VINA RESULT:      29.3      1.469      3.604
REMARK  2 active torsions:
REMARK  status: ('A' for Active; 'I' for Inactive)
REMARK    1  A    between atoms: C_4  and  C_1 
REMARK       I    between atoms: N_8  and  C_4 
REMARK    2  A    between atoms: O_12  and  C_11 
ROOT
ATOM      1  C   UNL d   1      14.412  13.185  -1.505  0.00  0.00     0.120 A 
ATOM      2  C   UNL d   1      14.482  12.428  -1.824  0.00  0.00     0.305 A 
ATOM      3  O   UNL d   1      14.128  12.253  -2.558  0.00  0.00    -0.271 OA
ATOM      4  C   UNL d   1      13.989  13.778  -1.913  0.00  0.00     0.012 A 
ATOM      5  C   UNL d   1      13.714  12.830  -2.962  0.00  0.00     0.125 A 
ATOM      6  C   UNL d   1      13.643  13.595  -2.640  0.00  0.00     0.025 A 
ATOM      7  O   UNL d   1      14.897  11.847  -1.423  0.00  0.00    -0.259 OA
ATOM      8  C   UNL d   1      13.360  12.666  -3.691  0.00  0.00     0.117 A 
ATOM      9  C   UNL d   1      13.224  14.179  -3.047  0.00  0.00     0.002 A 
ATOM     10  C   UNL d   1      12.877  13.999  -3.773  0.00  0.00     0.002 A 
ATOM     11  C   UNL d   1      12.945  13.246  -4.093  0.00  0.00     0.026 A 
ENDROOT
BRANCH   1  12
ATOM     12  C   UNL d   1      14.759  13.358  -0.783  0.00  0.00     0.270 C 
ATOM     13  N   UNL d   1      15.405  13.859  -0.742  0.00  0.00    -0.269 N 
ATOM     14  C   UNL d   1      15.703  14.189  -1.432  0.00  0.00     0.102 C 
ATOM     15  C   UNL d   1      15.752  14.031  -0.021  0.00  0.00     0.102 C 
ATOM     16  O   UNL d   1      14.460  13.027  -0.094  0.00  0.00    -0.266 OA
ENDBRANCH   1  12
BRANCH   8  17
ATOM     17  O   UNL d   1      13.427  11.913  -4.012  0.00  0.00    -0.326 OA
ATOM     18  C   UNL d   1      13.461  11.814  -4.824  0.00  0.00     0.181 C 
ENDBRANCH   8  17
TORSDOF 2
ENDMDL
