MODEL 1
REMARK VINA RESULT:      -6.0      0.000      0.000
REMARK  2 active torsions:
REMARK  status: ('A' for Active; 'I' for Inactive)
REMARK       I    between atoms: N_2  and  C_1 
REMARK       I    between atoms: N_4  and  C_1 
REMARK    1  A    between atoms: C_3  and  N_2 
REMARK    2  A    between atoms: C_7  and  N_4 
ROOT
ATOM      1  C   UNL d   1     -41.502-122.359 -52.377  0.00  0.00     0.370 C 
ATOM      2  N   UNL d   1     -41.240-122.129 -51.624  0.00  0.00    -0.172 NA
ATOM      3  N   UNL d   1     -41.203-121.951 -53.044  0.00  0.00    -0.191 NA
ATOM      4  O   UNL d   1     -42.026-122.952 -52.483  0.00  0.00    -0.242 OA
ENDROOT
BRANCH   2   5
ATOM      5  C   UNL d   1     -41.533-122.528 -50.964  0.00  0.00     0.167 A 
ATOM      6  N   UNL d   1     -42.253-122.292 -50.592  0.00  0.00    -0.225 NA
ATOM      7  C   UNL d   1     -42.533-122.697 -49.938  0.00  0.00     0.101 A 
ATOM      8  C   UNL d   1     -42.101-123.341 -49.645  0.00  0.00     0.021 A 
ATOM      9  C   UNL d   1     -41.397-123.568 -50.011  0.00  0.00     0.005 A 
ATOM     10  C   UNL d   1     -41.123-123.167 -50.657  0.00  0.00     0.039 A 
ENDBRANCH   2   5
BRANCH   3  11
ATOM     11  C   UNL d   1     -41.454-122.169 -53.796  0.00  0.00     0.086 A 
ATOM     12  C   UNL d   1     -41.123-122.810 -54.165  0.00  0.00     0.019 A 
ATOM     13  C   UNL d   1     -41.381-123.025 -54.925  0.00  0.00     0.002 A 
ATOM     14  C   UNL d   1     -41.983-122.578 -55.305  0.00  0.00     0.000 A 
ATOM     15  C   UNL d   1     -42.307-121.942 -54.928  0.00  0.00     0.002 A 
ATOM     16  C   UNL d   1     -42.059-121.721 -54.178  0.00  0.00     0.019 A 
ENDBRANCH   3  11
TORSDOF 2
ENDMDL
