MODEL 1
REMARK VINA RESULT:      -8.5      0.000      0.000
REMARK  6 active torsions:
REMARK  status: ('A' for Active; 'I' for Inactive)
REMARK    1  A    between atoms: C_9  and  N_1 
REMARK    2  A    between atoms: S_11  and  C_6 
REMARK    3  A    between atoms: C_24  and  S_11 
REMARK    4  A    between atoms: C_13  and  C_24 
REMARK       I    between atoms: N_18  and  C_13 
REMARK    5  A    between atoms: C_26  and  N_18 
REMARK    6  A    between atoms: C_25  and  C_26 
ROOT
ATOM      1  N   UNL d   1      52.748  34.252  53.341  0.00  0.00    -0.212 N 
ATOM      2  C   UNL d   1      52.018  33.876  53.307  0.00  0.00     0.169 A 
ATOM      3  N   UNL d   1      52.768  34.836  52.780  0.00  0.00    -0.162 NA
ATOM      4  C   UNL d   1      51.578  34.238  52.711  0.00  0.00     0.081 A 
ATOM      5  C   UNL d   1      52.041  34.834  52.383  0.00  0.00     0.126 A 
ATOM      6  C   UNL d   1      50.816  33.979  52.545  0.00  0.00     0.117 A 
ATOM      7  N   UNL d   1      51.696  33.254  53.738  0.00  0.00    -0.205 NA
ATOM      8  N   UNL d   1      50.491  33.355  52.976  0.00  0.00    -0.217 NA
ATOM      9  C   UNL d   1      50.931  32.992  53.573  0.00  0.00     0.201 A 
ENDROOT
BRANCH   6  10
ATOM     10  S   UNL d   1      50.376  34.341  51.949  0.00  0.00    -0.062 SA
BRANCH  10  11
ATOM     11  C   UNL d   1      49.588  34.510  52.069  0.00  0.00     0.099 C 
BRANCH  11  12
ATOM     12  C   UNL d   1      49.099  34.678  51.426  0.00  0.00     0.286 C 
ATOM     13  N   UNL d   1      48.406  35.114  51.536  0.00  0.00    -0.206 NA
ATOM     14  O   UNL d   1      49.302  34.411  50.672  0.00  0.00    -0.265 OA
BRANCH  13  15
ATOM     15  C   UNL d   1      48.203  35.381  52.291  0.00  0.00     0.102 C 
BRANCH  15  16
ATOM     16  C   UNL d   1      47.469  35.737  52.418  0.00  0.00     0.021 A 
ATOM     17  C   UNL d   1      46.838  35.575  51.912  0.00  0.00     0.028 A 
ATOM     18  C   UNL d   1      46.105  35.932  52.040  0.00  0.00     0.119 A 
ATOM     19  O   UNL d   1      45.388  35.873  51.629  0.00  0.00    -0.300 OA
ATOM     20  C   UNL d   1      46.002  36.450  52.674  0.00  0.00     0.119 A 
ATOM     21  C   UNL d   1      44.850  36.354  52.012  0.00  0.00     0.304 A 
ATOM     22  O   UNL d   1      45.217  36.709  52.650  0.00  0.00    -0.300 OA
ATOM     23  C   UNL d   1      46.633  36.612  53.180  0.00  0.00     0.026 A 
ATOM     24  C   UNL d   1      47.367  36.256  53.053  0.00  0.00     0.004 A 
ENDBRANCH  15  16
ENDBRANCH  13  15
ENDBRANCH  11  12
ENDBRANCH  10  11
ENDBRANCH   6  10
BRANCH   1  25
ATOM     25  C   UNL d   1      53.316  34.006  53.894  0.00  0.00     0.085 A 
ATOM     26  C   UNL d   1      53.817  33.378  53.717  0.00  0.00     0.020 A 
ATOM     27  C   UNL d   1      54.378  33.135  54.259  0.00  0.00     0.013 A 
ATOM     28  C   UNL d   1      54.443  33.524  54.994  0.00  0.00     0.058 A 
ATOM     29  C   UNL d   1      53.933  34.154  55.159  0.00  0.00     0.013 A 
ATOM     30 CL   UNL d   1      55.015  33.281  55.556  0.00  0.00    -0.082 Cl
ATOM     31  C   UNL d   1      53.377  34.391  54.613  0.00  0.00     0.020 A 
ENDBRANCH   1  25
TORSDOF 6
ENDMDL
MODEL 2
REMARK VINA RESULT:      -8.1      2.855      6.775
REMARK  6 active torsions:
REMARK  status: ('A' for Active; 'I' for Inactive)
REMARK    1  A    between atoms: C_9  and  N_1 
REMARK    2  A    between atoms: S_11  and  C_6 
REMARK    3  A    between atoms: C_24  and  S_11 
REMARK    4  A    between atoms: C_13  and  C_24 
REMARK       I    between atoms: N_18  and  C_13 
REMARK    5  A    between atoms: C_26  and  N_18 
REMARK    6  A    between atoms: C_25  and  C_26 
ROOT
ATOM      1  N   UNL d   1      47.411  35.269  51.778  0.00  0.00    -0.212 N 
ATOM      2  C   UNL d   1      48.031  35.309  52.316  0.00  0.00     0.169 A 
ATOM      3  N   UNL d   1      47.659  34.867  51.121  0.00  0.00    -0.162 NA
ATOM      4  C   UNL d   1      48.677  34.922  51.980  0.00  0.00     0.081 A 
ATOM      5  C   UNL d   1      48.449  34.646  51.239  0.00  0.00     0.126 A 
ATOM      6  C   UNL d   1      49.386  34.870  52.392  0.00  0.00     0.117 A 
ATOM      7  N   UNL d   1      48.093  35.646  53.063  0.00  0.00    -0.205 NA
ATOM      8  N   UNL d   1      49.452  35.207  53.143  0.00  0.00    -0.217 NA
ATOM      9  C   UNL d   1      48.806  35.595  53.478  0.00  0.00     0.201 A 
ENDROOT
BRANCH   6  10
ATOM     10  S   UNL d   1      50.032  34.483  52.057  0.00  0.00    -0.062 SA
BRANCH  10  11
ATOM     11  C   UNL d   1      50.723  34.397  52.482  0.00  0.00     0.099 C 
BRANCH  11  12
ATOM     12  C   UNL d   1      51.420  34.181  52.098  0.00  0.00     0.286 C 
ATOM     13  N   UNL d   1      52.066  33.910  52.535  0.00  0.00    -0.206 NA
ATOM     14  O   UNL d   1      51.473  34.235  51.275  0.00  0.00    -0.265 OA
BRANCH  13  15
ATOM     15  C   UNL d   1      52.013  33.856  53.358  0.00  0.00     0.102 C 
BRANCH  15  16
ATOM     16  C   UNL d   1      52.663  33.595  53.796  0.00  0.00     0.021 A 
ATOM     17  C   UNL d   1      53.089  34.129  54.259  0.00  0.00     0.028 A 
ATOM     18  C   UNL d   1      53.737  33.868  54.697  0.00  0.00     0.119 A 
ATOM     19  O   UNL d   1      54.257  34.272  55.200  0.00  0.00    -0.300 OA
ATOM     20  C   UNL d   1      53.961  33.074  54.673  0.00  0.00     0.119 A 
ATOM     21  C   UNL d   1      54.795  33.726  55.481  0.00  0.00     0.304 A 
ATOM     22  O   UNL d   1      54.621  32.993  55.164  0.00  0.00    -0.300 OA
ATOM     23  C   UNL d   1      53.535  32.540  54.210  0.00  0.00     0.026 A 
ATOM     24  C   UNL d   1      52.886  32.801  53.771  0.00  0.00     0.004 A 
ENDBRANCH  15  16
ENDBRANCH  13  15
ENDBRANCH  11  12
ENDBRANCH  10  11
ENDBRANCH   6  10
BRANCH   1  25
ATOM     25  C   UNL d   1      46.678  35.614  51.962  0.00  0.00     0.085 A 
ATOM     26  C   UNL d   1      46.132  35.201  52.417  0.00  0.00     0.020 A 
ATOM     27  C   UNL d   1      45.410  35.539  52.600  0.00  0.00     0.013 A 
ATOM     28  C   UNL d   1      45.227  36.304  52.324  0.00  0.00     0.058 A 
ATOM     29  C   UNL d   1      45.785  36.709  51.868  0.00  0.00     0.013 A 
ATOM     30 CL   UNL d   1      44.490  36.658  52.506  0.00  0.00    -0.082 Cl
ATOM     31  C   UNL d   1      46.503  36.365  51.690  0.00  0.00     0.020 A 
ENDBRANCH   1  25
TORSDOF 6
ENDMDL
MODEL 3
REMARK VINA RESULT:      -7.8      3.004      6.775
REMARK  6 active torsions:
REMARK  status: ('A' for Active; 'I' for Inactive)
REMARK    1  A    between atoms: C_9  and  N_1 
REMARK    2  A    between atoms: S_11  and  C_6 
REMARK    3  A    between atoms: C_24  and  S_11 
REMARK    4  A    between atoms: C_13  and  C_24 
REMARK       I    between atoms: N_18  and  C_13 
REMARK    5  A    between atoms: C_26  and  N_18 
REMARK    6  A    between atoms: C_25  and  C_26 
ROOT
ATOM      1  N   UNL d   1      47.727  35.697  52.675  0.00  0.00    -0.212 N 
ATOM      2  C   UNL d   1      48.296  35.255  52.281  0.00  0.00     0.169 A 
ATOM      3  N   UNL d   1      48.029  35.938  53.387  0.00  0.00    -0.162 NA
ATOM      4  C   UNL d   1      48.965  35.223  52.763  0.00  0.00     0.081 A 
ATOM      5  C   UNL d   1      48.802  35.646  53.449  0.00  0.00     0.126 A 
ATOM      6  C   UNL d   1      49.633  34.815  52.514  0.00  0.00     0.117 A 
ATOM      7  N   UNL d   1      48.296  34.878  51.550  0.00  0.00    -0.205 NA
ATOM      8  N   UNL d   1      49.635  34.436  51.781  0.00  0.00    -0.217 NA
ATOM      9  C   UNL d   1      48.967  34.467  51.299  0.00  0.00     0.201 A 
ENDROOT
BRANCH   6  10
ATOM     10  S   UNL d   1      50.302  34.783  52.996  0.00  0.00    -0.062 SA
BRANCH  10  11
ATOM     11  C   UNL d   1      50.921  34.288  52.804  0.00  0.00     0.099 C 
BRANCH  11  12
ATOM     12  C   UNL d   1      51.668  34.414  53.131  0.00  0.00     0.286 C 
ATOM     13  N   UNL d   1      52.195  33.783  53.210  0.00  0.00    -0.206 NA
ATOM     14  O   UNL d   1      51.887  35.169  53.380  0.00  0.00    -0.265 OA
BRANCH  13  15
ATOM     15  C   UNL d   1      51.975  33.027  52.961  0.00  0.00     0.102 C 
BRANCH  15  16
ATOM     16  C   UNL d   1      52.468  32.383  53.115  0.00  0.00     0.021 A 
ATOM     17  C   UNL d   1      52.203  31.616  52.964  0.00  0.00     0.028 A 
ATOM     18  C   UNL d   1      52.696  30.972  53.118  0.00  0.00     0.119 A 
ATOM     19  O   UNL d   1      52.580  30.158  53.022  0.00  0.00    -0.300 OA
ATOM     20  C   UNL d   1      53.453  31.095  53.423  0.00  0.00     0.119 A 
ATOM     21  C   UNL d   1      53.264  29.785  53.268  0.00  0.00     0.304 A 
ATOM     22  O   UNL d   1      53.801  30.350  53.514  0.00  0.00    -0.300 OA
ATOM     23  C   UNL d   1      53.717  31.861  53.575  0.00  0.00     0.026 A 
ATOM     24  C   UNL d   1      53.225  32.506  53.421  0.00  0.00     0.004 A 
ENDBRANCH  15  16
ENDBRANCH  13  15
ENDBRANCH  11  12
ENDBRANCH  10  11
ENDBRANCH   6  10
BRANCH   1  25
ATOM     25  C   UNL d   1      46.986  35.827  52.325  0.00  0.00     0.085 A 
ATOM     26  C   UNL d   1      46.350  35.343  52.518  0.00  0.00     0.020 A 
ATOM     27  C   UNL d   1      45.619  35.469  52.175  0.00  0.00     0.013 A 
ATOM     28  C   UNL d   1      45.518  36.089  51.627  0.00  0.00     0.058 A 
ATOM     29  C   UNL d   1      46.165  36.568  51.441  0.00  0.00     0.013 A 
ATOM     30 CL   UNL d   1      44.772  36.225  51.269  0.00  0.00    -0.082 Cl
ATOM     31  C   UNL d   1      46.891  36.436  51.788  0.00  0.00     0.020 A 
ENDBRANCH   1  25
TORSDOF 6
ENDMDL
MODEL 4
REMARK VINA RESULT:      -6.8      2.613      3.511
REMARK  6 active torsions:
REMARK  status: ('A' for Active; 'I' for Inactive)
REMARK    1  A    between atoms: C_9  and  N_1 
REMARK    2  A    between atoms: S_11  and  C_6 
REMARK    3  A    between atoms: C_24  and  S_11 
REMARK    4  A    between atoms: C_13  and  C_24 
REMARK       I    between atoms: N_18  and  C_13 
REMARK    5  A    between atoms: C_26  and  N_18 
REMARK    6  A    between atoms: C_25  and  C_26 
ROOT
ATOM      1  N   UNL d   1      53.058  30.782  53.510  0.00  0.00    -0.212 N 
ATOM      2  C   UNL d   1      53.268  31.493  53.864  0.00  0.00     0.169 A 
ATOM      3  N   UNL d   1      52.684  30.938  52.809  0.00  0.00    -0.162 NA
ATOM      4  C   UNL d   1      53.016  32.102  53.368  0.00  0.00     0.081 A 
ATOM      5  C   UNL d   1      52.654  31.761  52.713  0.00  0.00     0.126 A 
ATOM      6  C   UNL d   1      53.149  32.886  53.578  0.00  0.00     0.117 A 
ATOM      7  N   UNL d   1      53.652  31.667  54.570  0.00  0.00    -0.205 NA
ATOM      8  N   UNL d   1      53.535  33.063  54.285  0.00  0.00    -0.217 NA
ATOM      9  C   UNL d   1      53.786  32.454  54.781  0.00  0.00     0.201 A 
ENDROOT
BRANCH   6  10
ATOM     10  S   UNL d   1      52.897  33.495  53.082  0.00  0.00    -0.062 SA
BRANCH  10  11
ATOM     11  C   UNL d   1      52.230  33.924  53.269  0.00  0.00     0.099 C 
BRANCH  11  12
ATOM     12  C   UNL d   1      52.125  34.681  52.957  0.00  0.00     0.286 C 
ATOM     13  N   UNL d   1      51.367  34.946  52.763  0.00  0.00    -0.206 NA
ATOM     14  O   UNL d   1      52.777  35.173  52.840  0.00  0.00    -0.265 OA
BRANCH  13  15
ATOM     15  C   UNL d   1      50.715  34.454  52.880  0.00  0.00     0.102 C 
BRANCH  15  16
ATOM     16  C   UNL d   1      49.962  34.704  52.651  0.00  0.00     0.021 A 
ATOM     17  C   UNL d   1      49.515  35.181  53.154  0.00  0.00     0.028 A 
ATOM     18  C   UNL d   1      48.763  35.431  52.923  0.00  0.00     0.119 A 
ATOM     19  O   UNL d   1      48.200  35.903  53.307  0.00  0.00    -0.300 OA
ATOM     20  C   UNL d   1      48.458  35.204  52.191  0.00  0.00     0.119 A 
ATOM     21  C   UNL d   1      47.556  35.963  52.811  0.00  0.00     0.304 A 
ATOM     22  O   UNL d   1      47.704  35.539  52.128  0.00  0.00    -0.300 OA
ATOM     23  C   UNL d   1      48.905  34.727  51.688  0.00  0.00     0.026 A 
ATOM     24  C   UNL d   1      49.658  34.476  51.918  0.00  0.00     0.004 A 
ENDBRANCH  15  16
ENDBRANCH  13  15
ENDBRANCH  11  12
ENDBRANCH  10  11
ENDBRANCH   6  10
BRANCH   1  25
ATOM     25  C   UNL d   1      53.241  30.063  53.883  0.00  0.00     0.085 A 
ATOM     26  C   UNL d   1      53.901  29.634  53.646  0.00  0.00     0.020 A 
ATOM     27  C   UNL d   1      54.082  28.925  54.011  0.00  0.00     0.013 A 
ATOM     28  C   UNL d   1      53.597  28.637  54.625  0.00  0.00     0.058 A 
ATOM     29  C   UNL d   1      52.936  29.078  54.853  0.00  0.00     0.013 A 
ATOM     30 CL   UNL d   1      53.776  27.912  55.005  0.00  0.00    -0.082 Cl
ATOM     31  C   UNL d   1      52.762  29.784  54.484  0.00  0.00     0.020 A 
ENDBRANCH   1  25
TORSDOF 6
ENDMDL
MODEL 5
REMARK VINA RESULT:      -5.8     10.448     11.615
REMARK  6 active torsions:
REMARK  status: ('A' for Active; 'I' for Inactive)
REMARK    1  A    between atoms: C_9  and  N_1 
REMARK    2  A    between atoms: S_11  and  C_6 
REMARK    3  A    between atoms: C_24  and  S_11 
REMARK    4  A    between atoms: C_13  and  C_24 
REMARK       I    between atoms: N_18  and  C_13 
REMARK    5  A    between atoms: C_26  and  N_18 
REMARK    6  A    between atoms: C_25  and  C_26 
ROOT
ATOM      1  N   UNL d   1      45.015  30.026  59.797  0.00  0.00    -0.212 N 
ATOM      2  C   UNL d   1      44.826  29.237  59.672  0.00  0.00     0.169 A 
ATOM      3  N   UNL d   1      45.329  30.332  59.116  0.00  0.00    -0.162 NA
ATOM      4  C   UNL d   1      45.029  29.052  58.894  0.00  0.00     0.081 A 
ATOM      5  C   UNL d   1      45.341  29.729  58.547  0.00  0.00     0.126 A 
ATOM      6  C   UNL d   1      44.903  28.293  58.605  0.00  0.00     0.117 A 
ATOM      7  N   UNL d   1      44.497  28.663  60.161  0.00  0.00    -0.205 NA
ATOM      8  N   UNL d   1      44.573  27.715  59.093  0.00  0.00    -0.217 NA
ATOM      9  C   UNL d   1      44.371  27.900  59.871  0.00  0.00     0.201 A 
ENDROOT
BRANCH   6  10
ATOM     10  S   UNL d   1      45.106  28.108  57.827  0.00  0.00    -0.062 SA
BRANCH  10  11
ATOM     11  C   UNL d   1      45.078  27.334  57.571  0.00  0.00     0.099 C 
BRANCH  11  12
ATOM     12  C   UNL d   1      45.526  27.099  56.919  0.00  0.00     0.286 C 
ATOM     13  N   UNL d   1      45.335  26.404  56.517  0.00  0.00    -0.206 NA
ATOM     14  O   UNL d   1      46.164  27.559  56.669  0.00  0.00    -0.265 OA
BRANCH  13  15
ATOM     15  C   UNL d   1      44.697  25.944  56.767  0.00  0.00     0.102 C 
BRANCH  15  16
ATOM     16  C   UNL d   1      44.594  25.182  56.465  0.00  0.00     0.021 A 
ATOM     17  C   UNL d   1      44.650  24.529  56.966  0.00  0.00     0.028 A 
ATOM     18  C   UNL d   1      44.547  23.768  56.663  0.00  0.00     0.119 A 
ATOM     19  O   UNL d   1      44.572  23.024  57.029  0.00  0.00    -0.300 OA
ATOM     20  C   UNL d   1      44.387  23.660  55.861  0.00  0.00     0.119 A 
ATOM     21  C   UNL d   1      44.428  22.466  56.451  0.00  0.00     0.304 A 
ATOM     22  O   UNL d   1      44.314  22.845  55.736  0.00  0.00    -0.300 OA
ATOM     23  C   UNL d   1      44.330  24.313  55.361  0.00  0.00     0.026 A 
ATOM     24  C   UNL d   1      44.434  25.075  55.663  0.00  0.00     0.004 A 
ENDBRANCH  15  16
ENDBRANCH  13  15
ENDBRANCH  11  12
ENDBRANCH  10  11
ENDBRANCH   6  10
BRANCH   1  25
ATOM     25  C   UNL d   1      44.873  30.376  60.537  0.00  0.00     0.085 A 
ATOM     26  C   UNL d   1      45.149  30.014  61.221  0.00  0.00     0.020 A 
ATOM     27  C   UNL d   1      45.010  30.356  61.951  0.00  0.00     0.013 A 
ATOM     28  C   UNL d   1      44.588  31.073  62.001  0.00  0.00     0.058 A 
ATOM     29  C   UNL d   1      44.316  31.426  61.305  0.00  0.00     0.013 A 
ATOM     30 CL   UNL d   1      44.441  31.431  62.745  0.00  0.00    -0.082 Cl
ATOM     31  C   UNL d   1      44.459  31.079  60.581  0.00  0.00     0.020 A 
ENDBRANCH   1  25
TORSDOF 6
ENDMDL
