MODEL 1
REMARK VINA RESULT:      59.9      0.000      0.000
REMARK  5 active torsions:
REMARK  status: ('A' for Active; 'I' for Inactive)
REMARK    1  A    between atoms: C_11  and  C_4 
REMARK    2  A    between atoms: N_10  and  C_6 
REMARK    3  A    between atoms: C_13  and  C_9 
REMARK    4  A    between atoms: C_14  and  N_10 
REMARK    5  A    between atoms: C_15  and  C_14 
ROOT
ATOM      1  C   UNL d   1      14.299  13.692  -2.219  0.00  0.00     0.167 A 
ATOM      2  N   UNL d   1      14.311  14.350  -2.709  0.00  0.00    -0.195 N 
ATOM      3  N   UNL d   1      14.946  15.092  -1.698  0.00  0.00    -0.163 NA
ATOM      4  C   UNL d   1      14.605  13.739  -1.483  0.00  0.00     0.055 A 
ATOM      5  N   UNL d   1      13.974  13.001  -2.488  0.00  0.00    -0.227 NA
ATOM      6  C   UNL d   1      13.999  14.293  -3.452  0.00  0.00     0.167 A 
ATOM      7  C   UNL d   1      14.933  14.435  -1.208  0.00  0.00     0.104 A 
ATOM      8  C   UNL d   1      13.666  13.575  -3.722  0.00  0.00     0.058 A 
ATOM      9  C   UNL d   1      13.666  12.952  -3.228  0.00  0.00     0.086 A 
ATOM     10  C   UNL d   1      15.238  14.480  -0.474  0.00  0.00     0.023 C 
ENDROOT
BRANCH   6  11
ATOM     11  N   UNL d   1      14.010  14.965  -3.959  0.00  0.00    -0.224 NA
BRANCH  11  12
ATOM     12  C   UNL d   1      13.974  15.806  -3.943  0.00  0.00     0.120 C 
BRANCH  12  13
ATOM     13  C   UNL d   1      14.466  16.262  -4.444  0.00  0.00     0.101 A 
ATOM     14  N   UNL d   1      15.111  16.695  -4.122  0.00  0.00    -0.242 NA
ATOM     15  C   UNL d   1      15.604  17.152  -4.623  0.00  0.00     0.099 A 
ATOM     16  C   UNL d   1      15.449  17.173  -5.453  0.00  0.00     0.021 A 
ATOM     17  C   UNL d   1      14.803  16.739  -5.779  0.00  0.00     0.003 A 
ATOM     18  C   UNL d   1      14.314  16.284  -5.269  0.00  0.00     0.021 A 
ENDBRANCH  12  13
ENDBRANCH  11  12
ENDBRANCH   6  11
BRANCH   9  19
ATOM     19  C   UNL d   1      13.325  12.221  -3.506  0.00  0.00     0.018 C 
ATOM     20  C   UNL d   1      13.524  11.940  -4.289  0.00  0.00     0.002 C 
ATOM     21  C   UNL d   1      12.796  11.781  -3.011  0.00  0.00     0.002 C 
ENDBRANCH   9  19
BRANCH   4  22
ATOM     22  C   UNL d   1      14.593  13.075  -0.987  0.00  0.00     0.004 A 
ATOM     23  C   UNL d   1      13.959  12.947  -0.503  0.00  0.00     0.000 A 
ATOM     24  C   UNL d   1      13.947  12.292  -0.014  0.00  0.00     0.000 A 
ATOM     25  C   UNL d   1      14.568  11.780  -0.021  0.00  0.00     0.000 A 
ATOM     26  C   UNL d   1      15.206  11.913  -0.512  0.00  0.00     0.000 A 
ATOM     27  C   UNL d   1      15.211  12.560  -0.989  0.00  0.00     0.000 A 
ENDBRANCH   4  22
TORSDOF 5
ENDMDL
