MODEL 1
REMARK VINA RESULT:      -7.1      0.000      0.000
REMARK  1 active torsions:
REMARK  status: ('A' for Active; 'I' for Inactive)
REMARK    1  A    between atoms: C_2  and  C_1 
ROOT
ATOM      1  C   UNL d   1      53.720  32.249  53.906  0.00  0.00     0.104 A 
ATOM      2  C   UNL d   1      53.133  32.627  53.439  0.00  0.00     0.202 A 
ATOM      3  C   UNL d   1      53.789  31.402  53.868  0.00  0.00     0.021 A 
ATOM      4  C   UNL d   1      52.642  32.171  52.959  0.00  0.00     0.043 A 
ATOM      5  C   UNL d   1      53.278  30.982  53.375  0.00  0.00     0.058 A 
ATOM      6  C   UNL d   1      52.704  31.359  52.919  0.00  0.00     0.015 A 
ATOM      7  O   UNL d   1      53.057  33.467  53.471  0.00  0.00    -0.286 OA
ATOM      8 CL   UNL d   1      53.354  30.143  53.344  0.00  0.00    -0.082 Cl
ENDROOT
BRANCH   1   9
ATOM      9  C   UNL d   1      54.219  32.693  54.391  0.00  0.00     0.214 C 
ATOM     10  O   UNL d   1      54.918  33.042  54.097  0.00  0.00    -0.644 OA
ATOM     11  O   UNL d   1      54.047  32.815  55.207  0.00  0.00    -0.644 OA
ENDBRANCH   1   9
TORSDOF 1
ENDMDL
MODEL 2
REMARK VINA RESULT:      -7.1      1.843      2.393
REMARK  1 active torsions:
REMARK  status: ('A' for Active; 'I' for Inactive)
REMARK    1  A    between atoms: C_2  and  C_1 
ROOT
ATOM      1  C   UNL d   1      52.856  33.199  53.641  0.00  0.00     0.104 A 
ATOM      2  C   UNL d   1      53.087  32.519  53.206  0.00  0.00     0.202 A 
ATOM      3  C   UNL d   1      53.296  33.407  54.339  0.00  0.00     0.021 A 
ATOM      4  C   UNL d   1      53.730  32.072  53.465  0.00  0.00     0.043 A 
ATOM      5  C   UNL d   1      53.933  32.934  54.564  0.00  0.00     0.058 A 
ATOM      6  C   UNL d   1      54.155  32.267  54.133  0.00  0.00     0.015 A 
ATOM      7  O   UNL d   1      52.656  32.304  52.512  0.00  0.00    -0.286 OA
ATOM      8 CL   UNL d   1      54.363  33.148  55.256  0.00  0.00    -0.082 Cl
ENDROOT
BRANCH   1   9
ATOM      9  C   UNL d   1      52.214  33.655  53.394  0.00  0.00     0.214 C 
ATOM     10  O   UNL d   1      51.430  33.454  53.598  0.00  0.00    -0.644 OA
ATOM     11  O   UNL d   1      52.319  34.347  52.924  0.00  0.00    -0.644 OA
ENDBRANCH   1   9
TORSDOF 1
ENDMDL
MODEL 3
REMARK VINA RESULT:      -6.8      1.627      2.044
REMARK  1 active torsions:
REMARK  status: ('A' for Active; 'I' for Inactive)
REMARK    1  A    between atoms: C_2  and  C_1 
ROOT
ATOM      1  C   UNL d   1      53.641  33.006  54.150  0.00  0.00     0.104 A 
ATOM      2  C   UNL d   1      53.501  32.348  53.647  0.00  0.00     0.202 A 
ATOM      3  C   UNL d   1      53.159  33.702  54.055  0.00  0.00     0.021 A 
ATOM      4  C   UNL d   1      52.906  32.392  53.079  0.00  0.00     0.043 A 
ATOM      5  C   UNL d   1      52.574  33.705  53.474  0.00  0.00     0.058 A 
ATOM      6  C   UNL d   1      52.442  33.055  52.984  0.00  0.00     0.015 A 
ATOM      7  O   UNL d   1      53.974  31.654  53.734  0.00  0.00    -0.286 OA
ATOM      8 CL   UNL d   1      52.102  34.398  53.388  0.00  0.00    -0.082 Cl
ENDROOT
BRANCH   1   9
ATOM      9  C   UNL d   1      54.234  32.977  54.723  0.00  0.00     0.214 C 
ATOM     10  O   UNL d   1      54.097  32.642  55.476  0.00  0.00    -0.644 OA
ATOM     11  O   UNL d   1      55.004  33.284  54.577  0.00  0.00    -0.644 OA
ENDBRANCH   1   9
TORSDOF 1
ENDMDL
