MODEL 1
REMARK VINA RESULT:      -6.4      0.000      0.000
REMARK  3 active torsions:
REMARK  status: ('A' for Active; 'I' for Inactive)
REMARK    1  A    between atoms: S_6  and  C_1 
REMARK    2  A    between atoms: C_9  and  S_6 
REMARK    3  A    between atoms: C_7  and  C_9 
ROOT
ATOM      1  C   UNL d   1     -48.271  13.799  22.923  0.00  0.00     0.137 A 
ATOM      2  N   UNL d   1     -48.591  13.094  23.192  0.00  0.00    -0.232 NA
ATOM      3  S   UNL d   1     -47.458  13.724  22.899  0.00  0.00    -0.060 SA
ATOM      4  C   UNL d   1     -47.981  12.577  23.336  0.00  0.00     0.088 A 
ATOM      5  C   UNL d   1     -47.272  12.972  23.153  0.00  0.00     0.049 A 
ATOM      6  C   UNL d   1     -47.963  11.809  23.607  0.00  0.00     0.020 A 
ATOM      7  C   UNL d   1     -46.561  12.589  23.244  0.00  0.00     0.008 A 
ATOM      8  C   UNL d   1     -46.529  11.806  23.519  0.00  0.00     0.001 A 
ATOM      9  C   UNL d   1     -47.222  11.420  23.698  0.00  0.00     0.002 A 
ENDROOT
BRANCH   1  10
ATOM     10  S   UNL d   1     -48.711  14.456  22.718  0.00  0.00    -0.077 SA
BRANCH  10  11
ATOM     11  C   UNL d   1     -49.303  14.710  23.244  0.00  0.00     0.161 C 
BRANCH  11  12
ATOM     12  C   UNL d   1     -49.730  15.404  23.075  0.00  0.00     0.197 C 
ATOM     13  O   UNL d   1     -49.957  15.582  22.290  0.00  0.00    -0.647 OA
ATOM     14  O   UNL d   1     -49.927  15.914  23.677  0.00  0.00    -0.647 OA
ENDBRANCH  11  12
ENDBRANCH  10  11
ENDBRANCH   1  10
TORSDOF 3
ENDMDL
MODEL 2
REMARK VINA RESULT:      -6.4      2.277      3.581
REMARK  3 active torsions:
REMARK  status: ('A' for Active; 'I' for Inactive)
REMARK    1  A    between atoms: S_6  and  C_1 
REMARK    2  A    between atoms: C_9  and  S_6 
REMARK    3  A    between atoms: C_7  and  C_9 
ROOT
ATOM      1  C   UNL d   1     -48.053  13.869  22.761  0.00  0.00     0.137 A 
ATOM      2  N   UNL d   1     -48.184  14.678  22.727  0.00  0.00    -0.232 NA
ATOM      3  S   UNL d   1     -48.746  13.502  22.991  0.00  0.00    -0.060 SA
ATOM      4  C   UNL d   1     -48.956  14.819  22.935  0.00  0.00     0.088 A 
ATOM      5  C   UNL d   1     -49.308  14.084  23.100  0.00  0.00     0.049 A 
ATOM      6  C   UNL d   1     -49.392  15.504  22.999  0.00  0.00     0.020 A 
ATOM      7  C   UNL d   1     -50.089  14.050  23.325  0.00  0.00     0.008 A 
ATOM      8  C   UNL d   1     -50.543  14.741  23.394  0.00  0.00     0.001 A 
ATOM      9  C   UNL d   1     -50.199  15.460  23.233  0.00  0.00     0.002 A 
ENDROOT
BRANCH   1  10
ATOM     10  S   UNL d   1     -47.340  13.510  22.589  0.00  0.00    -0.077 SA
BRANCH  10  11
ATOM     11  C   UNL d   1     -46.716  13.599  23.132  0.00  0.00     0.161 C 
BRANCH  11  12
ATOM     12  C   UNL d   1     -45.993  13.212  22.991  0.00  0.00     0.197 C 
ATOM     13  O   UNL d   1     -45.454  13.513  22.426  0.00  0.00    -0.647 OA
ATOM     14  O   UNL d   1     -45.808  12.536  23.404  0.00  0.00    -0.647 OA
ENDBRANCH  11  12
ENDBRANCH  10  11
ENDBRANCH   1  10
TORSDOF 3
ENDMDL
MODEL 3
REMARK VINA RESULT:      -4.7      8.532      9.210
REMARK  3 active torsions:
REMARK  status: ('A' for Active; 'I' for Inactive)
REMARK    1  A    between atoms: S_6  and  C_1 
REMARK    2  A    between atoms: C_9  and  S_6 
REMARK    3  A    between atoms: C_7  and  C_9 
ROOT
ATOM      1  C   UNL d   1     -40.298  14.597  18.756  0.00  0.00     0.137 A 
ATOM      2  N   UNL d   1     -40.857  14.583  19.356  0.00  0.00    -0.232 NA
ATOM      3  S   UNL d   1     -39.557  14.499  19.087  0.00  0.00    -0.060 SA
ATOM      4  C   UNL d   1     -40.469  14.476  20.062  0.00  0.00     0.088 A 
ATOM      5  C   UNL d   1     -39.656  14.424  19.893  0.00  0.00     0.049 A 
ATOM      6  C   UNL d   1     -40.731  14.419  20.831  0.00  0.00     0.020 A 
ATOM      7  C   UNL d   1     -39.123  14.315  20.498  0.00  0.00     0.008 A 
ATOM      8  C   UNL d   1     -39.378  14.255  21.286  0.00  0.00     0.001 A 
ATOM      9  C   UNL d   1     -40.172  14.307  21.451  0.00  0.00     0.002 A 
ENDROOT
BRANCH   1  10
ATOM     10  S   UNL d   1     -40.475  14.694  17.965  0.00  0.00    -0.077 SA
BRANCH  10  11
ATOM     11  C   UNL d   1     -40.819  15.413  17.726  0.00  0.00     0.161 C 
BRANCH  11  12
ATOM     12  C   UNL d   1     -40.962  15.549  16.917  0.00  0.00     0.197 C 
ATOM     13  O   UNL d   1     -41.682  15.305  16.568  0.00  0.00    -0.647 OA
ATOM     14  O   UNL d   1     -40.400  15.921  16.463  0.00  0.00    -0.647 OA
ENDBRANCH  11  12
ENDBRANCH  10  11
ENDBRANCH   1  10
TORSDOF 3
ENDMDL
