MODEL 1
REMARK VINA RESULT:      -8.3      0.000      0.000
REMARK  7 active torsions:
REMARK  status: ('A' for Active; 'I' for Inactive)
REMARK    1  A    between atoms: C_13  and  C_4 
REMARK    2  A    between atoms: N_16  and  C_6 
REMARK    3  A    between atoms: C_17  and  C_9 
REMARK    4  A    between atoms: N_11  and  C_19 
REMARK    5  A    between atoms: C_21  and  N_16 
REMARK    6  A    between atoms: C_19  and  C_20 
REMARK    7  A    between atoms: C_20  and  C_21 
ROOT
ATOM      1  C   UNL d   1      52.542  33.876  53.734  0.00  0.00     0.168 A 
ATOM      2  N   UNL d   1      51.860  34.211  53.403  0.00  0.00    -0.184 N 
ATOM      3  N   UNL d   1      52.203  35.468  53.968  0.00  0.00    -0.162 NA
ATOM      4  C   UNL d   1      53.041  34.332  54.173  0.00  0.00     0.055 A 
ATOM      5  N   UNL d   1      52.701  33.084  53.611  0.00  0.00    -0.227 NA
ATOM      6  C   UNL d   1      51.362  33.741  52.960  0.00  0.00     0.218 A 
ATOM      7  C   UNL d   1      52.885  35.133  54.300  0.00  0.00     0.104 A 
ATOM      8  C   UNL d   1      51.535  32.925  52.839  0.00  0.00     0.071 A 
ATOM      9  C   UNL d   1      52.201  32.623  53.171  0.00  0.00     0.087 A 
ATOM     10  C   UNL d   1      53.382  35.586  54.737  0.00  0.00     0.023 C 
ENDROOT
BRANCH   6  11
ATOM     11  N   UNL d   1      50.662  34.081  52.618  0.00  0.00    -0.380 NA
BRANCH  11  12
ATOM     12  C   UNL d   1      49.969  34.371  52.223  0.00  0.00     0.164 C 
BRANCH  12  13
ATOM     13  C   UNL d   1      49.438  34.871  52.640  0.00  0.00     0.054 C 
BRANCH  13  14
ATOM     14  C   UNL d   1      48.712  35.105  52.275  0.00  0.00     0.084 C 
BRANCH  14  15
ATOM     15  N   UNL d   1      48.214  35.684  52.653  0.00  0.00    -0.285 N 
ATOM     16  C   UNL d   1      48.284  35.962  53.445  0.00  0.00     0.183 A 
ATOM     17  N   UNL d   1      47.669  36.535  53.581  0.00  0.00    -0.222 NA
ATOM     18  C   UNL d   1      47.221  36.606  52.866  0.00  0.00     0.120 A 
ATOM     19  C   UNL d   1      47.554  36.084  52.295  0.00  0.00     0.102 A 
ENDBRANCH  14  15
ENDBRANCH  13  14
ENDBRANCH  12  13
ENDBRANCH  11  12
ENDBRANCH   6  11
BRANCH   9  20
ATOM     20  C   UNL d   1      52.372  31.790  53.045  0.00  0.00     0.018 C 
ATOM     21  C   UNL d   1      51.934  31.196  53.492  0.00  0.00     0.002 C 
ATOM     22  C   UNL d   1      52.973  31.552  52.481  0.00  0.00     0.002 C 
ENDBRANCH   9  20
BRANCH   4  23
ATOM     23  C   UNL d   1      53.729  33.994  54.508  0.00  0.00     0.004 A 
ATOM     24  C   UNL d   1      54.432  34.011  54.094  0.00  0.00     0.000 A 
ATOM     25  C   UNL d   1      55.111  33.678  54.425  0.00  0.00     0.000 A 
ATOM     26  C   UNL d   1      55.071  33.335  55.162  0.00  0.00     0.000 A 
ATOM     27  C   UNL d   1      54.359  33.320  55.575  0.00  0.00     0.000 A 
ATOM     28  C   UNL d   1      53.696  33.651  55.243  0.00  0.00     0.000 A 
ENDBRANCH   4  23
TORSDOF 7
ENDMDL
MODEL 2
REMARK VINA RESULT:      -7.6      0.907      2.168
REMARK  7 active torsions:
REMARK  status: ('A' for Active; 'I' for Inactive)
REMARK    1  A    between atoms: C_13  and  C_4 
REMARK    2  A    between atoms: N_16  and  C_6 
REMARK    3  A    between atoms: C_17  and  C_9 
REMARK    4  A    between atoms: N_11  and  C_19 
REMARK    5  A    between atoms: C_21  and  N_16 
REMARK    6  A    between atoms: C_19  and  C_20 
REMARK    7  A    between atoms: C_20  and  C_21 
ROOT
ATOM      1  C   UNL d   1      52.458  33.427  53.357  0.00  0.00     0.168 A 
ATOM      2  N   UNL d   1      51.736  33.492  52.956  0.00  0.00    -0.184 N 
ATOM      3  N   UNL d   1      51.809  32.118  52.603  0.00  0.00    -0.162 NA
ATOM      4  C   UNL d   1      52.844  32.720  53.378  0.00  0.00     0.055 A 
ATOM      5  N   UNL d   1      52.771  34.085  53.728  0.00  0.00    -0.227 NA
ATOM      6  C   UNL d   1      51.353  34.212  52.940  0.00  0.00     0.218 A 
ATOM      7  C   UNL d   1      52.531  32.054  53.004  0.00  0.00     0.104 A 
ATOM      8  C   UNL d   1      51.684  34.884  53.326  0.00  0.00     0.071 A 
ATOM      9  C   UNL d   1      52.385  34.797  53.709  0.00  0.00     0.087 A 
ATOM     10  C   UNL d   1      52.916  31.350  53.026  0.00  0.00     0.023 C 
ENDROOT
BRANCH   6  11
ATOM     11  N   UNL d   1      50.612  34.282  52.530  0.00  0.00    -0.380 NA
BRANCH  11  12
ATOM     12  C   UNL d   1      49.910  34.378  52.063  0.00  0.00     0.164 C 
BRANCH  12  13
ATOM     13  C   UNL d   1      49.290  34.869  52.349  0.00  0.00     0.054 C 
BRANCH  13  14
ATOM     14  C   UNL d   1      48.606  34.997  51.870  0.00  0.00     0.084 C 
BRANCH  14  15
ATOM     15  N   UNL d   1      48.007  35.548  52.124  0.00  0.00    -0.285 N 
ATOM     16  C   UNL d   1      47.987  35.960  52.858  0.00  0.00     0.183 A 
ATOM     17  N   UNL d   1      47.290  36.449  52.871  0.00  0.00    -0.222 NA
ATOM     18  C   UNL d   1      46.882  36.333  52.137  0.00  0.00     0.120 A 
ATOM     19  C   UNL d   1      47.321  35.780  51.678  0.00  0.00     0.102 A 
ENDBRANCH  14  15
ENDBRANCH  13  14
ENDBRANCH  12  13
ENDBRANCH  11  12
ENDBRANCH   6  11
BRANCH   9  20
ATOM     20  C   UNL d   1      52.719  35.485  54.101  0.00  0.00     0.018 C 
ATOM     21  C   UNL d   1      52.442  35.697  54.890  0.00  0.00     0.002 C 
ATOM     22  C   UNL d   1      53.320  35.956  53.711  0.00  0.00     0.002 C 
ENDBRANCH   9  20
BRANCH   4  23
ATOM     23  C   UNL d   1      53.573  32.655  53.783  0.00  0.00     0.004 A 
ATOM     24  C   UNL d   1      54.273  32.774  53.380  0.00  0.00     0.000 A 
ATOM     25  C   UNL d   1      54.992  32.709  53.780  0.00  0.00     0.000 A 
ATOM     26  C   UNL d   1      54.995  32.527  54.573  0.00  0.00     0.000 A 
ATOM     27  C   UNL d   1      54.286  32.408  54.975  0.00  0.00     0.000 A 
ATOM     28  C   UNL d   1      53.583  32.473  54.574  0.00  0.00     0.000 A 
ENDBRANCH   4  23
TORSDOF 7
ENDMDL
MODEL 3
REMARK VINA RESULT:      -6.7      2.035      4.914
REMARK  7 active torsions:
REMARK  status: ('A' for Active; 'I' for Inactive)
REMARK    1  A    between atoms: C_13  and  C_4 
REMARK    2  A    between atoms: N_16  and  C_6 
REMARK    3  A    between atoms: C_17  and  C_9 
REMARK    4  A    between atoms: N_11  and  C_19 
REMARK    5  A    between atoms: C_21  and  N_16 
REMARK    6  A    between atoms: C_19  and  C_20 
REMARK    7  A    between atoms: C_20  and  C_21 
ROOT
ATOM      1  C   UNL d   1      53.028  33.451  53.727  0.00  0.00     0.168 A 
ATOM      2  N   UNL d   1      53.164  32.656  53.534  0.00  0.00    -0.184 N 
ATOM      3  N   UNL d   1      54.334  32.660  54.339  0.00  0.00    -0.162 NA
ATOM      4  C   UNL d   1      53.538  33.837  54.217  0.00  0.00     0.055 A 
ATOM      5  N   UNL d   1      52.376  33.833  53.418  0.00  0.00    -0.227 NA
ATOM      6  C   UNL d   1      52.642  32.274  53.037  0.00  0.00     0.218 A 
ATOM      7  C   UNL d   1      54.198  33.455  54.532  0.00  0.00     0.104 A 
ATOM      8  C   UNL d   1      51.972  32.677  52.723  0.00  0.00     0.071 A 
ATOM      9  C   UNL d   1      51.861  33.447  52.925  0.00  0.00     0.087 A 
ATOM     10  C   UNL d   1      54.705  33.841  55.020  0.00  0.00     0.023 C 
ENDROOT
BRANCH   6  11
ATOM     11  N   UNL d   1      52.778  31.459  52.836  0.00  0.00    -0.380 NA
BRANCH  11  12
ATOM     12  C   UNL d   1      52.843  30.634  52.647  0.00  0.00     0.164 C 
BRANCH  12  13
ATOM     13  C   UNL d   1      53.223  30.117  53.189  0.00  0.00     0.054 C 
BRANCH  13  14
ATOM     14  C   UNL d   1      52.794  29.467  53.517  0.00  0.00     0.084 C 
BRANCH  14  15
ATOM     15  N   UNL d   1      53.082  29.078  54.218  0.00  0.00    -0.285 N 
ATOM     16  C   UNL d   1      53.556  28.382  54.243  0.00  0.00     0.183 A 
ATOM     17  N   UNL d   1      53.711  28.194  55.059  0.00  0.00    -0.222 NA
ATOM     18  C   UNL d   1      53.328  28.781  55.535  0.00  0.00     0.120 A 
ATOM     19  C   UNL d   1      52.941  29.325  55.020  0.00  0.00     0.102 A 
ENDBRANCH  14  15
ENDBRANCH  13  14
ENDBRANCH  12  13
ENDBRANCH  11  12
ENDBRANCH   6  11
BRANCH   9  20
ATOM     20  C   UNL d   1      51.177  33.854  52.602  0.00  0.00     0.018 C 
ATOM     21  C   UNL d   1      51.240  34.240  51.832  0.00  0.00     0.002 C 
ATOM     22  C   UNL d   1      50.441  33.877  53.040  0.00  0.00     0.002 C 
ENDBRANCH   9  20
BRANCH   4  23
ATOM     23  C   UNL d   1      53.401  34.639  54.413  0.00  0.00     0.004 A 
ATOM     24  C   UNL d   1      52.996  34.827  55.096  0.00  0.00     0.000 A 
ATOM     25  C   UNL d   1      52.860  35.618  55.289  0.00  0.00     0.000 A 
ATOM     26  C   UNL d   1      53.134  36.203  54.794  0.00  0.00     0.000 A 
ATOM     27  C   UNL d   1      53.542  36.009  54.106  0.00  0.00     0.000 A 
ATOM     28  C   UNL d   1      53.671  35.228  53.924  0.00  0.00     0.000 A 
ENDBRANCH   4  23
TORSDOF 7
ENDMDL
