MODEL 1
REMARK VINA RESULT:      -3.3      0.000      0.000
REMARK  7 active torsions:
REMARK  status: ('A' for Active; 'I' for Inactive)
REMARK    1  A    between atoms: C_10  and  N_1 
REMARK    2  A    between atoms: S_12  and  C_2 
REMARK    3  A    between atoms: S_3  and  N_11 
REMARK    4  A    between atoms: C_7  and  S_3 
REMARK    5  A    between atoms: N_11  and  C_15 
REMARK    6  A    between atoms: C_19  and  S_12 
REMARK    7  A    between atoms: C_15  and  C_19 
ROOT
ATOM      1  C   UNL d   1      32.974  20.063 -21.962  0.00  0.00     0.060 C 
ENDROOT
BRANCH   1   2
ATOM      2  C   UNL d   1      33.046  19.709 -22.688  0.00  0.00     0.119 C 
BRANCH   2   3
ATOM      3  N   UNL d   1      33.236  18.902 -22.751  0.00  0.00    -0.156 NA
BRANCH   3   4
ATOM      4  S   UNL d   1      32.786  18.409 -23.235  0.00  0.00     0.285 S 
ATOM      5  O   UNL d   1      32.755  17.818 -22.618  0.00  0.00    -0.198 OA
ATOM      6  O   UNL d   1      32.801  18.968 -23.852  0.00  0.00    -0.198 OA
BRANCH   4   7
ATOM      7  C   UNL d   1      32.325  17.891 -23.717  0.00  0.00     0.105 A 
ATOM      8  C   UNL d   1      32.114  17.166 -23.410  0.00  0.00     0.013 A 
ATOM      9  C   UNL d   1      31.669  16.657 -23.864  0.00  0.00     0.001 A 
ATOM     10  C   UNL d   1      31.434  16.876 -24.631  0.00  0.00     0.000 A 
ATOM     11  C   UNL d   1      31.654  17.602 -24.920  0.00  0.00     0.001 A 
ATOM     12  C   UNL d   1      30.976  16.348 -25.096  0.00  0.00     0.000 C 
ATOM     13  C   UNL d   1      32.090  18.109 -24.484  0.00  0.00     0.013 A 
ENDBRANCH   4   7
ENDBRANCH   3   4
ENDBRANCH   2   3
ENDBRANCH   1   2
BRANCH   1  14
ATOM     14  S   UNL d   1      32.990  20.859 -21.886  0.00  0.00    -0.045 SA
BRANCH  14  15
ATOM     15  C   UNL d   1      33.069  21.211 -21.148  0.00  0.00     0.219 A 
ATOM     16  N   UNL d   1      32.983  22.010 -21.077  0.00  0.00    -0.186 N 
ATOM     17  N   UNL d   1      33.089  22.214 -20.282  0.00  0.00    -0.038 NA
ATOM     18  N   UNL d   1      33.239  21.522 -19.883  0.00  0.00    -0.022 NA
ATOM     19  N   UNL d   1      33.229  20.914 -20.395  0.00  0.00    -0.101 NA
BRANCH  16  20
ATOM     20  C   UNL d   1      32.818  22.529 -21.695  0.00  0.00     0.087 A 
ATOM     21  C   UNL d   1      33.224  22.483 -22.406  0.00  0.00     0.019 A 
ATOM     22  C   UNL d   1      33.054  23.010 -23.029  0.00  0.00     0.002 A 
ATOM     23  C   UNL d   1      32.472  23.588 -22.937  0.00  0.00     0.000 A 
ATOM     24  C   UNL d   1      32.065  23.630 -22.216  0.00  0.00     0.002 A 
ATOM     25  C   UNL d   1      32.235  23.104 -21.596  0.00  0.00     0.019 A 
ENDBRANCH  16  20
ENDBRANCH  14  15
ENDBRANCH   1  14
TORSDOF 7
ENDMDL
MODEL 2
REMARK VINA RESULT:      -3.3      1.568      5.581
REMARK  7 active torsions:
REMARK  status: ('A' for Active; 'I' for Inactive)
REMARK    1  A    between atoms: C_10  and  N_1 
REMARK    2  A    between atoms: S_12  and  C_2 
REMARK    3  A    between atoms: S_3  and  N_11 
REMARK    4  A    between atoms: C_7  and  S_3 
REMARK    5  A    between atoms: N_11  and  C_15 
REMARK    6  A    between atoms: C_19  and  S_12 
REMARK    7  A    between atoms: C_15  and  C_19 
ROOT
ATOM      1  C   UNL d   1      33.187  18.935 -22.562  0.00  0.00     0.060 C 
ENDROOT
BRANCH   1   2
ATOM      2  C   UNL d   1      32.937  19.634 -22.237  0.00  0.00     0.119 C 
BRANCH   2   3
ATOM      3  N   UNL d   1      33.240  19.897 -21.509  0.00  0.00    -0.156 NA
BRANCH   3   4
ATOM      4  S   UNL d   1      33.077  20.661 -21.246  0.00  0.00     0.285 S 
ATOM      5  O   UNL d   1      33.108  20.397 -20.433  0.00  0.00    -0.198 OA
ATOM      6  O   UNL d   1      33.040  20.943 -22.028  0.00  0.00    -0.198 OA
BRANCH   4   7
ATOM      7  C   UNL d   1      32.910  21.438 -20.958  0.00  0.00     0.105 A 
ATOM      8  C   UNL d   1      33.211  21.652 -20.233  0.00  0.00     0.013 A 
ATOM      9  C   UNL d   1      33.058  22.398 -19.944  0.00  0.00     0.001 A 
ATOM     10  C   UNL d   1      32.599  22.933 -20.386  0.00  0.00     0.000 A 
ATOM     11  C   UNL d   1      32.307  22.702 -21.107  0.00  0.00     0.001 A 
ATOM     12  C   UNL d   1      32.443  23.701 -20.084  0.00  0.00     0.000 C 
ATOM     13  C   UNL d   1      32.451  21.973 -21.400  0.00  0.00     0.013 A 
ENDBRANCH   4   7
ENDBRANCH   3   4
ENDBRANCH   2   3
ENDBRANCH   1   2
BRANCH   1  14
ATOM     14  S   UNL d   1      32.689  18.475 -22.987  0.00  0.00    -0.045 SA
BRANCH  14  15
ATOM     15  C   UNL d   1      32.755  18.424 -23.804  0.00  0.00     0.219 A 
ATOM     16  N   UNL d   1      32.563  17.734 -24.177  0.00  0.00    -0.186 N 
ATOM     17  N   UNL d   1      32.680  17.836 -24.990  0.00  0.00    -0.038 NA
ATOM     18  N   UNL d   1      32.945  18.598 -25.092  0.00  0.00    -0.022 NA
ATOM     19  N   UNL d   1      32.994  18.958 -24.386  0.00  0.00    -0.101 NA
BRANCH  16  20
ATOM     20  C   UNL d   1      32.296  17.049 -23.806  0.00  0.00     0.087 A 
ATOM     21  C   UNL d   1      31.512  16.968 -23.582  0.00  0.00     0.019 A 
ATOM     22  C   UNL d   1      31.246  16.273 -23.207  0.00  0.00     0.002 A 
ATOM     23  C   UNL d   1      31.771  15.656 -23.055  0.00  0.00     0.000 A 
ATOM     24  C   UNL d   1      32.563  15.743 -23.283  0.00  0.00     0.002 A 
ATOM     25  C   UNL d   1      32.827  16.436 -23.658  0.00  0.00     0.019 A 
ENDBRANCH  16  20
ENDBRANCH  14  15
ENDBRANCH   1  14
TORSDOF 7
ENDMDL
MODEL 3
REMARK VINA RESULT:      -2.4      1.356      2.015
REMARK  7 active torsions:
REMARK  status: ('A' for Active; 'I' for Inactive)
REMARK    1  A    between atoms: C_10  and  N_1 
REMARK    2  A    between atoms: S_12  and  C_2 
REMARK    3  A    between atoms: S_3  and  N_11 
REMARK    4  A    between atoms: C_7  and  S_3 
REMARK    5  A    between atoms: N_11  and  C_15 
REMARK    6  A    between atoms: C_19  and  S_12 
REMARK    7  A    between atoms: C_15  and  C_19 
ROOT
ATOM      1  C   UNL d   1      33.241  20.791 -23.678  0.00  0.00     0.060 C 
ENDROOT
BRANCH   1   2
ATOM      2  C   UNL d   1      33.166  19.989 -23.597  0.00  0.00     0.119 C 
BRANCH   2   3
ATOM      3  N   UNL d   1      33.136  19.495 -24.266  0.00  0.00    -0.156 NA
BRANCH   3   4
ATOM      4  S   UNL d   1      32.681  18.806 -24.250  0.00  0.00     0.285 S 
ATOM      5  O   UNL d   1      32.095  19.172 -24.754  0.00  0.00    -0.198 OA
ATOM      6  O   UNL d   1      33.237  18.428 -23.759  0.00  0.00    -0.198 OA
BRANCH   4   7
ATOM      7  C   UNL d   1      32.203  18.111 -24.245  0.00  0.00     0.105 A 
ATOM      8  C   UNL d   1      31.789  17.923 -24.921  0.00  0.00     0.013 A 
ATOM      9  C   UNL d   1      31.325  17.255 -24.930  0.00  0.00     0.001 A 
ATOM     10  C   UNL d   1      31.274  16.770 -24.257  0.00  0.00     0.000 A 
ATOM     11  C   UNL d   1      31.693  16.972 -23.592  0.00  0.00     0.001 A 
ATOM     12  C   UNL d   1      30.793  16.081 -24.270  0.00  0.00     0.000 C 
ATOM     13  C   UNL d   1      32.152  17.626 -23.572  0.00  0.00     0.013 A 
ENDBRANCH   4   7
ENDBRANCH   3   4
ENDBRANCH   2   3
ENDBRANCH   1   2
BRANCH   1  14
ATOM     14  S   UNL d   1      33.018  21.289 -23.092  0.00  0.00    -0.045 SA
BRANCH  14  15
ATOM     15  C   UNL d   1      33.055  22.103 -23.193  0.00  0.00     0.219 A 
ATOM     16  N   UNL d   1      32.923  22.588 -22.562  0.00  0.00    -0.186 N 
ATOM     17  N   UNL d   1      32.994  23.372 -22.817  0.00  0.00    -0.038 NA
ATOM     18  N   UNL d   1      33.170  23.343 -23.610  0.00  0.00    -0.022 NA
ATOM     19  N   UNL d   1      33.209  22.585 -23.845  0.00  0.00    -0.101 NA
BRANCH  16  20
ATOM     20  C   UNL d   1      32.748  22.340 -21.796  0.00  0.00     0.087 A 
ATOM     21  C   UNL d   1      32.101  21.860 -21.646  0.00  0.00     0.019 A 
ATOM     22  C   UNL d   1      31.928  21.610 -20.870  0.00  0.00     0.002 A 
ATOM     23  C   UNL d   1      32.408  21.845 -20.241  0.00  0.00     0.000 A 
ATOM     24  C   UNL d   1      33.060  22.330 -20.399  0.00  0.00     0.002 A 
ATOM     25  C   UNL d   1      33.232  22.578 -21.173  0.00  0.00     0.019 A 
ENDBRANCH  16  20
ENDBRANCH  14  15
ENDBRANCH   1  14
TORSDOF 7
ENDMDL
MODEL 4
REMARK VINA RESULT:      -0.7      1.554      2.144
REMARK  7 active torsions:
REMARK  status: ('A' for Active; 'I' for Inactive)
REMARK    1  A    between atoms: C_10  and  N_1 
REMARK    2  A    between atoms: S_12  and  C_2 
REMARK    3  A    between atoms: S_3  and  N_11 
REMARK    4  A    between atoms: C_7  and  S_3 
REMARK    5  A    between atoms: N_11  and  C_15 
REMARK    6  A    between atoms: C_19  and  S_12 
REMARK    7  A    between atoms: C_15  and  C_19 
ROOT
ATOM      1  C   UNL d   1      32.619  18.527 -22.871  0.00  0.00     0.060 C 
ENDROOT
BRANCH   1   2
ATOM      2  C   UNL d   1      32.136  18.201 -23.433  0.00  0.00     0.119 C 
BRANCH   2   3
ATOM      3  N   UNL d   1      32.050  17.376 -23.494  0.00  0.00    -0.156 NA
BRANCH   3   4
ATOM      4  S   UNL d   1      31.323  17.052 -23.711  0.00  0.00     0.285 S 
ATOM      5  O   UNL d   1      31.306  16.588 -22.993  0.00  0.00    -0.198 OA
ATOM      6  O   UNL d   1      31.316  17.492 -24.417  0.00  0.00    -0.198 OA
BRANCH   4   7
ATOM      7  C   UNL d   1      30.579  16.710 -23.917  0.00  0.00     0.105 A 
ATOM      8  C   UNL d   1      30.189  17.002 -24.570  0.00  0.00     0.013 A 
ATOM      9  C   UNL d   1      29.471  16.681 -24.779  0.00  0.00     0.001 A 
ATOM     10  C   UNL d   1      29.141  16.062 -24.332  0.00  0.00     0.000 A 
ATOM     11  C   UNL d   1      29.544  15.784 -23.685  0.00  0.00     0.001 A 
ATOM     12  C   UNL d   1      28.399  15.734 -24.552  0.00  0.00     0.000 C 
ATOM     13  C   UNL d   1      30.249  16.091 -23.470  0.00  0.00     0.013 A 
ENDBRANCH   4   7
ENDBRANCH   3   4
ENDBRANCH   2   3
ENDBRANCH   1   2
BRANCH   1  14
ATOM     14  S   UNL d   1      32.703  19.320 -22.806  0.00  0.00    -0.045 SA
BRANCH  14  15
ATOM     15  C   UNL d   1      32.885  19.669 -22.086  0.00  0.00     0.219 A 
ATOM     16  N   UNL d   1      33.087  20.450 -22.061  0.00  0.00    -0.186 N 
ATOM     17  N   UNL d   1      33.241  20.654 -21.274  0.00  0.00    -0.038 NA
ATOM     18  N   UNL d   1      33.126  19.981 -20.833  0.00  0.00    -0.022 NA
ATOM     19  N   UNL d   1      32.912  19.384 -21.312  0.00  0.00    -0.101 NA
BRANCH  16  20
ATOM     20  C   UNL d   1      33.131  20.953 -22.712  0.00  0.00     0.087 A 
ATOM     21  C   UNL d   1      33.196  20.654 -23.472  0.00  0.00     0.019 A 
ATOM     22  C   UNL d   1      33.240  21.166 -24.128  0.00  0.00     0.002 A 
ATOM     23  C   UNL d   1      33.219  21.983 -24.019  0.00  0.00     0.000 A 
ATOM     24  C   UNL d   1      33.153  22.280 -23.248  0.00  0.00     0.002 A 
ATOM     25  C   UNL d   1      33.109  21.768 -22.595  0.00  0.00     0.019 A 
ENDBRANCH  16  20
ENDBRANCH  14  15
ENDBRANCH   1  14
TORSDOF 7
ENDMDL
