MODEL 1
REMARK VINA RESULT:      -8.4      0.000      0.000
REMARK  1 active torsions:
REMARK  status: ('A' for Active; 'I' for Inactive)
REMARK    1  A    between atoms: C_2  and  N_1 
ROOT
ATOM      1  C   UNL d   1      53.448  34.064  54.511  0.00  0.00     0.127 A 
ATOM      2  C   UNL d   1      52.978  33.767  53.898  0.00  0.00     0.025 A 
ATOM      3  C   UNL d   1      53.071  32.991  53.645  0.00  0.00     0.021 A 
ATOM      4  N   UNL d   1      52.696  31.920  52.781  0.00  0.00    -0.242 NA
ATOM      5  C   UNL d   1      53.632  32.506  54.002  0.00  0.00     0.003 A 
ATOM      6  C   UNL d   1      54.010  33.570  54.865  0.00  0.00     0.024 A 
ATOM      7  C   UNL d   1      54.103  32.795  54.613  0.00  0.00     0.002 A 
ATOM      8  C   UNL d   1      52.603  32.696  53.034  0.00  0.00     0.099 A 
ATOM      9  C   UNL d   1      53.257  31.435  53.138  0.00  0.00     0.099 A 
ATOM     10  C   UNL d   1      53.733  31.719  53.753  0.00  0.00     0.021 A 
ENDROOT
BRANCH   1  11
ATOM     11  N   UNL d   1      53.355  34.843  54.766  0.00  0.00    -0.114 N 
ATOM     12  O   UNL d   1      53.251  35.003  55.567  0.00  0.00    -0.532 OA
ATOM     13  O   UNL d   1      53.368  35.466  54.221  0.00  0.00    -0.532 OA
ENDBRANCH   1  11
TORSDOF 1
ENDMDL
MODEL 2
REMARK VINA RESULT:      -8.2      1.734      2.738
REMARK  1 active torsions:
REMARK  status: ('A' for Active; 'I' for Inactive)
REMARK    1  A    between atoms: C_2  and  N_1 
ROOT
ATOM      1  C   UNL d   1      53.192  32.366  53.379  0.00  0.00     0.127 A 
ATOM      2  C   UNL d   1      53.007  33.051  53.806  0.00  0.00     0.025 A 
ATOM      3  C   UNL d   1      53.568  33.397  54.296  0.00  0.00     0.021 A 
ATOM      4  N   UNL d   1      53.942  34.424  55.212  0.00  0.00    -0.242 NA
ATOM      5  C   UNL d   1      54.317  33.063  54.364  0.00  0.00     0.003 A 
ATOM      6  C   UNL d   1      53.949  32.038  53.453  0.00  0.00     0.024 A 
ATOM      7  C   UNL d   1      54.509  32.383  53.942  0.00  0.00     0.002 A 
ATOM      8  C   UNL d   1      53.381  34.078  54.722  0.00  0.00     0.099 A 
ATOM      9  C   UNL d   1      54.691  34.091  55.279  0.00  0.00     0.099 A 
ATOM     10  C   UNL d   1      54.891  33.407  54.858  0.00  0.00     0.021 A 
ENDROOT
BRANCH   1  11
ATOM     11  N   UNL d   1      52.630  32.018  52.886  0.00  0.00    -0.114 N 
ATOM     12  O   UNL d   1      52.424  31.228  52.994  0.00  0.00    -0.532 OA
ATOM     13  O   UNL d   1      52.272  32.458  52.282  0.00  0.00    -0.532 OA
ENDBRANCH   1  11
TORSDOF 1
ENDMDL
MODEL 3
REMARK VINA RESULT:      -8.1      1.583      2.412
REMARK  1 active torsions:
REMARK  status: ('A' for Active; 'I' for Inactive)
REMARK    1  A    between atoms: C_2  and  N_1 
ROOT
ATOM      1  C   UNL d   1      52.316  33.365  53.366  0.00  0.00     0.127 A 
ATOM      2  C   UNL d   1      52.612  33.899  53.926  0.00  0.00     0.025 A 
ATOM      3  C   UNL d   1      53.336  33.760  54.287  0.00  0.00     0.021 A 
ATOM      4  N   UNL d   1      54.354  34.153  55.206  0.00  0.00    -0.242 NA
ATOM      5  C   UNL d   1      53.771  33.088  54.094  0.00  0.00     0.003 A 
ATOM      6  C   UNL d   1      52.760  32.692  53.177  0.00  0.00     0.024 A 
ATOM      7  C   UNL d   1      53.484  32.553  53.538  0.00  0.00     0.002 A 
ATOM      8  C   UNL d   1      53.630  34.292  54.845  0.00  0.00     0.099 A 
ATOM      9  C   UNL d   1      54.788  33.482  55.012  0.00  0.00     0.099 A 
ATOM     10  C   UNL d   1      54.505  32.940  54.454  0.00  0.00     0.021 A 
ENDROOT
BRANCH   1  11
ATOM     11  N   UNL d   1      51.589  33.503  53.003  0.00  0.00    -0.114 N 
ATOM     12  O   UNL d   1      50.899  33.209  53.341  0.00  0.00    -0.532 OA
ATOM     13  O   UNL d   1      51.549  33.936  52.298  0.00  0.00    -0.532 OA
ENDBRANCH   1  11
TORSDOF 1
ENDMDL
MODEL 4
REMARK VINA RESULT:      -8.0      1.175      1.562
REMARK  1 active torsions:
REMARK  status: ('A' for Active; 'I' for Inactive)
REMARK    1  A    between atoms: C_2  and  N_1 
ROOT
ATOM      1  C   UNL d   1      54.362  33.501  54.728  0.00  0.00     0.127 A 
ATOM      2  C   UNL d   1      54.343  32.724  54.443  0.00  0.00     0.025 A 
ATOM      3  C   UNL d   1      53.737  32.481  53.945  0.00  0.00     0.021 A 
ATOM      4  N   UNL d   1      53.114  31.463  53.164  0.00  0.00    -0.242 NA
ATOM      5  C   UNL d   1      53.146  33.010  53.726  0.00  0.00     0.003 A 
ATOM      6  C   UNL d   1      53.763  34.028  54.503  0.00  0.00     0.024 A 
ATOM      7  C   UNL d   1      53.158  33.785  54.005  0.00  0.00     0.002 A 
ATOM      8  C   UNL d   1      53.720  31.706  53.662  0.00  0.00     0.099 A 
ATOM      9  C   UNL d   1      52.523  31.993  52.945  0.00  0.00     0.099 A 
ATOM     10  C   UNL d   1      52.529  32.773  53.222  0.00  0.00     0.021 A 
ENDROOT
BRANCH   1  11
ATOM     11  N   UNL d   1      54.970  33.747  55.228  0.00  0.00    -0.114 N 
ATOM     12  O   UNL d   1      54.904  33.632  56.040  0.00  0.00    -0.532 OA
ATOM     13  O   UNL d   1      55.647  34.109  54.918  0.00  0.00    -0.532 OA
ENDBRANCH   1  11
TORSDOF 1
ENDMDL
MODEL 5
REMARK VINA RESULT:      -7.8      1.457      1.944
REMARK  1 active torsions:
REMARK  status: ('A' for Active; 'I' for Inactive)
REMARK    1  A    between atoms: C_2  and  N_1 
ROOT
ATOM      1  C   UNL d   1      54.036  33.387  54.569  0.00  0.00     0.127 A 
ATOM      2  C   UNL d   1      53.536  34.032  54.426  0.00  0.00     0.025 A 
ATOM      3  C   UNL d   1      52.960  33.987  53.842  0.00  0.00     0.021 A 
ATOM      4  N   UNL d   1      51.888  34.585  53.116  0.00  0.00    -0.242 NA
ATOM      5  C   UNL d   1      52.878  33.300  53.396  0.00  0.00     0.003 A 
ATOM      6  C   UNL d   1      53.946  32.699  54.116  0.00  0.00     0.024 A 
ATOM      7  C   UNL d   1      53.371  32.654  53.533  0.00  0.00     0.002 A 
ATOM      8  C   UNL d   1      52.464  34.630  53.700  0.00  0.00     0.099 A 
ATOM      9  C   UNL d   1      51.806  33.898  52.671  0.00  0.00     0.099 A 
ATOM     10  C   UNL d   1      52.298  33.246  52.803  0.00  0.00     0.021 A 
ENDROOT
BRANCH   1  11
ATOM     11  N   UNL d   1      54.614  33.430  55.155  0.00  0.00    -0.114 N 
ATOM     12  O   UNL d   1      54.550  32.964  55.830  0.00  0.00    -0.532 OA
ATOM     13  O   UNL d   1      55.260  33.941  55.068  0.00  0.00    -0.532 OA
ENDBRANCH   1  11
TORSDOF 1
ENDMDL
MODEL 6
REMARK VINA RESULT:      -7.6      1.098      1.332
REMARK  1 active torsions:
REMARK  status: ('A' for Active; 'I' for Inactive)
REMARK    1  A    between atoms: C_2  and  N_1 
ROOT
ATOM      1  C   UNL d   1      52.887  33.576  53.469  0.00  0.00     0.127 A 
ATOM      2  C   UNL d   1      52.545  32.926  53.086  0.00  0.00     0.025 A 
ATOM      3  C   UNL d   1      52.850  32.172  53.201  0.00  0.00     0.021 A 
ATOM      4  N   UNL d   1      52.813  30.772  52.934  0.00  0.00    -0.242 NA
ATOM      5  C   UNL d   1      53.497  32.060  53.698  0.00  0.00     0.003 A 
ATOM      6  C   UNL d   1      53.537  33.455  53.967  0.00  0.00     0.024 A 
ATOM      7  C   UNL d   1      53.842  32.702  54.082  0.00  0.00     0.002 A 
ATOM      8  C   UNL d   1      52.509  31.525  52.819  0.00  0.00     0.099 A 
ATOM      9  C   UNL d   1      53.460  30.660  53.431  0.00  0.00     0.099 A 
ATOM     10  C   UNL d   1      53.811  31.301  53.820  0.00  0.00     0.021 A 
ENDROOT
BRANCH   1  11
ATOM     11  N   UNL d   1      52.582  34.334  53.354  0.00  0.00    -0.114 N 
ATOM     12  O   UNL d   1      52.969  34.860  52.854  0.00  0.00    -0.532 OA
ATOM     13  O   UNL d   1      51.889  34.569  53.741  0.00  0.00    -0.532 OA
ENDBRANCH   1  11
TORSDOF 1
ENDMDL
