MODEL 1
REMARK VINA RESULT:      40.6      0.000      0.000
REMARK  3 active torsions:
REMARK  status: ('A' for Active; 'I' for Inactive)
REMARK    1  A    between atoms: C_4  and  C_1 
REMARK       I    between atoms: N_7  and  C_4 
REMARK    2  A    between atoms: C_9  and  N_7 
REMARK    3  A    between atoms: N_8  and  C_11 
ROOT
ATOM      1  C   UNL d   1      46.244 -17.557  44.335  0.00  0.00     0.263 C 
ATOM      2  N   UNL d   1      46.069 -17.922  43.620  0.00  0.00    -0.210 NA
ATOM      3  O   UNL d   1      46.591 -17.985  44.952  0.00  0.00    -0.270 OA
ENDROOT
BRANCH   1   4
ATOM      4  C   UNL d   1      45.997 -16.772  44.232  0.00  0.00     0.113 A 
ATOM      5  C   UNL d   1      45.848 -15.412  43.892  0.00  0.00     0.025 A 
ATOM      6  C   UNL d   1      45.769 -16.124  44.160  0.00  0.00     0.074 A 
ATOM      7  C   UNL d   1      46.316 -14.882  43.455  0.00  0.00     0.002 C 
ATOM      8  C   UNL d   1      45.297 -14.806  44.020  0.00  0.00     0.002 C 
ATOM      9  C   UNL d   1      45.148 -15.614  44.360  0.00  0.00     0.012 C 
ATOM     10  C   UNL d   1      46.312 -16.567  43.985  0.00  0.00    -0.023 A 
ATOM     11  C   UNL d   1      45.161 -16.487  44.626  0.00  0.00     0.172 A 
ATOM     12  C   UNL d   1      46.646 -17.172  43.982  0.00  0.00    -0.018 A 
ATOM     13  C   UNL d   1      45.438 -17.056  44.644  0.00  0.00     0.024 A 
ATOM     14  O   UNL d   1      44.452 -16.198  44.945  0.00  0.00    -0.291 OA
ENDBRANCH   1   4
BRANCH   2  15
ATOM     15  C   UNL d   1      46.244 -18.729  43.520  0.00  0.00     0.100 A 
ATOM     16  C   UNL d   1      46.190 -19.061  42.767  0.00  0.00     0.082 A 
ATOM     17  C   UNL d   1      46.364 -19.860  42.669  0.00  0.00     0.019 A 
ATOM     18  C   UNL d   1      46.590 -20.327  43.317  0.00  0.00     0.002 A 
ATOM     19  C   UNL d   1      46.640 -19.982  44.066  0.00  0.00     0.002 A 
ATOM     20  C   UNL d   1      46.468 -19.186  44.167  0.00  0.00     0.021 A 
BRANCH  16  21
ATOM     21  N   UNL d   1      45.965 -18.596  42.123  0.00  0.00    -0.302 N 
ATOM     22  C   UNL d   1      46.435 -18.028  41.755  0.00  0.00     0.080 A 
ATOM     23  C   UNL d   1      45.995 -17.692  41.135  0.00  0.00     0.021 A 
ATOM     24  C   UNL d   1      45.254 -18.060  41.127  0.00  0.00     0.021 A 
ATOM     25  C   UNL d   1      45.233 -18.620  41.738  0.00  0.00     0.080 A 
ENDBRANCH  16  21
ENDBRANCH   2  15
TORSDOF 3
ENDMDL
