MODEL 1
REMARK VINA RESULT:      -2.7      0.000      0.000
REMARK  2 active torsions:
REMARK  status: ('A' for Active; 'I' for Inactive)
REMARK    1  A    between atoms: C_9  and  C_4 
REMARK    2  A    between atoms: N_6  and  C_8 
ROOT
ATOM      1  N   UNL d   1      32.905  21.859 -20.825  0.00  0.00    -0.211 NA
ATOM      2  C   UNL d   1      32.983  21.645 -21.618  0.00  0.00     0.140 A 
ATOM      3  C   UNL d   1      33.066  22.230 -22.187  0.00  0.00     0.051 A 
ATOM      4  C   UNL d   1      32.911  22.652 -20.604  0.00  0.00     0.183 A 
ATOM      5  C   UNL d   1      33.073  23.030 -21.975  0.00  0.00     0.104 A 
ATOM      6  O   UNL d   1      32.995  23.244 -21.173  0.00  0.00    -0.289 OA
ATOM      7  S   UNL d   1      32.977  20.853 -21.836  0.00  0.00    -0.057 SA
ATOM      8  C   UNL d   1      33.144  22.020 -22.980  0.00  0.00     0.004 A 
ATOM      9  C   UNL d   1      33.157  23.615 -22.543  0.00  0.00     0.025 A 
ATOM     10  C   UNL d   1      33.229  22.604 -23.561  0.00  0.00     0.000 A 
ATOM     11  C   UNL d   1      33.235  23.397 -23.339  0.00  0.00     0.002 A 
ENDROOT
BRANCH   4  12
ATOM     12  C   UNL d   1      32.832  22.857 -19.806  0.00  0.00     0.041 A 
ATOM     13  C   UNL d   1      32.349  23.498 -19.601  0.00  0.00     0.005 A 
ATOM     14  C   UNL d   1      32.270  23.702 -18.807  0.00  0.00     0.024 A 
ATOM     15  C   UNL d   1      32.666  23.275 -18.219  0.00  0.00     0.127 A 
ATOM     16  C   UNL d   1      33.148  22.633 -18.437  0.00  0.00     0.024 A 
ATOM     17  C   UNL d   1      33.228  22.428 -19.230  0.00  0.00     0.005 A 
BRANCH  15  18
ATOM     18  N   UNL d   1      32.582  23.487 -17.426  0.00  0.00    -0.114 N 
ATOM     19  O   UNL d   1      33.238  23.518 -16.931  0.00  0.00    -0.532 OA
ATOM     20  O   UNL d   1      31.834  23.669 -17.123  0.00  0.00    -0.532 OA
ENDBRANCH  15  18
ENDBRANCH   4  12
TORSDOF 2
ENDMDL
MODEL 2
REMARK VINA RESULT:      -2.7      2.832      3.879
REMARK  2 active torsions:
REMARK  status: ('A' for Active; 'I' for Inactive)
REMARK    1  A    between atoms: C_9  and  C_4 
REMARK    2  A    between atoms: N_6  and  C_8 
ROOT
ATOM      1  N   UNL d   1      33.139  20.187 -23.420  0.00  0.00    -0.211 NA
ATOM      2  C   UNL d   1      33.129  19.628 -24.027  0.00  0.00     0.140 A 
ATOM      3  C   UNL d   1      33.007  18.837 -23.846  0.00  0.00     0.051 A 
ATOM      4  C   UNL d   1      33.027  19.955 -22.638  0.00  0.00     0.183 A 
ATOM      5  C   UNL d   1      32.894  18.595 -23.063  0.00  0.00     0.104 A 
ATOM      6  O   UNL d   1      32.904  19.160 -22.450  0.00  0.00    -0.289 OA
ATOM      7  S   UNL d   1      33.240  19.862 -24.807  0.00  0.00    -0.057 SA
ATOM      8  C   UNL d   1      32.997  18.276 -24.450  0.00  0.00     0.004 A 
ATOM      9  C   UNL d   1      32.772  17.805 -22.881  0.00  0.00     0.025 A 
ATOM     10  C   UNL d   1      32.875  17.476 -24.276  0.00  0.00     0.000 A 
ATOM     11  C   UNL d   1      32.763  17.245 -23.493  0.00  0.00     0.002 A 
ENDROOT
BRANCH   4  12
ATOM     12  C   UNL d   1      33.038  20.523 -22.036  0.00  0.00     0.041 A 
ATOM     13  C   UNL d   1      32.863  21.311 -22.222  0.00  0.00     0.005 A 
ATOM     14  C   UNL d   1      32.874  21.876 -21.624  0.00  0.00     0.024 A 
ATOM     15  C   UNL d   1      33.057  21.664 -20.845  0.00  0.00     0.127 A 
ATOM     16  C   UNL d   1      33.232  20.869 -20.669  0.00  0.00     0.024 A 
ATOM     17  C   UNL d   1      33.221  20.303 -21.268  0.00  0.00     0.005 A 
BRANCH  15  18
ATOM     18  N   UNL d   1      33.066  22.236 -20.251  0.00  0.00    -0.114 N 
ATOM     19  O   UNL d   1      33.240  22.028 -19.474  0.00  0.00    -0.532 OA
ATOM     20  O   UNL d   1      32.900  23.026 -20.433  0.00  0.00    -0.532 OA
ENDBRANCH  15  18
ENDBRANCH   4  12
TORSDOF 2
ENDMDL
MODEL 3
REMARK VINA RESULT:      -2.6      3.334      5.202
REMARK  2 active torsions:
REMARK  status: ('A' for Active; 'I' for Inactive)
REMARK    1  A    between atoms: C_9  and  C_4 
REMARK    2  A    between atoms: N_6  and  C_8 
ROOT
ATOM      1  N   UNL d   1      32.685  20.271 -21.713  0.00  0.00    -0.211 NA
ATOM      2  C   UNL d   1      32.693  21.031 -21.394  0.00  0.00     0.140 A 
ATOM      3  C   UNL d   1      32.875  21.669 -21.876  0.00  0.00     0.051 A 
ATOM      4  C   UNL d   1      32.858  20.151 -22.509  0.00  0.00     0.183 A 
ATOM      5  C   UNL d   1      33.051  21.558 -22.678  0.00  0.00     0.104 A 
ATOM      6  O   UNL d   1      33.042  20.789 -22.999  0.00  0.00    -0.289 OA
ATOM      7  S   UNL d   1      32.520  21.149 -20.599  0.00  0.00    -0.057 SA
ATOM      8  C   UNL d   1      32.884  22.431 -21.561  0.00  0.00     0.004 A 
ATOM      9  C   UNL d   1      33.233  22.195 -23.160  0.00  0.00     0.025 A 
ATOM     10  C   UNL d   1      33.067  23.080 -22.040  0.00  0.00     0.000 A 
ATOM     11  C   UNL d   1      33.241  22.959 -22.836  0.00  0.00     0.002 A 
ENDROOT
BRANCH   4  12
ATOM     12  C   UNL d   1      32.847  19.383 -22.821  0.00  0.00     0.041 A 
ATOM     13  C   UNL d   1      33.237  18.777 -22.411  0.00  0.00     0.005 A 
ATOM     14  C   UNL d   1      33.227  18.014 -22.720  0.00  0.00     0.024 A 
ATOM     15  C   UNL d   1      32.834  17.851 -23.430  0.00  0.00     0.127 A 
ATOM     16  C   UNL d   1      32.445  18.467 -23.833  0.00  0.00     0.024 A 
ATOM     17  C   UNL d   1      32.455  19.231 -23.524  0.00  0.00     0.005 A 
BRANCH  15  18
ATOM     18  N   UNL d   1      32.828  17.083 -23.733  0.00  0.00    -0.114 N 
ATOM     19  O   UNL d   1      33.041  16.943 -24.516  0.00  0.00    -0.532 OA
ATOM     20  O   UNL d   1      32.608  16.448 -23.251  0.00  0.00    -0.532 OA
ENDBRANCH  15  18
ENDBRANCH   4  12
TORSDOF 2
ENDMDL
MODEL 4
REMARK VINA RESULT:      -1.9      3.380      5.330
REMARK  2 active torsions:
REMARK  status: ('A' for Active; 'I' for Inactive)
REMARK    1  A    between atoms: C_9  and  C_4 
REMARK    2  A    between atoms: N_6  and  C_8 
ROOT
ATOM      1  N   UNL d   1      32.911  20.766 -22.924  0.00  0.00    -0.211 NA
ATOM      2  C   UNL d   1      33.023  21.521 -22.609  0.00  0.00     0.140 A 
ATOM      3  C   UNL d   1      33.009  21.624 -21.795  0.00  0.00     0.051 A 
ATOM      4  C   UNL d   1      32.786  20.122 -22.428  0.00  0.00     0.183 A 
ATOM      5  C   UNL d   1      32.884  20.982 -21.288  0.00  0.00     0.104 A 
ATOM      6  O   UNL d   1      32.771  20.220 -21.608  0.00  0.00    -0.289 OA
ATOM      7  S   UNL d   1      33.147  22.163 -23.107  0.00  0.00    -0.057 SA
ATOM      8  C   UNL d   1      33.121  22.376 -21.477  0.00  0.00     0.004 A 
ATOM      9  C   UNL d   1      32.870  21.085 -20.475  0.00  0.00     0.025 A 
ATOM     10  C   UNL d   1      33.108  22.490 -20.657  0.00  0.00     0.000 A 
ATOM     11  C   UNL d   1      32.983  21.844 -20.162  0.00  0.00     0.002 A 
ENDROOT
BRANCH   4  12
ATOM     12  C   UNL d   1      32.674  19.368 -22.753  0.00  0.00     0.041 A 
ATOM     13  C   UNL d   1      32.988  18.710 -22.359  0.00  0.00     0.005 A 
ATOM     14  C   UNL d   1      32.877  17.960 -22.682  0.00  0.00     0.024 A 
ATOM     15  C   UNL d   1      32.459  17.862 -23.389  0.00  0.00     0.127 A 
ATOM     16  C   UNL d   1      32.149  18.530 -23.776  0.00  0.00     0.024 A 
ATOM     17  C   UNL d   1      32.259  19.281 -23.454  0.00  0.00     0.005 A 
BRANCH  15  18
ATOM     18  N   UNL d   1      32.353  17.108 -23.706  0.00  0.00    -0.114 N 
ATOM     19  O   UNL d   1      32.927  16.776 -24.194  0.00  0.00    -0.532 OA
ATOM     20  O   UNL d   1      31.667  16.678 -23.534  0.00  0.00    -0.532 OA
ENDBRANCH  15  18
ENDBRANCH   4  12
TORSDOF 2
ENDMDL
MODEL 5
REMARK VINA RESULT:      -1.7      1.196      1.844
REMARK  2 active torsions:
REMARK  status: ('A' for Active; 'I' for Inactive)
REMARK    1  A    between atoms: C_9  and  C_4 
REMARK    2  A    between atoms: N_6  and  C_8 
ROOT
ATOM      1  N   UNL d   1      32.989  22.441 -21.678  0.00  0.00    -0.211 NA
ATOM      2  C   UNL d   1      33.060  22.143 -22.444  0.00  0.00     0.140 A 
ATOM      3  C   UNL d   1      33.113  21.333 -22.558  0.00  0.00     0.051 A 
ATOM      4  C   UNL d   1      32.972  21.931 -21.032  0.00  0.00     0.183 A 
ATOM      5  C   UNL d   1      33.097  20.812 -21.915  0.00  0.00     0.104 A 
ATOM      6  O   UNL d   1      33.025  21.114 -21.141  0.00  0.00    -0.289 OA
ATOM      7  S   UNL d   1      33.077  22.655 -23.087  0.00  0.00    -0.057 SA
ATOM      8  C   UNL d   1      33.184  21.032 -23.322  0.00  0.00     0.004 A 
ATOM      9  C   UNL d   1      33.150  20.002 -22.029  0.00  0.00     0.025 A 
ATOM     10  C   UNL d   1      33.238  20.215 -23.447  0.00  0.00     0.000 A 
ATOM     11  C   UNL d   1      33.221  19.706 -22.800  0.00  0.00     0.002 A 
ENDROOT
BRANCH   4  12
ATOM     12  C   UNL d   1      32.901  22.239 -20.266  0.00  0.00     0.041 A 
ATOM     13  C   UNL d   1      33.190  21.798 -19.627  0.00  0.00     0.005 A 
ATOM     14  C   UNL d   1      33.119  22.104 -18.866  0.00  0.00     0.024 A 
ATOM     15  C   UNL d   1      32.766  22.841 -18.737  0.00  0.00     0.127 A 
ATOM     16  C   UNL d   1      32.479  23.275 -19.387  0.00  0.00     0.024 A 
ATOM     17  C   UNL d   1      32.549  22.970 -20.149  0.00  0.00     0.005 A 
BRANCH  15  18
ATOM     18  N   UNL d   1      32.699  23.140 -17.971  0.00  0.00    -0.114 N 
ATOM     19  O   UNL d   1      32.095  22.883 -17.474  0.00  0.00    -0.532 OA
ATOM     20  O   UNL d   1      33.241  23.702 -17.696  0.00  0.00    -0.532 OA
ENDBRANCH  15  18
ENDBRANCH   4  12
TORSDOF 2
ENDMDL
MODEL 6
REMARK VINA RESULT:      -1.5      7.142      8.308
REMARK  2 active torsions:
REMARK  status: ('A' for Active; 'I' for Inactive)
REMARK    1  A    between atoms: C_9  and  C_4 
REMARK    2  A    between atoms: N_6  and  C_8 
ROOT
ATOM      1  N   UNL d   1      30.472  17.265 -24.466  0.00  0.00    -0.211 NA
ATOM      2  C   UNL d   1      31.248  17.528 -24.561  0.00  0.00     0.140 A 
ATOM      3  C   UNL d   1      31.850  17.175 -24.130  0.00  0.00     0.051 A 
ATOM      4  C   UNL d   1      30.302  16.651 -23.944  0.00  0.00     0.183 A 
ATOM      5  C   UNL d   1      31.688  16.558 -23.603  0.00  0.00     0.104 A 
ATOM      6  O   UNL d   1      30.904  16.292 -23.508  0.00  0.00    -0.289 OA
ATOM      7  S   UNL d   1      31.416  18.141 -25.082  0.00  0.00    -0.057 SA
ATOM      8  C   UNL d   1      32.627  17.436 -24.222  0.00  0.00     0.004 A 
ATOM      9  C   UNL d   1      32.289  16.204 -23.173  0.00  0.00     0.025 A 
ATOM     10  C   UNL d   1      33.240  17.085 -23.792  0.00  0.00     0.000 A 
ATOM     11  C   UNL d   1      33.068  16.471 -23.270  0.00  0.00     0.002 A 
ENDROOT
BRANCH   4  12
ATOM     12  C   UNL d   1      29.519  16.393 -23.855  0.00  0.00     0.041 A 
ATOM     13  C   UNL d   1      29.274  15.710 -24.255  0.00  0.00     0.005 A 
ATOM     14  C   UNL d   1      28.497  15.453 -24.167  0.00  0.00     0.024 A 
ATOM     15  C   UNL d   1      27.965  15.867 -23.687  0.00  0.00     0.127 A 
ATOM     16  C   UNL d   1      28.223  16.552 -23.290  0.00  0.00     0.024 A 
ATOM     17  C   UNL d   1      29.001  16.810 -23.377  0.00  0.00     0.005 A 
BRANCH  15  18
ATOM     18  N   UNL d   1      27.188  15.603 -23.604  0.00  0.00    -0.114 N 
ATOM     19  O   UNL d   1      26.874  15.459 -22.857  0.00  0.00    -0.532 OA
ATOM     20  O   UNL d   1      26.718  15.480 -24.274  0.00  0.00    -0.532 OA
ENDBRANCH  15  18
ENDBRANCH   4  12
TORSDOF 2
ENDMDL
