MODEL 1
REMARK VINA RESULT:       4.1      0.000      0.000
REMARK  3 active torsions:
REMARK  status: ('A' for Active; 'I' for Inactive)
REMARK    1  A    between atoms: C_11  and  C_2 
REMARK    2  A    between atoms: C_12  and  C_3 
REMARK    3  A    between atoms: N_7  and  C_6 
ROOT
ATOM      1  C   UNL d   1      58.364   0.144  32.089  0.00  0.00     0.078 A 
ATOM      2  C   UNL d   1      58.694  -0.149  30.730  0.00  0.00     0.029 A 
ATOM      3  C   UNL d   1      59.473   0.094  30.873  0.00  0.00     0.102 A 
ATOM      4  C   UNL d   1      59.144   0.387  32.228  0.00  0.00     0.187 A 
ATOM      5  O   UNL d   1      59.690   0.359  31.617  0.00  0.00    -0.289 OA
ATOM      6  C   UNL d   1      57.807   0.171  32.706  0.00  0.00     0.153 A 
ATOM      7  N   UNL d   1      59.362   0.653  32.977  0.00  0.00    -0.200 NA
ATOM      8  N   UNL d   1      58.036   0.438  33.449  0.00  0.00    -0.206 NA
ATOM      9  C   UNL d   1      58.816   0.682  33.591  0.00  0.00     0.202 A 
ENDROOT
BRANCH   2  10
ATOM     10  C   UNL d   1      58.476  -0.415  29.981  0.00  0.00     0.002 A 
ATOM     11  C   UNL d   1      58.260   0.120  29.405  0.00  0.00     0.000 A 
ATOM     12  C   UNL d   1      58.042  -0.151  28.655  0.00  0.00     0.000 A 
ATOM     13  C   UNL d   1      58.042  -0.963  28.488  0.00  0.00     0.000 A 
ATOM     14  C   UNL d   1      58.261  -1.501  29.075  0.00  0.00     0.000 A 
ATOM     15  C   UNL d   1      58.480  -1.231  29.826  0.00  0.00     0.000 A 
ENDBRANCH   2  10
BRANCH   3  16
ATOM     16  C   UNL d   1      60.027   0.069  30.265  0.00  0.00     0.023 A 
ATOM     17  C   UNL d   1      60.527  -0.577  30.205  0.00  0.00     0.002 A 
ATOM     18  C   UNL d   1      61.081  -0.603  29.598  0.00  0.00     0.000 A 
ATOM     19  C   UNL d   1      61.126   0.020  29.058  0.00  0.00     0.000 A 
ATOM     20  C   UNL d   1      60.617   0.665  29.129  0.00  0.00     0.000 A 
ATOM     21  C   UNL d   1      60.072   0.682  29.734  0.00  0.00     0.002 A 
ENDBRANCH   3  16
BRANCH   6  22
ATOM     22  N   UNL d   1      57.031  -0.070  32.568  0.00  0.00    -0.285 N 
ATOM     23  C   UNL d   1      56.818  -0.860  32.647  0.00  0.00     0.108 A 
ATOM     24  C   UNL d   1      56.038  -1.102  32.509  0.00  0.00     0.142 A 
ATOM     25  O   UNL d   1      55.470  -0.555  32.290  0.00  0.00    -0.300 OA
ATOM     26  C   UNL d   1      55.686   0.250  32.209  0.00  0.00     0.142 A 
ATOM     27  C   UNL d   1      56.459   0.489  32.347  0.00  0.00     0.108 A 
ENDBRANCH   6  22
TORSDOF 3
ENDMDL
MODEL 2
REMARK VINA RESULT:       6.6      2.997      4.218
REMARK  3 active torsions:
REMARK  status: ('A' for Active; 'I' for Inactive)
REMARK    1  A    between atoms: C_11  and  C_2 
REMARK    2  A    between atoms: C_12  and  C_3 
REMARK    3  A    between atoms: N_7  and  C_6 
ROOT
ATOM      1  C   UNL d   1      59.779  -3.117  28.779  0.00  0.00     0.078 A 
ATOM      2  C   UNL d   1      59.495  -1.750  29.084  0.00  0.00     0.029 A 
ATOM      3  C   UNL d   1      60.309  -1.596  29.125  0.00  0.00     0.102 A 
ATOM      4  C   UNL d   1      60.592  -2.959  28.821  0.00  0.00     0.187 A 
ATOM      5  O   UNL d   1      60.847  -2.200  28.994  0.00  0.00    -0.289 OA
ATOM      6  C   UNL d   1      59.517  -3.885  28.604  0.00  0.00     0.153 A 
ATOM      7  N   UNL d   1      61.133  -3.566  28.689  0.00  0.00    -0.200 NA
ATOM      8  N   UNL d   1      60.066  -4.483  28.474  0.00  0.00    -0.206 NA
ATOM      9  C   UNL d   1      60.880  -4.329  28.515  0.00  0.00     0.202 A 
ENDROOT
BRANCH   2  10
ATOM     10  C   UNL d   1      58.954  -1.143  29.216  0.00  0.00     0.002 A 
ATOM     11  C   UNL d   1      58.685  -0.994  29.971  0.00  0.00     0.000 A 
ATOM     12  C   UNL d   1      58.141  -0.384  30.100  0.00  0.00     0.000 A 
ATOM     13  C   UNL d   1      57.870   0.075  29.465  0.00  0.00     0.000 A 
ATOM     14  C   UNL d   1      58.146  -0.080  28.702  0.00  0.00     0.000 A 
ATOM     15  C   UNL d   1      58.690  -0.690  28.572  0.00  0.00     0.000 A 
ENDBRANCH   2  10
BRANCH   3  16
ATOM     16  C   UNL d   1      60.573  -0.836  29.298  0.00  0.00     0.023 A 
ATOM     17  C   UNL d   1      60.718  -0.314  28.685  0.00  0.00     0.002 A 
ATOM     18  C   UNL d   1      60.982   0.446  28.857  0.00  0.00     0.000 A 
ATOM     19  C   UNL d   1      61.096   0.672  29.642  0.00  0.00     0.000 A 
ATOM     20  C   UNL d   1      60.947   0.136  30.251  0.00  0.00     0.000 A 
ATOM     21  C   UNL d   1      60.686  -0.614  30.071  0.00  0.00     0.002 A 
ENDBRANCH   3  16
BRANCH   6  22
ATOM     22  N   UNL d   1      58.708  -4.043  28.562  0.00  0.00    -0.285 N 
ATOM     23  C   UNL d   1      58.432  -4.816  28.571  0.00  0.00     0.108 A 
ATOM     24  C   UNL d   1      57.619  -4.974  28.529  0.00  0.00     0.142 A 
ATOM     25  O   UNL d   1      57.082  -4.358  28.478  0.00  0.00    -0.300 OA
ATOM     26  C   UNL d   1      57.363  -3.569  28.469  0.00  0.00     0.142 A 
ATOM     27  C   UNL d   1      58.169  -3.414  28.510  0.00  0.00     0.108 A 
ENDBRANCH   6  22
TORSDOF 3
ENDMDL
