MODEL 1
REMARK VINA RESULT:      14.7      0.000      0.000
REMARK  3 active torsions:
REMARK  status: ('A' for Active; 'I' for Inactive)
REMARK    1  A    between atoms: N_4  and  C_1 
REMARK    2  A    between atoms: C_5  and  C_3 
REMARK       I    between atoms: C_8  and  N_4 
REMARK    3  A    between atoms: C_9  and  C_8 
ROOT
ATOM      1  C   UNL d   1      45.906 -15.902  44.410  0.00  0.00     0.204 A 
ATOM      2  S   UNL d   1      46.225 -16.393  43.941  0.00  0.00    -0.031 SA
ATOM      3  C   UNL d   1      45.922 -17.210  44.132  0.00  0.00     0.119 A 
ATOM      4  N   UNL d   1      45.369 -16.314  44.955  0.00  0.00    -0.123 NA
ATOM      5  N   UNL d   1      45.395 -17.079  44.772  0.00  0.00    -0.143 NA
ENDROOT
BRANCH   3   6
ATOM      6  C   UNL d   1      46.119 -17.878  43.770  0.00  0.00     0.081 A 
ATOM      7  C   UNL d   1      46.186 -18.502  44.623  0.00  0.00     0.023 A 
ATOM      8  C   UNL d   1      46.391 -19.285  44.461  0.00  0.00     0.045 A 
ATOM      9  C   UNL d   1      46.523 -19.496  43.627  0.00  0.00    -0.022 A 
ATOM     10  C   UNL d   1      46.647 -19.955  43.494  0.00  0.00    -0.022 A 
ATOM     11  C   UNL d   1      46.478 -19.044  42.970  0.00  0.00    -0.008 A 
ATOM     12  C   UNL d   1      46.235 -18.038  42.973  0.00  0.00    -0.017 A 
ATOM     13  C   UNL d   1      46.603 -19.257  42.216  0.00  0.00    -0.001 A 
ATOM     14  C   UNL d   1      46.531 -19.287  43.027  0.00  0.00    -0.008 A 
ATOM     15  C   UNL d   1      46.326 -18.504  43.190  0.00  0.00    -0.017 A 
ENDBRANCH   3   6
BRANCH   1  16
ATOM     16  N   UNL d   1      45.969 -15.089  44.498  0.00  0.00    -0.248 N 
ATOM     17  C   UNL d   1      45.397 -14.553  44.244  0.00  0.00     0.289 C 
ATOM     18  O   UNL d   1      44.706 -14.849  43.872  0.00  0.00    -0.264 OA
ATOM     19  C   UNL d   1      46.614 -14.797  44.846  0.00  0.00     0.104 C 
BRANCH  17  20
ATOM     20  C   UNL d   1      45.494 -13.737  44.349  0.00  0.00     0.156 A 
ATOM     21  O   UNL d   1      45.868 -13.289  44.938  0.00  0.00    -0.300 OA
ATOM     22  C   UNL d   1      45.772 -12.467  44.723  0.00  0.00     0.123 A 
ATOM     23  C   UNL d   1      45.364 -12.422  44.046  0.00  0.00     0.029 A 
ATOM     24  C   UNL d   1      45.185 -13.184  43.801  0.00  0.00     0.032 A 
ENDBRANCH  17  20
ENDBRANCH   1  16
TORSDOF 3
ENDMDL
MODEL 2
REMARK VINA RESULT:      14.8      1.231      5.032
REMARK  3 active torsions:
REMARK  status: ('A' for Active; 'I' for Inactive)
REMARK    1  A    between atoms: N_4  and  C_1 
REMARK    2  A    between atoms: C_5  and  C_3 
REMARK       I    between atoms: C_8  and  N_4 
REMARK    3  A    between atoms: C_9  and  C_8 
ROOT
ATOM      1  C   UNL d   1      45.678 -16.376  44.382  0.00  0.00     0.204 A 
ATOM      2  S   UNL d   1      46.018 -15.711  44.314  0.00  0.00    -0.031 SA
ATOM      3  C   UNL d   1      45.422 -15.066  44.471  0.00  0.00     0.119 A 
ATOM      4  N   UNL d   1      44.841 -16.264  44.586  0.00  0.00    -0.123 NA
ATOM      5  N   UNL d   1      44.715 -15.489  44.632  0.00  0.00    -0.143 NA
ENDROOT
BRANCH   3   6
ATOM      6  C   UNL d   1      45.554 -14.294  44.455  0.00  0.00     0.081 A 
ATOM      7  C   UNL d   1      44.898 -14.041  43.662  0.00  0.00     0.023 A 
ATOM      8  C   UNL d   1      44.881 -13.237  43.473  0.00  0.00     0.045 A 
ATOM      9  C   UNL d   1      45.393 -12.709  43.937  0.00  0.00    -0.022 A 
ATOM     10  C   UNL d   1      45.408 -12.224  43.851  0.00  0.00    -0.022 A 
ATOM     11  C   UNL d   1      45.895 -12.877  44.536  0.00  0.00    -0.008 A 
ATOM     12  C   UNL d   1      46.051 -13.828  44.914  0.00  0.00    -0.017 A 
ATOM     13  C   UNL d   1      46.354 -12.378  44.948  0.00  0.00    -0.001 A 
ATOM     14  C   UNL d   1      45.819 -12.670  44.407  0.00  0.00    -0.008 A 
ATOM     15  C   UNL d   1      45.835 -13.473  44.597  0.00  0.00    -0.017 A 
ENDBRANCH   3   6
BRANCH   1  16
ATOM     16  N   UNL d   1      45.940 -17.150  44.304  0.00  0.00    -0.248 N 
ATOM     17  C   UNL d   1      45.921 -17.572  43.596  0.00  0.00     0.289 C 
ATOM     18  O   UNL d   1      45.618 -17.194  42.910  0.00  0.00    -0.264 OA
ATOM     19  C   UNL d   1      46.227 -17.516  44.940  0.00  0.00     0.104 C 
BRANCH  17  20
ATOM     20  C   UNL d   1      46.194 -18.353  43.553  0.00  0.00     0.156 A 
ATOM     21  O   UNL d   1      46.417 -18.901  44.134  0.00  0.00    -0.300 OA
ATOM     22  C   UNL d   1      46.647 -19.616  43.725  0.00  0.00     0.123 A 
ATOM     23  C   UNL d   1      46.567 -19.506  42.945  0.00  0.00     0.029 A 
ATOM     24  C   UNL d   1      46.292 -18.743  42.819  0.00  0.00     0.032 A 
ENDBRANCH  17  20
ENDBRANCH   1  16
TORSDOF 3
ENDMDL
