MODEL 1
REMARK VINA RESULT:      -2.7      0.000      0.000
REMARK  4 active torsions:
REMARK  status: ('A' for Active; 'I' for Inactive)
REMARK    1  A    between atoms: N_2  and  S_1 
REMARK    2  A    between atoms: C_4  and  S_1 
REMARK    3  A    between atoms: C_3  and  C_8 
REMARK       I    between atoms: N_5  and  C_3 
REMARK    4  A    between atoms: C_17  and  N_5 
ROOT
ATOM      1  C   UNL d   1      32.617  18.333 -23.242  0.00  0.00     0.104 A 
ATOM      2  C   UNL d   1      32.778  19.783 -22.490  0.00  0.00     0.058 A 
ATOM      3  C   UNL d   1      33.161  18.424 -22.627  0.00  0.00     0.013 A 
ATOM      4  C   UNL d   1      32.145  18.983 -23.483  0.00  0.00     0.013 A 
ATOM      5  C   UNL d   1      33.241  19.147 -22.252  0.00  0.00     0.005 A 
ATOM      6  C   UNL d   1      32.230  19.707 -23.103  0.00  0.00     0.005 A 
ENDROOT
BRANCH   2   7
ATOM      7  C   UNL d   1      32.851  20.528 -22.113  0.00  0.00     0.279 C 
ATOM      8  N   UNL d   1      32.547  20.648 -21.358  0.00  0.00    -0.208 NA
ATOM      9  O   UNL d   1      33.241  21.138 -22.531  0.00  0.00    -0.265 OA
BRANCH   8  10
ATOM     10  C   UNL d   1      32.621  21.392 -20.985  0.00  0.00     0.085 A 
ATOM     11  C   UNL d   1      32.155  22.032 -21.249  0.00  0.00     0.020 A 
ATOM     12  C   UNL d   1      32.220  22.764 -20.889  0.00  0.00     0.013 A 
ATOM     13  C   UNL d   1      32.748  22.870 -20.263  0.00  0.00     0.058 A 
ATOM     14  C   UNL d   1      33.214  22.230 -20.000  0.00  0.00     0.013 A 
ATOM     15 CL   UNL d   1      32.810  23.629 -19.897  0.00  0.00    -0.082 Cl
ATOM     16  C   UNL d   1      33.145  21.493 -20.366  0.00  0.00     0.020 A 
ENDBRANCH   8  10
ENDBRANCH   2   7
BRANCH   1  17
ATOM     17  S   UNL d   1      32.520  17.602 -23.638  0.00  0.00     0.272 S 
ATOM     18  O   UNL d   1      32.466  17.184 -22.914  0.00  0.00    -0.200 OA
ATOM     19  O   UNL d   1      32.573  18.019 -24.383  0.00  0.00    -0.200 OA
BRANCH  17  20
ATOM     20  N   UNL d   1      32.425  16.887 -24.065  0.00  0.00    -0.225 N 
ATOM     21  C   UNL d   1      31.711  16.480 -24.046  0.00  0.00     0.118 A 
ATOM     22  C   UNL d   1      31.629  15.783 -24.467  0.00  0.00     0.142 A 
ATOM     23  O   UNL d   1      32.280  15.480 -24.923  0.00  0.00    -0.300 OA
ATOM     24  C   UNL d   1      32.995  15.883 -24.946  0.00  0.00     0.142 A 
ATOM     25  C   UNL d   1      33.076  16.584 -24.522  0.00  0.00     0.118 A 
ENDBRANCH  17  20
ENDBRANCH   1  17
TORSDOF 4
ENDMDL
MODEL 2
REMARK VINA RESULT:      -2.7      2.494      5.817
REMARK  4 active torsions:
REMARK  status: ('A' for Active; 'I' for Inactive)
REMARK    1  A    between atoms: N_2  and  S_1 
REMARK    2  A    between atoms: C_4  and  S_1 
REMARK    3  A    between atoms: C_3  and  C_8 
REMARK       I    between atoms: N_5  and  C_3 
REMARK    4  A    between atoms: C_17  and  N_5 
ROOT
ATOM      1  C   UNL d   1      32.780  21.068 -21.463  0.00  0.00     0.104 A 
ATOM      2  C   UNL d   1      32.841  19.774 -22.470  0.00  0.00     0.058 A 
ATOM      3  C   UNL d   1      33.211  20.397 -21.251  0.00  0.00     0.013 A 
ATOM      4  C   UNL d   1      32.372  21.090 -22.196  0.00  0.00     0.013 A 
ATOM      5  C   UNL d   1      33.241  19.752 -21.753  0.00  0.00     0.005 A 
ATOM      6  C   UNL d   1      32.406  20.439 -22.696  0.00  0.00     0.005 A 
ENDROOT
BRANCH   2   7
ATOM      7  C   UNL d   1      32.865  19.118 -22.992  0.00  0.00     0.279 C 
ATOM      8  N   UNL d   1      32.527  18.400 -22.779  0.00  0.00    -0.208 NA
ATOM      9  O   UNL d   1      33.241  19.224 -23.731  0.00  0.00    -0.265 OA
BRANCH   8  10
ATOM     10  C   UNL d   1      32.552  17.748 -23.301  0.00  0.00     0.085 A 
ATOM     11  C   UNL d   1      31.964  17.670 -23.889  0.00  0.00     0.020 A 
ATOM     12  C   UNL d   1      31.980  17.035 -24.404  0.00  0.00     0.013 A 
ATOM     13  C   UNL d   1      32.579  16.470 -24.343  0.00  0.00     0.058 A 
ATOM     14  C   UNL d   1      33.166  16.548 -23.756  0.00  0.00     0.013 A 
ATOM     15 CL   UNL d   1      32.588  15.816 -24.880  0.00  0.00    -0.082 Cl
ATOM     16  C   UNL d   1      33.147  17.190 -23.237  0.00  0.00     0.020 A 
ENDBRANCH   8  10
ENDBRANCH   2   7
BRANCH   1  17
ATOM     17  S   UNL d   1      32.736  21.739 -20.964  0.00  0.00     0.272 S 
ATOM     18  O   UNL d   1      33.026  22.242 -21.568  0.00  0.00    -0.200 OA
ATOM     19  O   UNL d   1      32.440  21.235 -20.340  0.00  0.00    -0.200 OA
BRANCH  17  20
ATOM     20  N   UNL d   1      32.681  22.391 -20.439  0.00  0.00    -0.225 N 
ATOM     21  C   UNL d   1      33.130  22.414 -19.752  0.00  0.00     0.118 A 
ATOM     22  C   UNL d   1      33.068  23.054 -19.246  0.00  0.00     0.142 A 
ATOM     23  O   UNL d   1      32.539  23.695 -19.431  0.00  0.00    -0.300 OA
ATOM     24  C   UNL d   1      32.088  23.677 -20.117  0.00  0.00     0.142 A 
ATOM     25  C   UNL d   1      32.152  23.031 -20.624  0.00  0.00     0.118 A 
ENDBRANCH  17  20
ENDBRANCH   1  17
TORSDOF 4
ENDMDL
MODEL 3
REMARK VINA RESULT:      -0.3      2.977      6.269
REMARK  4 active torsions:
REMARK  status: ('A' for Active; 'I' for Inactive)
REMARK    1  A    between atoms: N_2  and  S_1 
REMARK    2  A    between atoms: C_4  and  S_1 
REMARK    3  A    between atoms: C_3  and  C_8 
REMARK       I    between atoms: N_5  and  C_3 
REMARK    4  A    between atoms: C_17  and  N_5 
ROOT
ATOM      1  C   UNL d   1      32.787  22.131 -19.908  0.00  0.00     0.104 A 
ATOM      2  C   UNL d   1      32.943  21.354 -21.345  0.00  0.00     0.058 A 
ATOM      3  C   UNL d   1      33.071  21.356 -19.932  0.00  0.00     0.013 A 
ATOM      4  C   UNL d   1      32.577  22.523 -20.620  0.00  0.00     0.013 A 
ATOM      5  C   UNL d   1      33.149  20.969 -20.649  0.00  0.00     0.005 A 
ATOM      6  C   UNL d   1      32.657  22.129 -21.336  0.00  0.00     0.005 A 
ENDROOT
BRANCH   2   7
ATOM      7  C   UNL d   1      33.019  20.967 -22.085  0.00  0.00     0.279 C 
ATOM      8  N   UNL d   1      32.941  20.150 -22.141  0.00  0.00    -0.208 NA
ATOM      9  O   UNL d   1      33.174  21.439 -22.756  0.00  0.00    -0.265 OA
BRANCH   8  10
ATOM     10  C   UNL d   1      33.016  19.766 -22.879  0.00  0.00     0.085 A 
ATOM     11  C   UNL d   1      32.937  18.936 -22.920  0.00  0.00     0.020 A 
ATOM     12  C   UNL d   1      33.009  18.552 -23.638  0.00  0.00     0.013 A 
ATOM     13  C   UNL d   1      33.161  18.985 -24.325  0.00  0.00     0.058 A 
ATOM     14  C   UNL d   1      33.241  19.815 -24.283  0.00  0.00     0.013 A 
ATOM     15 CL   UNL d   1      33.235  18.581 -25.064  0.00  0.00    -0.082 Cl
ATOM     16  C   UNL d   1      33.167  20.199 -23.556  0.00  0.00     0.020 A 
ENDBRANCH   8  10
ENDBRANCH   2   7
BRANCH   1  17
ATOM     17  S   UNL d   1      32.700  22.545 -19.186  0.00  0.00     0.272 S 
ATOM     18  O   UNL d   1      32.559  23.268 -19.585  0.00  0.00    -0.200 OA
ATOM     19  O   UNL d   1      32.842  21.813 -18.768  0.00  0.00    -0.200 OA
BRANCH  17  20
ATOM     20  N   UNL d   1      32.618  22.931 -18.445  0.00  0.00    -0.225 N 
ATOM     21  C   UNL d   1      33.241  22.944 -17.910  0.00  0.00     0.118 A 
ATOM     22  C   UNL d   1      33.150  23.323 -17.190  0.00  0.00     0.142 A 
ATOM     23  O   UNL d   1      32.414  23.702 -16.996  0.00  0.00    -0.300 OA
ATOM     24  C   UNL d   1      31.789  23.692 -17.528  0.00  0.00     0.142 A 
ATOM     25  C   UNL d   1      31.881  23.310 -18.252  0.00  0.00     0.118 A 
ENDBRANCH  17  20
ENDBRANCH   1  17
TORSDOF 4
ENDMDL
