MODEL 1
REMARK VINA RESULT:      -1.8      0.000      0.000
REMARK  6 active torsions:
REMARK  status: ('A' for Active; 'I' for Inactive)
REMARK    1  A    between atoms: N_8  and  S_1 
REMARK    2  A    between atoms: C_10  and  S_1 
REMARK    3  A    between atoms: C_2  and  N_6 
REMARK       I    between atoms: N_6  and  C_9 
REMARK    4  A    between atoms: C_9  and  C_15 
REMARK    5  A    between atoms: O_26  and  C_13 
REMARK    6  A    between atoms: O_27  and  C_14 
ROOT
ATOM      1  N   UNL d   1      31.827  15.469 -24.895  0.00  0.00    -0.183 NA
ATOM      2  C   UNL d   1      32.574  15.804 -24.759  0.00  0.00     0.281 C 
ATOM      3  O   UNL d   1      33.240  15.454 -25.094  0.00  0.00    -0.265 OA
ENDROOT
BRANCH   2   4
ATOM      4  C   UNL d   1      32.632  16.468 -24.299  0.00  0.00     0.058 A 
ATOM      5  C   UNL d   1      32.702  16.412 -23.484  0.00  0.00     0.005 A 
ATOM      6  C   UNL d   1      32.760  17.088 -23.018  0.00  0.00     0.013 A 
ATOM      7  C   UNL d   1      32.749  17.835 -23.375  0.00  0.00     0.104 A 
ATOM      8  C   UNL d   1      32.679  17.899 -24.197  0.00  0.00     0.013 A 
ATOM      9  C   UNL d   1      32.620  17.216 -24.657  0.00  0.00     0.005 A 
BRANCH   7  10
ATOM     10  S   UNL d   1      32.807  18.515 -22.909  0.00  0.00     0.272 S 
ATOM     11  O   UNL d   1      32.429  18.951 -23.505  0.00  0.00    -0.200 OA
ATOM     12  O   UNL d   1      33.183  18.077 -22.322  0.00  0.00    -0.200 OA
BRANCH  10  13
ATOM     13  N   UNL d   1      32.867  19.191 -22.443  0.00  0.00    -0.225 N 
ATOM     14  C   UNL d   1      33.159  19.140 -21.680  0.00  0.00     0.118 A 
ATOM     15  C   UNL d   1      33.215  19.823 -21.220  0.00  0.00     0.142 A 
ATOM     16  O   UNL d   1      32.982  20.543 -21.525  0.00  0.00    -0.300 OA
ATOM     17  C   UNL d   1      32.689  20.592 -22.292  0.00  0.00     0.142 A 
ATOM     18  C   UNL d   1      32.631  19.920 -22.750  0.00  0.00     0.118 A 
ENDBRANCH  10  13
ENDBRANCH   7  10
ENDBRANCH   2   4
BRANCH   1  19
ATOM     19  C   UNL d   1      31.145  15.816 -24.560  0.00  0.00     0.197 A 
ATOM     20  N   UNL d   1      30.715  16.446 -24.874  0.00  0.00    -0.218 NA
ATOM     21  C   UNL d   1      30.091  16.605 -24.364  0.00  0.00     0.114 A 
ATOM     22  C   UNL d   1      29.486  17.161 -24.383  0.00  0.00     0.112 A 
ATOM     23  C   UNL d   1      30.137  16.073 -23.736  0.00  0.00     0.074 A 
ATOM     24  C   UNL d   1      28.924  17.191 -23.780  0.00  0.00     0.028 A 
ATOM     25  C   UNL d   1      28.976  16.651 -23.149  0.00  0.00     0.027 A 
ATOM     26  C   UNL d   1      29.578  16.096 -23.127  0.00  0.00     0.102 A 
ATOM     27  S   UNL d   1      30.795  15.586 -23.866  0.00  0.00    -0.045 SA
BRANCH  22  28
ATOM     28  O   UNL d   1      29.432  17.704 -25.017  0.00  0.00    -0.327 OA
ATOM     29  C   UNL d   1      28.984  18.392 -24.934  0.00  0.00     0.181 C 
ENDBRANCH  22  28
BRANCH  26  30
ATOM     30  O   UNL d   1      29.631  15.554 -22.494  0.00  0.00    -0.328 OA
ATOM     31  C   UNL d   1      29.055  15.552 -21.906  0.00  0.00     0.181 C 
ENDBRANCH  26  30
ENDBRANCH   1  19
TORSDOF 6
ENDMDL
