MODEL 1
REMARK VINA RESULT:      47.2      0.000      0.000
REMARK  6 active torsions:
REMARK  status: ('A' for Active; 'I' for Inactive)
REMARK    1  A    between atoms: S_6  and  C_1 
REMARK    2  A    between atoms: C_13  and  S_6 
REMARK    3  A    between atoms: C_7  and  O_9 
REMARK    4  A    between atoms: O_9  and  C_14 
REMARK    5  A    between atoms: C_10  and  C_13 
REMARK    6  A    between atoms: C_14  and  C_10 
ROOT
ATOM      1  C   UNL d   1      60.402  49.402  50.322  0.00  0.00     0.040 C 
ENDROOT
BRANCH   1   2
ATOM      2  C   UNL d   1      59.674  49.401  50.707  0.00  0.00     0.034 C 
BRANCH   2   3
ATOM      3  C   UNL d   1      59.008  49.707  50.326  0.00  0.00     0.123 C 
BRANCH   3   4
ATOM      4  O   UNL d   1      58.272  49.627  50.686  0.00  0.00    -0.305 OA
BRANCH   4   5
ATOM      5  C   UNL d   1      57.595  49.561  50.226  0.00  0.00     0.100 A 
ATOM      6  C   UNL d   1      56.880  49.350  50.575  0.00  0.00     0.023 A 
ATOM      7  C   UNL d   1      56.835  49.204  51.386  0.00  0.00     0.002 C 
ATOM      8  C   UNL d   1      56.196  49.284  50.105  0.00  0.00     0.002 A 
ATOM      9  C   UNL d   1      56.237  49.429  49.295  0.00  0.00     0.000 A 
ATOM     10  C   UNL d   1      56.963  49.642  48.950  0.00  0.00     0.002 A 
ATOM     11  C   UNL d   1      57.643  49.708  49.413  0.00  0.00     0.025 A 
ENDBRANCH   4   5
ENDBRANCH   3   4
ENDBRANCH   2   3
ENDBRANCH   1   2
BRANCH   1  12
ATOM     12  S   UNL d   1      61.035  48.993  50.654  0.00  0.00    -0.048 SA
BRANCH  12  13
ATOM     13  C   UNL d   1      61.063  48.171  50.620  0.00  0.00     0.194 A 
ATOM     14  N   UNL d   1      61.484  47.713  50.072  0.00  0.00    -0.220 NA
ATOM     15  C   UNL d   1      61.349  46.914  50.251  0.00  0.00     0.101 A 
ATOM     16  C   UNL d   1      61.623  46.223  49.894  0.00  0.00     0.021 A 
ATOM     17  C   UNL d   1      60.845  46.869  50.910  0.00  0.00     0.101 A 
ATOM     18  C   UNL d   1      61.398  45.491  50.192  0.00  0.00     0.002 A 
ATOM     19  C   UNL d   1      60.898  45.447  50.845  0.00  0.00     0.002 A 
ATOM     20  C   UNL d   1      60.625  46.134  51.200  0.00  0.00     0.021 A 
ATOM     21  N   UNL d   1      60.666  47.654  51.141  0.00  0.00    -0.220 NA
ENDBRANCH  12  13
ENDBRANCH   1  12
TORSDOF 6
ENDMDL
