MODEL 1
REMARK VINA RESULT:      -6.0      0.000      0.000
REMARK  3 active torsions:
REMARK  status: ('A' for Active; 'I' for Inactive)
REMARK    1  A    between atoms: N_8  and  C_1 
REMARK    2  A    between atoms: N_7  and  C_2 
REMARK    3  A    between atoms: C_11  and  N_8 
ROOT
ATOM      1  C   UNL d   1     -48.281  12.837  22.544  0.00  0.00     0.139 A 
ATOM      2  C   UNL d   1     -47.785  13.465  22.728  0.00  0.00     0.124 A 
ATOM      3  C   UNL d   1     -47.032  13.339  23.068  0.00  0.00     0.213 A 
ATOM      4  C   UNL d   1     -48.039  12.061  22.695  0.00  0.00     0.215 A 
ATOM      5  C   UNL d   1     -46.807  12.552  23.212  0.00  0.00     0.044 A 
ATOM      6  C   UNL d   1     -47.303  11.924  23.029  0.00  0.00     0.044 A 
ATOM      7  O   UNL d   1     -46.531  13.973  23.253  0.00  0.00    -0.285 OA
ATOM      8  O   UNL d   1     -48.540  11.427  22.510  0.00  0.00    -0.285 OA
ATOM      9  C   UNL d   1     -46.053  12.425  23.552  0.00  0.00     0.003 A 
ATOM     10  C   UNL d   1     -47.061  11.148  23.180  0.00  0.00     0.003 A 
ATOM     11  C   UNL d   1     -45.826  11.637  23.698  0.00  0.00     0.000 A 
ATOM     12  C   UNL d   1     -46.322  11.008  23.514  0.00  0.00     0.000 A 
ENDROOT
BRANCH   1  13
ATOM     13  N   UNL d   1     -49.036  12.992  22.202  0.00  0.00    -0.241 NA
BRANCH  13  14
ATOM     14  C   UNL d   1     -49.718  12.695  22.568  0.00  0.00     0.082 A 
ATOM     15  C   UNL d   1     -50.209  12.172  22.161  0.00  0.00     0.019 A 
ATOM     16  C   UNL d   1     -50.887  11.876  22.526  0.00  0.00     0.002 A 
ATOM     17  C   UNL d   1     -51.064  12.107  23.292  0.00  0.00     0.000 A 
ATOM     18  C   UNL d   1     -50.582  12.623  23.698  0.00  0.00     0.002 A 
ATOM     19  C   UNL d   1     -49.904  12.919  23.333  0.00  0.00     0.019 A 
ENDBRANCH  13  14
ENDBRANCH   1  13
BRANCH   2  20
ATOM     20  N   UNL d   1     -48.015  14.257  22.581  0.00  0.00    -0.300 N 
ATOM     21  C   UNL d   1     -48.434  14.694  23.147  0.00  0.00     0.080 A 
ATOM     22  C   UNL d   1     -48.652  15.469  22.986  0.00  0.00     0.019 A 
ATOM     23  C   UNL d   1     -48.456  15.827  22.254  0.00  0.00     0.003 A 
ATOM     24  C   UNL d   1     -48.037  15.389  21.688  0.00  0.00     0.019 A 
ATOM     25  C   UNL d   1     -47.807  14.586  21.845  0.00  0.00     0.080 A 
ENDBRANCH   2  20
TORSDOF 3
ENDMDL
MODEL 2
REMARK VINA RESULT:      -5.0      7.908      9.647
REMARK  3 active torsions:
REMARK  status: ('A' for Active; 'I' for Inactive)
REMARK    1  A    between atoms: N_8  and  C_1 
REMARK    2  A    between atoms: N_7  and  C_2 
REMARK    3  A    between atoms: C_11  and  N_8 
ROOT
ATOM      1  C   UNL d   1     -39.369  14.664  20.165  0.00  0.00     0.139 A 
ATOM      2  C   UNL d   1     -40.121  14.597  19.840  0.00  0.00     0.124 A 
ATOM      3  C   UNL d   1     -40.236  14.281  19.075  0.00  0.00     0.213 A 
ATOM      4  C   UNL d   1     -38.709  14.416  19.735  0.00  0.00     0.215 A 
ATOM      5  C   UNL d   1     -39.560  14.037  18.659  0.00  0.00     0.044 A 
ATOM      6  C   UNL d   1     -38.809  14.103  18.983  0.00  0.00     0.044 A 
ATOM      7  O   UNL d   1     -40.994  14.213  18.747  0.00  0.00    -0.285 OA
ATOM      8  O   UNL d   1     -37.951  14.483  20.063  0.00  0.00    -0.285 OA
ATOM      9  C   UNL d   1     -39.675  13.719  17.893  0.00  0.00     0.003 A 
ATOM     10  C   UNL d   1     -38.148  13.854  18.553  0.00  0.00     0.003 A 
ATOM     11  C   UNL d   1     -38.998  13.474  17.474  0.00  0.00     0.000 A 
ATOM     12  C   UNL d   1     -38.247  13.541  17.799  0.00  0.00     0.000 A 
ENDROOT
BRANCH   1  13
ATOM     13  N   UNL d   1     -39.280  14.987  20.939  0.00  0.00    -0.241 NA
BRANCH  13  14
ATOM     14  C   UNL d   1     -38.884  14.548  21.520  0.00  0.00     0.082 A 
ATOM     15  C   UNL d   1     -38.405  14.932  22.070  0.00  0.00     0.019 A 
ATOM     16  C   UNL d   1     -38.011  14.495  22.648  0.00  0.00     0.002 A 
ATOM     17  C   UNL d   1     -38.102  13.680  22.668  0.00  0.00     0.000 A 
ATOM     18  C   UNL d   1     -38.574  13.297  22.127  0.00  0.00     0.002 A 
ATOM     19  C   UNL d   1     -38.968  13.734  21.549  0.00  0.00     0.019 A 
ENDBRANCH  13  14
ENDBRANCH   1  13
BRANCH   2  20
ATOM     20  N   UNL d   1     -40.800  14.845  20.263  0.00  0.00    -0.300 N 
ATOM     21  C   UNL d   1     -41.308  14.295  20.618  0.00  0.00     0.080 A 
ATOM     22  C   UNL d   1     -41.970  14.554  21.029  0.00  0.00     0.019 A 
ATOM     23  C   UNL d   1     -42.140  15.372  21.096  0.00  0.00     0.003 A 
ATOM     24  C   UNL d   1     -41.631  15.922  20.741  0.00  0.00     0.019 A 
ATOM     25  C   UNL d   1     -40.943  15.664  20.313  0.00  0.00     0.080 A 
ENDBRANCH   2  20
TORSDOF 3
ENDMDL
MODEL 3
REMARK VINA RESULT:      -5.0      1.500      3.100
REMARK  3 active torsions:
REMARK  status: ('A' for Active; 'I' for Inactive)
REMARK    1  A    between atoms: N_8  and  C_1 
REMARK    2  A    between atoms: N_7  and  C_2 
REMARK    3  A    between atoms: C_11  and  N_8 
ROOT
ATOM      1  C   UNL d   1     -48.466  13.544  23.224  0.00  0.00     0.139 A 
ATOM      2  C   UNL d   1     -47.975  14.108  22.884  0.00  0.00     0.124 A 
ATOM      3  C   UNL d   1     -48.265  14.861  22.665  0.00  0.00     0.213 A 
ATOM      4  C   UNL d   1     -49.264  13.715  23.355  0.00  0.00     0.215 A 
ATOM      5  C   UNL d   1     -49.069  15.014  22.805  0.00  0.00     0.044 A 
ATOM      6  C   UNL d   1     -49.560  14.450  23.145  0.00  0.00     0.044 A 
ATOM      7  O   UNL d   1     -47.769  15.430  22.322  0.00  0.00    -0.285 OA
ATOM      8  O   UNL d   1     -49.759  13.146  23.698  0.00  0.00    -0.285 OA
ATOM      9  C   UNL d   1     -49.361  15.767  22.586  0.00  0.00     0.003 A 
ATOM     10  C   UNL d   1     -50.359  14.622  23.276  0.00  0.00     0.003 A 
ATOM     11  C   UNL d   1     -50.167  15.922  22.726  0.00  0.00     0.000 A 
ATOM     12  C   UNL d   1     -50.658  15.358  23.065  0.00  0.00     0.000 A 
ENDROOT
BRANCH   1  13
ATOM     13  N   UNL d   1     -48.148  12.792  23.436  0.00  0.00    -0.241 NA
BRANCH  13  14
ATOM     14  C   UNL d   1     -48.497  12.103  23.134  0.00  0.00     0.082 A 
ATOM     15  C   UNL d   1     -48.652  11.467  23.636  0.00  0.00     0.019 A 
ATOM     16  C   UNL d   1     -49.000  10.782  23.336  0.00  0.00     0.002 A 
ATOM     17  C   UNL d   1     -49.187  10.742  22.539  0.00  0.00     0.000 A 
ATOM     18  C   UNL d   1     -49.036  11.367  22.040  0.00  0.00     0.002 A 
ATOM     19  C   UNL d   1     -48.689  12.053  22.340  0.00  0.00     0.019 A 
ENDBRANCH  13  14
ENDBRANCH   1  13
BRANCH   2  20
ATOM     20  N   UNL d   1     -47.165  13.950  22.744  0.00  0.00    -0.300 N 
ATOM     21  C   UNL d   1     -46.886  13.775  21.983  0.00  0.00     0.080 A 
ATOM     22  C   UNL d   1     -46.088  13.623  21.864  0.00  0.00     0.019 A 
ATOM     23  C   UNL d   1     -45.548  13.641  22.504  0.00  0.00     0.003 A 
ATOM     24  C   UNL d   1     -45.827  13.816  23.265  0.00  0.00     0.019 A 
ATOM     25  C   UNL d   1     -46.651  13.975  23.400  0.00  0.00     0.080 A 
ENDBRANCH   2  20
TORSDOF 3
ENDMDL
MODEL 4
REMARK VINA RESULT:      -4.7      9.161     10.344
REMARK  3 active torsions:
REMARK  status: ('A' for Active; 'I' for Inactive)
REMARK    1  A    between atoms: N_8  and  C_1 
REMARK    2  A    between atoms: N_7  and  C_2 
REMARK    3  A    between atoms: C_11  and  N_8 
ROOT
ATOM      1  C   UNL d   1     -39.091  14.871  18.500  0.00  0.00     0.139 A 
ATOM      2  C   UNL d   1     -39.826  15.235  18.482  0.00  0.00     0.124 A 
ATOM      3  C   UNL d   1     -40.180  15.535  19.178  0.00  0.00     0.213 A 
ATOM      4  C   UNL d   1     -38.684  14.795  19.216  0.00  0.00     0.215 A 
ATOM      5  C   UNL d   1     -39.756  15.449  19.887  0.00  0.00     0.044 A 
ATOM      6  C   UNL d   1     -39.020  15.086  19.905  0.00  0.00     0.044 A 
ATOM      7  O   UNL d   1     -40.923  15.902  19.159  0.00  0.00    -0.285 OA
ATOM      8  O   UNL d   1     -37.941  14.428  19.235  0.00  0.00    -0.285 OA
ATOM      9  C   UNL d   1     -40.110  15.750  20.584  0.00  0.00     0.003 A 
ATOM     10  C   UNL d   1     -38.614  15.010  20.622  0.00  0.00     0.003 A 
ATOM     11  C   UNL d   1     -39.685  15.665  21.295  0.00  0.00     0.000 A 
ATOM     12  C   UNL d   1     -38.950  15.301  21.314  0.00  0.00     0.000 A 
ENDROOT
BRANCH   1  13
ATOM     13  N   UNL d   1     -38.756  14.576  17.784  0.00  0.00    -0.241 NA
BRANCH  13  14
ATOM     14  C   UNL d   1     -38.592  13.767  17.715  0.00  0.00     0.082 A 
ATOM     15  C   UNL d   1     -38.104  13.497  17.107  0.00  0.00     0.019 A 
ATOM     16  C   UNL d   1     -37.940  12.691  17.038  0.00  0.00     0.002 A 
ATOM     17  C   UNL d   1     -38.267  12.167  17.577  0.00  0.00     0.000 A 
ATOM     18  C   UNL d   1     -38.750  12.429  18.179  0.00  0.00     0.002 A 
ATOM     19  C   UNL d   1     -38.913  13.235  18.248  0.00  0.00     0.019 A 
ENDBRANCH  13  14
ENDBRANCH   1  13
BRANCH   2  20
ATOM     20  N   UNL d   1     -40.251  15.319  17.765  0.00  0.00    -0.300 N 
ATOM     21  C   UNL d   1     -40.958  14.907  17.634  0.00  0.00     0.080 A 
ATOM     22  C   UNL d   1     -41.362  15.001  16.925  0.00  0.00     0.019 A 
ATOM     23  C   UNL d   1     -41.067  15.510  16.328  0.00  0.00     0.003 A 
ATOM     24  C   UNL d   1     -40.359  15.922  16.459  0.00  0.00     0.019 A 
ATOM     25  C   UNL d   1     -39.934  15.831  17.190  0.00  0.00     0.080 A 
ENDBRANCH   2  20
TORSDOF 3
ENDMDL
MODEL 5
REMARK VINA RESULT:      -3.1      7.533      8.920
REMARK  3 active torsions:
REMARK  status: ('A' for Active; 'I' for Inactive)
REMARK    1  A    between atoms: N_8  and  C_1 
REMARK    2  A    between atoms: N_7  and  C_2 
REMARK    3  A    between atoms: C_11  and  N_8 
ROOT
ATOM      1  C   UNL d   1     -40.005  14.436  20.430  0.00  0.00     0.139 A 
ATOM      2  C   UNL d   1     -39.624  14.922  19.889  0.00  0.00     0.124 A 
ATOM      3  C   UNL d   1     -39.000  15.427  20.123  0.00  0.00     0.213 A 
ATOM      4  C   UNL d   1     -39.774  14.439  21.223  0.00  0.00     0.215 A 
ATOM      5  C   UNL d   1     -38.783  15.416  20.925  0.00  0.00     0.044 A 
ATOM      6  C   UNL d   1     -39.164  14.930  21.466  0.00  0.00     0.044 A 
ATOM      7  O   UNL d   1     -38.616  15.918  19.577  0.00  0.00    -0.285 OA
ATOM      8  O   UNL d   1     -40.159  13.949  21.770  0.00  0.00    -0.285 OA
ATOM      9  C   UNL d   1     -38.159  15.922  21.160  0.00  0.00     0.003 A 
ATOM     10  C   UNL d   1     -38.933  14.934  22.260  0.00  0.00     0.003 A 
ATOM     11  C   UNL d   1     -37.940  15.912  21.963  0.00  0.00     0.000 A 
ATOM     12  C   UNL d   1     -38.320  15.426  22.505  0.00  0.00     0.000 A 
ENDROOT
BRANCH   1  13
ATOM     13  N   UNL d   1     -40.631  13.936  20.168  0.00  0.00    -0.241 NA
BRANCH  13  14
ATOM     14  C   UNL d   1     -41.354  13.941  20.574  0.00  0.00     0.082 A 
ATOM     15  C   UNL d   1     -41.693  13.230  20.819  0.00  0.00     0.019 A 
ATOM     16  C   UNL d   1     -42.412  13.236  21.223  0.00  0.00     0.002 A 
ATOM     17  C   UNL d   1     -42.781  13.952  21.378  0.00  0.00     0.000 A 
ATOM     18  C   UNL d   1     -42.449  14.656  21.138  0.00  0.00     0.002 A 
ATOM     19  C   UNL d   1     -41.730  14.650  20.734  0.00  0.00     0.019 A 
ENDBRANCH  13  14
ENDBRANCH   1  13
BRANCH   2  20
ATOM     20  N   UNL d   1     -39.846  14.930  19.082  0.00  0.00    -0.300 N 
ATOM     21  C   UNL d   1     -40.236  15.582  18.750  0.00  0.00     0.080 A 
ATOM     22  C   UNL d   1     -40.447  15.574  17.957  0.00  0.00     0.019 A 
ATOM     23  C   UNL d   1     -40.272  14.911  17.474  0.00  0.00     0.003 A 
ATOM     24  C   UNL d   1     -39.882  14.260  17.805  0.00  0.00     0.019 A 
ATOM     25  C   UNL d   1     -39.659  14.258  18.626  0.00  0.00     0.080 A 
ENDBRANCH   2  20
TORSDOF 3
ENDMDL
