MODEL 1
REMARK VINA RESULT:      -2.2      0.000      0.000
REMARK  5 active torsions:
REMARK  status: ('A' for Active; 'I' for Inactive)
REMARK    1  A    between atoms: C_9  and  N_1 
REMARK    2  A    between atoms: C_10  and  C_2 
REMARK    3  A    between atoms: C_3  and  C_11 
REMARK    4  A    between atoms: O_14  and  C_9 
REMARK    5  A    between atoms: C_11  and  O_14 
ROOT
ATOM      1  C   UNL d   1      32.214  17.535 -24.452  0.00  0.00     0.305 C 
ATOM      2  O   UNL d   1      32.237  18.065 -25.089  0.00  0.00    -0.259 OA
ENDROOT
BRANCH   1   3
ATOM      3  C   UNL d   1      31.945  16.767 -24.569  0.00  0.00     0.108 A 
ATOM      4  C   UNL d   1      31.156  16.524 -24.596  0.00  0.00     0.116 A 
ATOM      5  N   UNL d   1      31.146  15.719 -24.723  0.00  0.00    -0.126 NA
ATOM      6  O   UNL d   1      31.918  15.454 -24.776  0.00  0.00    -0.211 OA
ATOM      7  C   UNL d   1      32.413  16.106 -24.680  0.00  0.00     0.132 A 
ATOM      8  C   UNL d   1      33.241  16.097 -24.693  0.00  0.00     0.029 C 
BRANCH   4   9
ATOM      9  C   UNL d   1      30.496  17.012 -24.510  0.00  0.00     0.031 A 
ATOM     10  C   UNL d   1      29.973  16.881 -23.891  0.00  0.00     0.059 A 
ATOM     11 CL   UNL d   1      30.101  16.278 -23.368  0.00  0.00    -0.082 Cl
ATOM     12  C   UNL d   1      29.322  17.366 -23.808  0.00  0.00     0.011 A 
ATOM     13  C   UNL d   1      29.186  17.986 -24.340  0.00  0.00     0.001 A 
ATOM     14  C   UNL d   1      29.708  18.117 -24.959  0.00  0.00     0.000 A 
ATOM     15  C   UNL d   1      30.368  17.628 -25.046  0.00  0.00     0.002 A 
ENDBRANCH   4   9
ENDBRANCH   1   3
BRANCH   1  16
ATOM     16  O   UNL d   1      32.462  17.780 -23.702  0.00  0.00    -0.252 OA
BRANCH  16  17
ATOM     17  C   UNL d   1      33.117  18.281 -23.626  0.00  0.00     0.216 C 
BRANCH  17  18
ATOM     18  N   UNL d   1      33.126  18.863 -23.039  0.00  0.00    -0.218 N 
ATOM     19  C   UNL d   1      33.171  18.730 -22.232  0.00  0.00     0.269 A 
ATOM     20  C   UNL d   1      33.163  19.463 -21.848  0.00  0.00     0.061 A 
ATOM     21  O   UNL d   1      33.216  17.991 -21.859  0.00  0.00    -0.267 OA
ATOM     22  C   UNL d   1      33.195  19.676 -21.052  0.00  0.00     0.005 A 
ATOM     23  C   UNL d   1      33.113  20.049 -22.428  0.00  0.00     0.061 A 
ATOM     24  C   UNL d   1      33.178  20.466 -20.836  0.00  0.00     0.000 A 
ATOM     25  C   UNL d   1      33.128  21.052 -21.416  0.00  0.00     0.000 A 
ATOM     26  C   UNL d   1      33.095  20.849 -22.214  0.00  0.00     0.005 A 
ATOM     27  C   UNL d   1      33.089  19.680 -23.173  0.00  0.00     0.269 A 
ATOM     28  O   UNL d   1      33.040  20.055 -23.902  0.00  0.00    -0.267 OA
ENDBRANCH  17  18
ENDBRANCH  16  17
ENDBRANCH   1  16
TORSDOF 5
ENDMDL
