MODEL 1
REMARK VINA RESULT:      32.7      0.000      0.000
REMARK  7 active torsions:
REMARK  status: ('A' for Active; 'I' for Inactive)
REMARK    1  A    between atoms: C_8  and  C_1 
REMARK    2  A    between atoms: N_7  and  C_2 
REMARK    3  A    between atoms: C_5  and  N_7 
REMARK    4  A    between atoms: N_9  and  C_5 
REMARK    5  A    between atoms: O_14  and  C_8 
REMARK    6  A    between atoms: C_10  and  N_9 
REMARK    7  A    between atoms: C_20  and  O_14 
ROOT
ATOM      1  C   UNL d   1      13.569  14.091  -3.997  0.00  0.00     0.162 A 
ATOM      2  C   UNL d   1      13.444  13.319  -3.763  0.00  0.00     0.108 A 
ATOM      3  N   UNL d   1      13.451  14.136  -4.812  0.00  0.00    -0.239 NA
ATOM      4  C   UNL d   1      13.248  12.877  -4.426  0.00  0.00     0.037 A 
ATOM      5  C   UNL d   1      13.252  13.378  -5.078  0.00  0.00     0.083 A 
ATOM      6  C   UNL d   1      13.066  12.079  -4.521  0.00  0.00     0.003 A 
ATOM      7  C   UNL d   1      13.074  13.086  -5.829  0.00  0.00     0.019 A 
ATOM      8  C   UNL d   1      12.887  11.780  -5.267  0.00  0.00     0.000 A 
ATOM      9  C   UNL d   1      12.893  12.291  -5.922  0.00  0.00     0.002 A 
ENDROOT
BRANCH   2  10
ATOM     10  N   UNL d   1      13.503  13.025  -2.984  0.00  0.00    -0.216 NA
BRANCH  10  11
ATOM     11  C   UNL d   1      13.460  12.210  -2.852  0.00  0.00     0.221 C 
ATOM     12  S   UNL d   1      12.791  11.780  -3.083  0.00  0.00    -0.037 SA
BRANCH  11  13
ATOM     13  N   UNL d   1      14.094  11.827  -2.485  0.00  0.00    -0.217 NA
BRANCH  13  14
ATOM     14  C   UNL d   1      14.140  11.817  -1.663  0.00  0.00     0.084 A 
ATOM     15  C   UNL d   1      14.876  11.829  -1.280  0.00  0.00     0.018 A 
ATOM     16  C   UNL d   1      15.584  11.852  -1.732  0.00  0.00     0.002 C 
ATOM     17  C   UNL d   1      14.928  11.819  -0.461  0.00  0.00     0.002 A 
ATOM     18  C   UNL d   1      14.232  11.796  -0.014  0.00  0.00     0.000 A 
ATOM     19  C   UNL d   1      13.492  11.783  -0.383  0.00  0.00     0.002 A 
ATOM     20  C   UNL d   1      13.453  11.794  -1.213  0.00  0.00     0.019 A 
ENDBRANCH  13  14
ENDBRANCH  11  13
ENDBRANCH  10  11
ENDBRANCH   2  10
BRANCH   1  21
ATOM     21  C   UNL d   1      13.777  14.721  -3.505  0.00  0.00     0.320 C 
ATOM     22  O   UNL d   1      13.335  14.869  -2.823  0.00  0.00    -0.257 OA
BRANCH  21  23
ATOM     23  O   UNL d   1      14.417  15.201  -3.682  0.00  0.00    -0.270 OA
BRANCH  23  24
ATOM     24  C   UNL d   1      14.481  15.943  -3.322  0.00  0.00     0.126 C 
ATOM     25  C   UNL d   1      15.173  16.374  -3.401  0.00  0.00     0.029 C 
ENDBRANCH  23  24
ENDBRANCH  21  23
ENDBRANCH   1  21
TORSDOF 7
ENDMDL
