MODEL 1
REMARK VINA RESULT:      -8.0      0.000      0.000
REMARK  3 active torsions:
REMARK  status: ('A' for Active; 'I' for Inactive)
REMARK    1  A    between atoms: S_10  and  C_7 
REMARK    2  A    between atoms: C_13  and  S_10 
REMARK    3  A    between atoms: C_12  and  C_13 
ROOT
ATOM      1  N   UNL d   1      53.289  33.826  54.401  0.00  0.00    -0.167 N 
ATOM      2  C   UNL d   1      53.975  33.809  54.851  0.00  0.00     0.220 A 
ATOM      3  C   UNL d   1      52.903  34.546  54.240  0.00  0.00     0.301 A 
ATOM      4  S   UNL d   1      54.218  33.025  54.910  0.00  0.00    -0.019 SA
ATOM      5  N   UNL d   1      53.109  33.060  54.184  0.00  0.00    -0.147 NA
ATOM      6  N   UNL d   1      54.285  34.519  55.146  0.00  0.00    -0.121 NA
ATOM      7  C   UNL d   1      53.678  32.567  54.496  0.00  0.00     0.163 A 
ATOM      8  N   UNL d   1      53.914  35.229  54.993  0.00  0.00    -0.141 NA
ATOM      9  C   UNL d   1      53.225  35.243  54.541  0.00  0.00     0.161 A 
ATOM     10  O   UNL d   1      52.217  34.560  53.790  0.00  0.00    -0.263 OA
ATOM     11  C   UNL d   1      52.843  35.959  54.382  0.00  0.00     0.028 C 
ENDROOT
BRANCH   7  12
ATOM     12  S   UNL d   1      53.708  31.744  54.410  0.00  0.00    -0.059 SA
BRANCH  12  13
ATOM     13  C   UNL d   1      53.483  31.401  53.698  0.00  0.00     0.038 C 
BRANCH  13  14
ATOM     14  C   UNL d   1      53.332  30.593  53.719  0.00  0.00     0.017 A 
ATOM     15  C   UNL d   1      52.973  30.220  53.072  0.00  0.00     0.058 A 
ATOM     16 CL   UNL d   1      52.767  30.660  52.407  0.00  0.00    -0.082 Cl
ATOM     17  C   UNL d   1      52.820  29.420  53.085  0.00  0.00     0.011 A 
ATOM     18  C   UNL d   1      53.025  28.969  53.753  0.00  0.00     0.001 A 
ATOM     19  C   UNL d   1      53.380  29.329  54.397  0.00  0.00     0.000 A 
ATOM     20  C   UNL d   1      53.536  30.140  54.387  0.00  0.00     0.001 A 
ENDBRANCH  13  14
ENDBRANCH  12  13
ENDBRANCH   7  12
TORSDOF 3
ENDMDL
MODEL 2
REMARK VINA RESULT:      -8.0      2.966      4.270
REMARK  3 active torsions:
REMARK  status: ('A' for Active; 'I' for Inactive)
REMARK    1  A    between atoms: S_10  and  C_7 
REMARK    2  A    between atoms: C_13  and  S_10 
REMARK    3  A    between atoms: C_12  and  C_13 
ROOT
ATOM      1  N   UNL d   1      53.060  33.753  53.938  0.00  0.00    -0.167 N 
ATOM      2  C   UNL d   1      52.972  32.984  53.668  0.00  0.00     0.220 A 
ATOM      3  C   UNL d   1      53.651  33.945  54.492  0.00  0.00     0.301 A 
ATOM      4  S   UNL d   1      52.348  32.975  53.132  0.00  0.00    -0.019 SA
ATOM      5  N   UNL d   1      52.496  34.216  53.573  0.00  0.00    -0.147 NA
ATOM      6  N   UNL d   1      53.479  32.393  53.952  0.00  0.00    -0.121 NA
ATOM      7  C   UNL d   1      52.057  33.740  53.078  0.00  0.00     0.163 A 
ATOM      8  N   UNL d   1      54.061  32.571  54.495  0.00  0.00    -0.141 NA
ATOM      9  C   UNL d   1      54.147  33.345  54.765  0.00  0.00     0.161 A 
ATOM     10  O   UNL d   1      53.736  34.716  54.760  0.00  0.00    -0.263 OA
ATOM     11  C   UNL d   1      54.735  33.535  55.315  0.00  0.00     0.028 C 
ENDROOT
BRANCH   7  12
ATOM     12  S   UNL d   1      51.427  33.985  52.601  0.00  0.00    -0.059 SA
BRANCH  12  13
ATOM     13  C   UNL d   1      50.734  34.258  52.949  0.00  0.00     0.038 C 
BRANCH  13  14
ATOM     14  C   UNL d   1      50.115  34.429  52.436  0.00  0.00     0.017 A 
ATOM     15  C   UNL d   1      49.471  34.878  52.698  0.00  0.00     0.058 A 
ATOM     16 CL   UNL d   1      49.450  35.153  53.473  0.00  0.00    -0.082 Cl
ATOM     17  C   UNL d   1      48.854  35.052  52.195  0.00  0.00     0.011 A 
ATOM     18  C   UNL d   1      48.867  34.778  51.410  0.00  0.00     0.001 A 
ATOM     19  C   UNL d   1      49.500  34.333  51.143  0.00  0.00     0.000 A 
ATOM     20  C   UNL d   1      50.128  34.155  51.650  0.00  0.00     0.001 A 
ENDBRANCH  13  14
ENDBRANCH  12  13
ENDBRANCH   7  12
TORSDOF 3
ENDMDL
MODEL 3
REMARK VINA RESULT:      -7.8      2.818      3.902
REMARK  3 active torsions:
REMARK  status: ('A' for Active; 'I' for Inactive)
REMARK    1  A    between atoms: S_10  and  C_7 
REMARK    2  A    between atoms: C_13  and  S_10 
REMARK    3  A    between atoms: C_12  and  C_13 
ROOT
ATOM      1  N   UNL d   1      50.548  34.535  52.730  0.00  0.00    -0.167 N 
ATOM      2  C   UNL d   1      50.940  34.230  52.077  0.00  0.00     0.220 A 
ATOM      3  C   UNL d   1      49.747  34.756  52.681  0.00  0.00     0.301 A 
ATOM      4  S   UNL d   1      51.715  34.068  52.300  0.00  0.00    -0.019 SA
ATOM      5  N   UNL d   1      51.076  34.561  53.352  0.00  0.00    -0.147 NA
ATOM      6  N   UNL d   1      50.530  34.143  51.361  0.00  0.00    -0.121 NA
ATOM      7  C   UNL d   1      51.792  34.274  53.090  0.00  0.00     0.163 A 
ATOM      8  N   UNL d   1      49.745  34.357  51.304  0.00  0.00    -0.141 NA
ATOM      9  C   UNL d   1      49.354  34.663  51.962  0.00  0.00     0.161 A 
ATOM     10  O   UNL d   1      49.359  35.060  53.336  0.00  0.00    -0.263 OA
ATOM     11  C   UNL d   1      48.558  34.882  51.913  0.00  0.00     0.028 C 
ENDROOT
BRANCH   7  12
ATOM     12  S   UNL d   1      52.482  34.203  53.543  0.00  0.00    -0.059 SA
BRANCH  12  13
ATOM     13  C   UNL d   1      52.723  33.463  53.805  0.00  0.00     0.038 C 
BRANCH  13  14
ATOM     14  C   UNL d   1      53.391  33.449  54.284  0.00  0.00     0.017 A 
ATOM     15  C   UNL d   1      53.783  32.734  54.430  0.00  0.00     0.058 A 
ATOM     16 CL   UNL d   1      53.502  32.037  54.096  0.00  0.00    -0.082 Cl
ATOM     17  C   UNL d   1      54.446  32.713  54.903  0.00  0.00     0.011 A 
ATOM     18  C   UNL d   1      54.736  33.413  55.245  0.00  0.00     0.001 A 
ATOM     19  C   UNL d   1      54.355  34.124  55.105  0.00  0.00     0.000 A 
ATOM     20  C   UNL d   1      53.682  34.150  54.626  0.00  0.00     0.001 A 
ENDBRANCH  13  14
ENDBRANCH  12  13
ENDBRANCH   7  12
TORSDOF 3
ENDMDL
MODEL 4
REMARK VINA RESULT:      -7.7      2.225      4.682
REMARK  3 active torsions:
REMARK  status: ('A' for Active; 'I' for Inactive)
REMARK    1  A    between atoms: S_10  and  C_7 
REMARK    2  A    between atoms: C_13  and  S_10 
REMARK    3  A    between atoms: C_12  and  C_13 
ROOT
ATOM      1  N   UNL d   1      53.190  30.460  54.019  0.00  0.00    -0.167 N 
ATOM      2  C   UNL d   1      52.894  30.350  53.262  0.00  0.00     0.220 A 
ATOM      3  C   UNL d   1      53.341  29.810  54.517  0.00  0.00     0.301 A 
ATOM      4  S   UNL d   1      52.807  31.090  52.914  0.00  0.00    -0.019 SA
ATOM      5  N   UNL d   1      53.285  31.262  54.139  0.00  0.00    -0.147 NA
ATOM      6  N   UNL d   1      52.744  29.580  52.992  0.00  0.00    -0.121 NA
ATOM      7  C   UNL d   1      53.050  31.650  53.462  0.00  0.00     0.163 A 
ATOM      8  N   UNL d   1      52.889  28.937  53.473  0.00  0.00    -0.141 NA
ATOM      9  C   UNL d   1      53.186  29.051  54.233  0.00  0.00     0.161 A 
ATOM     10  O   UNL d   1      53.636  29.925  55.273  0.00  0.00    -0.263 OA
ATOM     11  C   UNL d   1      53.335  28.405  54.727  0.00  0.00     0.028 C 
ENDROOT
BRANCH   7  12
ATOM     12  S   UNL d   1      53.056  32.470  53.346  0.00  0.00    -0.059 SA
BRANCH  12  13
ATOM     13  C   UNL d   1      53.379  32.961  53.920  0.00  0.00     0.038 C 
BRANCH  13  14
ATOM     14  C   UNL d   1      53.175  33.756  53.871  0.00  0.00     0.017 A 
ATOM     15  C   UNL d   1      53.436  34.287  54.450  0.00  0.00     0.058 A 
ATOM     16 CL   UNL d   1      53.899  34.019  55.075  0.00  0.00    -0.082 Cl
ATOM     17  C   UNL d   1      53.238  35.077  54.410  0.00  0.00     0.011 A 
ATOM     18  C   UNL d   1      52.770  35.356  53.781  0.00  0.00     0.001 A 
ATOM     19  C   UNL d   1      52.509  34.838  53.205  0.00  0.00     0.000 A 
ATOM     20  C   UNL d   1      52.707  34.036  53.243  0.00  0.00     0.001 A 
ENDBRANCH  13  14
ENDBRANCH  12  13
ENDBRANCH   7  12
TORSDOF 3
ENDMDL
MODEL 5
REMARK VINA RESULT:      -7.3      4.115      4.910
REMARK  3 active torsions:
REMARK  status: ('A' for Active; 'I' for Inactive)
REMARK    1  A    between atoms: S_10  and  C_7 
REMARK    2  A    between atoms: C_13  and  S_10 
REMARK    3  A    between atoms: C_12  and  C_13 
ROOT
ATOM      1  N   UNL d   1      48.942  35.249  52.722  0.00  0.00    -0.167 N 
ATOM      2  C   UNL d   1      48.914  34.914  51.973  0.00  0.00     0.220 A 
ATOM      3  C   UNL d   1      48.366  35.799  52.965  0.00  0.00     0.301 A 
ATOM      4  S   UNL d   1      49.551  34.399  51.903  0.00  0.00    -0.019 SA
ATOM      5  N   UNL d   1      49.591  34.943  53.112  0.00  0.00    -0.147 NA
ATOM      6  N   UNL d   1      48.304  35.129  51.455  0.00  0.00    -0.121 NA
ATOM      7  C   UNL d   1      49.966  34.422  52.610  0.00  0.00     0.163 A 
ATOM      8  N   UNL d   1      47.735  35.668  51.684  0.00  0.00    -0.141 NA
ATOM      9  C   UNL d   1      47.766  36.001  52.437  0.00  0.00     0.161 A 
ATOM     10  O   UNL d   1      48.397  36.131  53.714  0.00  0.00    -0.263 OA
ATOM     11  C   UNL d   1      47.193  36.548  52.677  0.00  0.00     0.028 C 
ENDROOT
BRANCH   7  12
ATOM     12  S   UNL d   1      50.650  33.988  52.784  0.00  0.00    -0.059 SA
BRANCH  12  13
ATOM     13  C   UNL d   1      51.348  34.382  52.963  0.00  0.00     0.038 C 
BRANCH  13  14
ATOM     14  C   UNL d   1      52.004  33.907  53.107  0.00  0.00     0.017 A 
ATOM     15  C   UNL d   1      52.708  34.244  53.382  0.00  0.00     0.058 A 
ATOM     16 CL   UNL d   1      52.752  35.056  53.513  0.00  0.00    -0.082 Cl
ATOM     17  C   UNL d   1      53.362  33.781  53.527  0.00  0.00     0.011 A 
ATOM     18  C   UNL d   1      53.327  32.960  53.397  0.00  0.00     0.001 A 
ATOM     19  C   UNL d   1      52.635  32.619  53.125  0.00  0.00     0.000 A 
ATOM     20  C   UNL d   1      51.969  33.086  52.978  0.00  0.00     0.001 A 
ENDBRANCH  13  14
ENDBRANCH  12  13
ENDBRANCH   7  12
TORSDOF 3
ENDMDL
MODEL 6
REMARK VINA RESULT:      -6.2     10.464     10.847
REMARK  3 active torsions:
REMARK  status: ('A' for Active; 'I' for Inactive)
REMARK    1  A    between atoms: S_10  and  C_7 
REMARK    2  A    between atoms: C_13  and  S_10 
REMARK    3  A    between atoms: C_12  and  C_13 
ROOT
ATOM      1  N   UNL d   1      44.542  30.044  60.912  0.00  0.00    -0.167 N 
ATOM      2  C   UNL d   1      44.666  30.752  60.516  0.00  0.00     0.220 A 
ATOM      3  C   UNL d   1      44.438  30.030  61.737  0.00  0.00     0.301 A 
ATOM      4  S   UNL d   1      44.748  30.583  59.715  0.00  0.00    -0.019 SA
ATOM      5  N   UNL d   1      44.548  29.442  60.360  0.00  0.00    -0.147 NA
ATOM      6  N   UNL d   1      44.687  31.460  60.948  0.00  0.00    -0.121 NA
ATOM      7  C   UNL d   1      44.674  29.771  59.625  0.00  0.00     0.163 A 
ATOM      8  N   UNL d   1      44.586  31.456  61.757  0.00  0.00    -0.141 NA
ATOM      9  C   UNL d   1      44.462  30.743  62.151  0.00  0.00     0.161 A 
ATOM     10  O   UNL d   1      44.314  29.320  62.129  0.00  0.00    -0.263 OA
ATOM     11  C   UNL d   1      44.358  30.730  62.971  0.00  0.00     0.028 C 
ENDROOT
BRANCH   7  12
ATOM     12  S   UNL d   1      44.720  29.358  58.910  0.00  0.00    -0.059 SA
BRANCH  12  13
ATOM     13  C   UNL d   1      45.064  28.612  58.891  0.00  0.00     0.038 C 
BRANCH  13  14
ATOM     14  C   UNL d   1      45.119  28.258  58.151  0.00  0.00     0.017 A 
ATOM     15  C   UNL d   1      45.294  27.451  58.088  0.00  0.00     0.058 A 
ATOM     16 CL   UNL d   1      45.412  27.002  58.768  0.00  0.00    -0.082 Cl
ATOM     17  C   UNL d   1      45.350  27.093  57.359  0.00  0.00     0.011 A 
ATOM     18  C   UNL d   1      45.232  27.539  56.667  0.00  0.00     0.001 A 
ATOM     19  C   UNL d   1      45.060  28.338  56.719  0.00  0.00     0.000 A 
ATOM     20  C   UNL d   1      45.002  28.704  57.458  0.00  0.00     0.001 A 
ENDBRANCH  13  14
ENDBRANCH  12  13
ENDBRANCH   7  12
TORSDOF 3
ENDMDL
MODEL 7
REMARK VINA RESULT:      -5.9     11.038     11.713
REMARK  3 active torsions:
REMARK  status: ('A' for Active; 'I' for Inactive)
REMARK    1  A    between atoms: S_10  and  C_7 
REMARK    2  A    between atoms: C_13  and  S_10 
REMARK    3  A    between atoms: C_12  and  C_13 
ROOT
ATOM      1  N   UNL d   1      44.724  29.148  59.004  0.00  0.00    -0.167 N 
ATOM      2  C   UNL d   1      44.879  29.850  58.610  0.00  0.00     0.220 A 
ATOM      3  C   UNL d   1      44.763  28.418  58.606  0.00  0.00     0.301 A 
ATOM      4  S   UNL d   1      44.796  30.466  59.149  0.00  0.00    -0.019 SA
ATOM      5  N   UNL d   1      44.547  29.327  59.781  0.00  0.00    -0.147 NA
ATOM      6  N   UNL d   1      45.076  29.829  57.805  0.00  0.00    -0.121 NA
ATOM      7  C   UNL d   1      44.590  30.136  59.871  0.00  0.00     0.163 A 
ATOM      8  N   UNL d   1      45.117  29.118  57.406  0.00  0.00    -0.141 NA
ATOM      9  C   UNL d   1      44.960  28.415  57.805  0.00  0.00     0.161 A 
ATOM     10  O   UNL d   1      44.608  27.718  59.003  0.00  0.00    -0.263 OA
ATOM     11  C   UNL d   1      44.999  27.690  57.408  0.00  0.00     0.028 C 
ENDROOT
BRANCH   7  12
ATOM     12  S   UNL d   1      44.451  30.554  60.572  0.00  0.00    -0.059 SA
BRANCH  12  13
ATOM     13  C   UNL d   1      44.401  30.149  61.285  0.00  0.00     0.038 C 
BRANCH  13  14
ATOM     14  C   UNL d   1      44.377  30.614  61.963  0.00  0.00     0.017 A 
ATOM     15  C   UNL d   1      44.391  30.258  62.711  0.00  0.00     0.058 A 
ATOM     16 CL   UNL d   1      44.429  29.439  62.776  0.00  0.00    -0.082 Cl
ATOM     17  C   UNL d   1      44.367  30.712  63.387  0.00  0.00     0.011 A 
ATOM     18  C   UNL d   1      44.328  31.541  63.331  0.00  0.00     0.001 A 
ATOM     19  C   UNL d   1      44.314  31.900  62.596  0.00  0.00     0.000 A 
ATOM     20  C   UNL d   1      44.338  31.443  61.908  0.00  0.00     0.001 A 
ENDBRANCH  13  14
ENDBRANCH  12  13
ENDBRANCH   7  12
TORSDOF 3
ENDMDL
MODEL 8
REMARK VINA RESULT:      -5.8     10.793     11.274
REMARK  3 active torsions:
REMARK  status: ('A' for Active; 'I' for Inactive)
REMARK    1  A    between atoms: S_10  and  C_7 
REMARK    2  A    between atoms: C_13  and  S_10 
REMARK    3  A    between atoms: C_12  and  C_13 
ROOT
ATOM      1  N   UNL d   1      44.612  29.448  61.251  0.00  0.00    -0.167 N 
ATOM      2  C   UNL d   1      44.642  30.193  61.593  0.00  0.00     0.220 A 
ATOM      3  C   UNL d   1      44.590  28.763  61.723  0.00  0.00     0.301 A 
ATOM      4  S   UNL d   1      44.658  30.749  60.986  0.00  0.00    -0.019 SA
ATOM      5  N   UNL d   1      44.609  29.542  60.440  0.00  0.00    -0.147 NA
ATOM      6  N   UNL d   1      44.651  30.261  62.419  0.00  0.00    -0.121 NA
ATOM      7  C   UNL d   1      44.638  30.340  60.276  0.00  0.00     0.163 A 
ATOM      8  N   UNL d   1      44.630  29.595  62.891  0.00  0.00    -0.141 NA
ATOM      9  C   UNL d   1      44.599  28.849  62.544  0.00  0.00     0.161 A 
ATOM     10  O   UNL d   1      44.559  28.020  61.378  0.00  0.00    -0.263 OA
ATOM     11  C   UNL d   1      44.577  28.169  63.014  0.00  0.00     0.028 C 
ENDROOT
BRANCH   7  12
ATOM     12  S   UNL d   1      44.645  30.680  59.521  0.00  0.00    -0.059 SA
BRANCH  12  13
ATOM     13  C   UNL d   1      44.845  30.222  58.869  0.00  0.00     0.038 C 
BRANCH  13  14
ATOM     14  C   UNL d   1      44.760  30.582  58.135  0.00  0.00     0.017 A 
ATOM     15  C   UNL d   1      44.767  30.124  57.445  0.00  0.00     0.058 A 
ATOM     16 CL   UNL d   1      44.859  29.308  57.494  0.00  0.00    -0.082 Cl
ATOM     17  C   UNL d   1      44.683  30.473  56.714  0.00  0.00     0.011 A 
ATOM     18  C   UNL d   1      44.589  31.298  56.655  0.00  0.00     0.001 A 
ATOM     19  C   UNL d   1      44.581  31.757  57.332  0.00  0.00     0.000 A 
ATOM     20  C   UNL d   1      44.666  31.407  58.075  0.00  0.00     0.001 A 
ENDBRANCH  13  14
ENDBRANCH  12  13
ENDBRANCH   7  12
TORSDOF 3
ENDMDL
MODEL 9
REMARK VINA RESULT:      -5.5     10.179     11.248
REMARK  3 active torsions:
REMARK  status: ('A' for Active; 'I' for Inactive)
REMARK    1  A    between atoms: S_10  and  C_7 
REMARK    2  A    between atoms: C_13  and  S_10 
REMARK    3  A    between atoms: C_12  and  C_13 
ROOT
ATOM      1  N   UNL d   1      44.613  26.768  57.892  0.00  0.00    -0.167 N 
ATOM      2  C   UNL d   1      44.681  26.637  57.086  0.00  0.00     0.220 A 
ATOM      3  C   UNL d   1      44.571  26.131  58.426  0.00  0.00     0.301 A 
ATOM      4  S   UNL d   1      44.710  27.370  56.712  0.00  0.00    -0.019 SA
ATOM      5  N   UNL d   1      44.599  27.575  58.017  0.00  0.00    -0.147 NA
ATOM      6  N   UNL d   1      44.708  25.859  56.801  0.00  0.00    -0.121 NA
ATOM      7  C   UNL d   1      44.658  27.946  57.294  0.00  0.00     0.163 A 
ATOM      8  N   UNL d   1      44.668  25.227  57.317  0.00  0.00    -0.141 NA
ATOM      9  C   UNL d   1      44.599  25.363  58.127  0.00  0.00     0.161 A 
ATOM     10  O   UNL d   1      44.503  26.266  59.232  0.00  0.00    -0.263 OA
ATOM     11  C   UNL d   1      44.557  24.729  58.656  0.00  0.00     0.028 C 
ENDROOT
BRANCH   7  12
ATOM     12  S   UNL d   1      44.666  28.764  57.167  0.00  0.00    -0.059 SA
BRANCH  12  13
ATOM     13  C   UNL d   1      44.923  29.267  57.763  0.00  0.00     0.038 C 
BRANCH  13  14
ATOM     14  C   UNL d   1      44.844  30.072  57.616  0.00  0.00     0.017 A 
ATOM     15  C   UNL d   1      45.023  30.622  58.208  0.00  0.00     0.058 A 
ATOM     16 CL   UNL d   1      45.280  30.363  58.945  0.00  0.00    -0.082 Cl
ATOM     17  C   UNL d   1      44.947  31.421  58.069  0.00  0.00     0.011 A 
ATOM     18  C   UNL d   1      44.687  31.692  57.327  0.00  0.00     0.001 A 
ATOM     19  C   UNL d   1      44.508  31.155  56.736  0.00  0.00     0.000 A 
ATOM     20  C   UNL d   1      44.584  30.343  56.873  0.00  0.00     0.001 A 
ENDBRANCH  13  14
ENDBRANCH  12  13
ENDBRANCH   7  12
TORSDOF 3
ENDMDL
