MODEL 1
REMARK VINA RESULT:      27.4      0.000      0.000
REMARK  5 active torsions:
REMARK  status: ('A' for Active; 'I' for Inactive)
REMARK    1  A    between atoms: C_2  and  C_3 
REMARK    2  A    between atoms: N_4  and  C_2 
REMARK    3  A    between atoms: C_10  and  N_4 
REMARK    4  A    between atoms: O_16  and  C_11 
REMARK    5  A    between atoms: C_19  and  O_16 
ROOT
ATOM      1  C   UNL d   1      14.990  12.652  -0.594  0.00  0.00     0.153 C 
ATOM      2  S   UNL d   1      15.744  12.311  -0.606  0.00  0.00    -0.056 SA
ENDROOT
BRANCH   1   3
ATOM      3  C   UNL d   1      14.438  12.434  -1.167  0.00  0.00     0.109 A 
ATOM      4  N   UNL d   1      14.608  12.544  -1.973  0.00  0.00    -0.243 NA
ATOM      5  C   UNL d   1      14.056  12.327  -2.546  0.00  0.00     0.081 A 
ATOM      6  C   UNL d   1      13.332  11.999  -2.320  0.00  0.00     0.018 A 
ATOM      7  C   UNL d   1      14.228  12.437  -3.344  0.00  0.00     0.019 A 
ATOM      8  C   UNL d   1      13.152  11.885  -1.519  0.00  0.00     0.003 A 
ATOM      9  C   UNL d   1      12.781  11.782  -2.892  0.00  0.00     0.002 A 
ATOM     10  C   UNL d   1      13.706  12.103  -0.939  0.00  0.00     0.021 A 
ATOM     11  C   UNL d   1      12.953  11.892  -3.692  0.00  0.00     0.000 A 
ATOM     12  C   UNL d   1      13.676  12.220  -3.917  0.00  0.00     0.002 A 
ENDBRANCH   1   3
BRANCH   1  13
ATOM     13  N   UNL d   1      14.788  13.205  -0.014  0.00  0.00    -0.233 NA
BRANCH  13  14
ATOM     14  C   UNL d   1      15.028  13.993  -0.095  0.00  0.00     0.083 A 
ATOM     15  C   UNL d   1      15.829  14.167  -0.198  0.00  0.00     0.021 A 
ATOM     16  C   UNL d   1      16.061  14.954  -0.278  0.00  0.00     0.026 A 
ATOM     17  C   UNL d   1      15.502  15.560  -0.254  0.00  0.00     0.100 A 
ATOM     18  C   UNL d   1      14.699  15.376  -0.150  0.00  0.00     0.026 A 
ATOM     19  C   UNL d   1      14.462  14.593  -0.070  0.00  0.00     0.021 A 
BRANCH  17  20
ATOM     20  O   UNL d   1      15.741  16.352  -0.335  0.00  0.00    -0.305 OA
BRANCH  20  21
ATOM     21  C   UNL d   1      15.211  16.913  -0.630  0.00  0.00     0.123 C 
ATOM     22  C   UNL d   1      15.347  17.257  -1.365  0.00  0.00     0.029 C 
ENDBRANCH  20  21
ENDBRANCH  17  20
ENDBRANCH  13  14
ENDBRANCH   1  13
TORSDOF 5
ENDMDL
