MODEL 1
REMARK VINA RESULT:      -2.6      0.000      0.000
REMARK  5 active torsions:
REMARK  status: ('A' for Active; 'I' for Inactive)
REMARK    1  A    between atoms: N_7  and  C_1 
REMARK    2  A    between atoms: C_12  and  C_2 
REMARK       I    between atoms: C_8  and  N_7 
REMARK    3  A    between atoms: C_10  and  C_8 
REMARK    4  A    between atoms: N_9  and  C_16 
REMARK    5  A    between atoms: C_16  and  C_10 
ROOT
ATOM      1  C   UNL d   1      33.234  20.603 -23.480  0.00  0.00     0.142 A 
ATOM      2  C   UNL d   1      33.227  21.072 -22.799  0.00  0.00     0.024 A 
ATOM      3  C   UNL d   1      33.234  20.939 -24.213  0.00  0.00     0.297 A 
ATOM      4  C   UNL d   1      33.220  21.892 -22.884  0.00  0.00     0.020 A 
ATOM      5  N   UNL d   1      33.227  21.762 -24.301  0.00  0.00    -0.207 NA
ATOM      6  C   UNL d   1      33.220  22.236 -23.632  0.00  0.00     0.085 A 
ATOM      7  C   UNL d   1      33.214  22.364 -22.206  0.00  0.00     0.008 A 
ATOM      8  O   UNL d   1      33.240  20.455 -24.888  0.00  0.00    -0.264 OA
ATOM      9  C   UNL d   1      33.213  23.053 -23.709  0.00  0.00     0.020 A 
ATOM     10  C   UNL d   1      33.206  23.193 -22.291  0.00  0.00     0.035 A 
ATOM     11  C   UNL d   1      33.206  23.529 -23.024  0.00  0.00     0.008 A 
ATOM     12 BR   UNL d   1      33.200  23.682 -21.624  0.00  0.00    -0.049 Br
ENDROOT
BRANCH   1  13
ATOM     13  N   UNL d   1      33.241  19.779 -23.416  0.00  0.00    -0.203 NA
ATOM     14  C   UNL d   1      32.849  19.305 -23.964  0.00  0.00     0.281 C 
ATOM     15  O   UNL d   1      32.352  19.098 -24.685  0.00  0.00    -0.265 OA
BRANCH  14  16
ATOM     16  C   UNL d   1      32.856  18.486 -23.900  0.00  0.00     0.082 C 
BRANCH  16  17
ATOM     17  C   UNL d   1      32.179  18.039 -24.012  0.00  0.00     0.085 C 
BRANCH  17  18
ATOM     18  N   UNL d   1      32.165  17.230 -23.884  0.00  0.00    -0.299 N 
ATOM     19  C   UNL d   1      32.837  16.811 -23.653  0.00  0.00     0.107 A 
ATOM     20  C   UNL d   1      32.807  16.006 -23.529  0.00  0.00     0.142 A 
ATOM     21  O   UNL d   1      32.087  15.594 -23.637  0.00  0.00    -0.300 OA
ATOM     22  C   UNL d   1      31.435  15.997 -23.861  0.00  0.00     0.142 A 
ATOM     23  C   UNL d   1      31.446  16.817 -23.991  0.00  0.00     0.107 A 
ENDBRANCH  17  18
ENDBRANCH  16  17
ENDBRANCH  14  16
ENDBRANCH   1  13
BRANCH   2  24
ATOM     24  C   UNL d   1      33.227  20.733 -22.059  0.00  0.00     0.002 A 
ATOM     25  C   UNL d   1      33.241  19.912 -21.974  0.00  0.00     0.000 A 
ATOM     26  C   UNL d   1      33.241  19.567 -21.222  0.00  0.00     0.000 A 
ATOM     27  C   UNL d   1      33.228  20.046 -20.564  0.00  0.00     0.000 A 
ATOM     28  C   UNL d   1      33.215  20.855 -20.622  0.00  0.00     0.000 A 
ATOM     29  C   UNL d   1      33.214  21.204 -21.381  0.00  0.00     0.000 A 
ENDBRANCH   2  24
TORSDOF 5
ENDMDL
MODEL 2
REMARK VINA RESULT:      -1.5      2.445      5.199
REMARK  5 active torsions:
REMARK  status: ('A' for Active; 'I' for Inactive)
REMARK    1  A    between atoms: N_7  and  C_1 
REMARK    2  A    between atoms: C_12  and  C_2 
REMARK       I    between atoms: C_8  and  N_7 
REMARK    3  A    between atoms: C_10  and  C_8 
REMARK    4  A    between atoms: N_9  and  C_16 
REMARK    5  A    between atoms: C_16  and  C_10 
ROOT
ATOM      1  C   UNL d   1      31.066  17.876 -24.423  0.00  0.00     0.142 A 
ATOM      2  C   UNL d   1      30.713  17.157 -24.215  0.00  0.00     0.024 A 
ATOM      3  C   UNL d   1      30.655  18.433 -24.836  0.00  0.00     0.297 A 
ATOM      4  C   UNL d   1      29.932  17.020 -24.438  0.00  0.00     0.020 A 
ATOM      5  N   UNL d   1      29.869  18.299 -25.062  0.00  0.00    -0.207 NA
ATOM      6  C   UNL d   1      29.511  17.589 -24.860  0.00  0.00     0.085 A 
ATOM      7  C   UNL d   1      29.577  16.304 -24.232  0.00  0.00     0.008 A 
ATOM      8  O   UNL d   1      31.022  19.150 -25.038  0.00  0.00    -0.264 OA
ATOM      9  C   UNL d   1      28.733  17.446 -25.079  0.00  0.00     0.020 A 
ATOM     10  C   UNL d   1      28.787  16.165 -24.458  0.00  0.00     0.035 A 
ATOM     11  C   UNL d   1      28.375  16.722 -24.871  0.00  0.00     0.008 A 
ATOM     12 BR   UNL d   1      28.414  15.454 -24.261  0.00  0.00    -0.049 Br
ENDROOT
BRANCH   1  13
ATOM     13  N   UNL d   1      31.849  18.032 -24.208  0.00  0.00    -0.203 NA
ATOM     14  C   UNL d   1      32.138  18.802 -24.181  0.00  0.00     0.281 C 
ATOM     15  O   UNL d   1      32.132  19.700 -24.247  0.00  0.00    -0.265 OA
BRANCH  14  16
ATOM     16  C   UNL d   1      32.916  18.956 -23.967  0.00  0.00     0.082 C 
BRANCH  16  17
ATOM     17  C   UNL d   1      33.139  19.674 -23.641  0.00  0.00     0.085 C 
BRANCH  17  18
ATOM     18  N   UNL d   1      33.103  19.816 -22.834  0.00  0.00    -0.299 N 
ATOM     19  C   UNL d   1      32.939  20.563 -22.529  0.00  0.00     0.107 A 
ATOM     20  C   UNL d   1      32.907  20.688 -21.724  0.00  0.00     0.142 A 
ATOM     21  O   UNL d   1      33.041  20.054 -21.196  0.00  0.00    -0.300 OA
ATOM     22  C   UNL d   1      33.200  19.328 -21.490  0.00  0.00     0.142 A 
ATOM     23  C   UNL d   1      33.237  19.181 -22.307  0.00  0.00     0.107 A 
ENDBRANCH  17  18
ENDBRANCH  16  17
ENDBRANCH  14  16
ENDBRANCH   1  13
BRANCH   2  24
ATOM     24  C   UNL d   1      31.129  16.595 -23.798  0.00  0.00     0.002 A 
ATOM     25  C   UNL d   1      31.695  16.127 -24.173  0.00  0.00     0.000 A 
ATOM     26  C   UNL d   1      32.117  15.556 -23.749  0.00  0.00     0.000 A 
ATOM     27  C   UNL d   1      31.969  15.458 -22.954  0.00  0.00     0.000 A 
ATOM     28  C   UNL d   1      31.417  15.907 -22.563  0.00  0.00     0.000 A 
ATOM     29  C   UNL d   1      30.991  16.484 -22.991  0.00  0.00     0.000 A 
ENDBRANCH   2  24
TORSDOF 5
ENDMDL
