MODEL 1
REMARK VINA RESULT:      69.9      0.000      0.000
REMARK  6 active torsions:
REMARK  status: ('A' for Active; 'I' for Inactive)
REMARK    1  A    between atoms: N_5  and  C_1 
REMARK    2  A    between atoms: N_7  and  C_2 
REMARK    3  A    between atoms: C_8  and  N_3 
REMARK    4  A    between atoms: C_18  and  C_8 
REMARK    5  A    between atoms: C_14  and  N_9 
REMARK    6  A    between atoms: C_19  and  C_14 
ROOT
ATOM      1  C   UNL d   1     -58.389 -99.167 -43.202  0.00  0.00     0.242 A 
ATOM      2  C   UNL d   1     -58.000 -98.997 -43.909  0.00  0.00     0.175 A 
ATOM      3  N   UNL d   1     -57.185 -98.928 -43.740  0.00  0.00    -0.274 N 
ATOM      4  N   UNL d   1     -57.821 -99.204 -42.592  0.00  0.00    -0.203 NA
ATOM      5  C   UNL d   1     -57.083 -99.055 -42.936  0.00  0.00     0.151 A 
ATOM      6  C   UNL d   1     -56.362 -99.037 -42.537  0.00  0.00     0.041 C 
ENDROOT
BRANCH   2   7
ATOM      7  N   UNL d   1     -58.485 -98.941 -44.571  0.00  0.00    -0.285 N 
ATOM      8  C   UNL d   1     -59.298 -98.815 -44.485  0.00  0.00     0.101 A 
ATOM      9  C   UNL d   1     -59.777 -98.760 -45.160  0.00  0.00     0.100 A 
ATOM     10  N   UNL d   1     -59.450 -98.830 -45.906  0.00  0.00    -0.300 N 
ATOM     11  C   UNL d   1     -58.636 -98.956 -45.991  0.00  0.00     0.100 A 
ATOM     12  C   UNL d   1     -58.160 -99.011 -45.329  0.00  0.00     0.101 A 
BRANCH  10  13
ATOM     13  C   UNL d   1     -59.933 -98.774 -46.580  0.00  0.00     0.080 C 
BRANCH  13  14
ATOM     14  C   UNL d   1     -59.864 -99.326 -47.180  0.00  0.00     0.018 A 
ATOM     15  C   UNL d   1     -59.859 -99.081 -47.970  0.00  0.00     0.002 A 
ATOM     16  C   UNL d   1     -59.790 -99.632 -48.577  0.00  0.00     0.000 A 
ATOM     17  C   UNL d   1     -59.724-100.440 -48.394  0.00  0.00     0.000 A 
ATOM     18  C   UNL d   1     -59.729-100.685 -47.604  0.00  0.00     0.000 A 
ATOM     19  C   UNL d   1     -59.799-100.121 -46.997  0.00  0.00     0.002 A 
ENDBRANCH  13  14
ENDBRANCH  10  13
ENDBRANCH   2   7
BRANCH   1  20
ATOM     20  N   UNL d   1     -59.206 -99.283 -43.102  0.00  0.00    -0.092 N 
ATOM     21  O   UNL d   1     -59.589 -99.892 -43.494  0.00  0.00    -0.530 OA
ATOM     22  O   UNL d   1     -59.629 -98.778 -42.601  0.00  0.00    -0.530 OA
ENDBRANCH   1  20
BRANCH   3  23
ATOM     23  C   UNL d   1     -56.596 -98.761 -44.294  0.00  0.00     0.083 C 
BRANCH  23  24
ATOM     24  C   UNL d   1     -56.022 -99.321 -44.482  0.00  0.00     0.018 A 
ATOM     25  C   UNL d   1     -56.083-100.087 -44.171  0.00  0.00     0.002 A 
ATOM     26  C   UNL d   1     -55.508-100.655 -44.357  0.00  0.00     0.000 A 
ATOM     27  C   UNL d   1     -54.882-100.454 -44.848  0.00  0.00     0.000 A 
ATOM     28  C   UNL d   1     -54.821 -99.696 -45.158  0.00  0.00     0.000 A 
ATOM     29  C   UNL d   1     -55.395 -99.128 -44.972  0.00  0.00     0.002 A 
ENDBRANCH  23  24
ENDBRANCH   3  23
TORSDOF 6
ENDMDL
