MODEL 1
REMARK VINA RESULT:      -2.6      0.000      0.000
REMARK  4 active torsions:
REMARK  status: ('A' for Active; 'I' for Inactive)
REMARK    1  A    between atoms: C_2  and  C_1 
REMARK    2  A    between atoms: O_6  and  C_3 
REMARK    3  A    between atoms: C_4  and  C_9 
REMARK    4  A    between atoms: C_9  and  O_6 
ROOT
ATOM      1  C   UNL d   1     -42.561-123.161 -49.015  0.00  0.00     0.000 A 
ATOM      2  C   UNL d   1     -41.854-123.226 -49.451  0.00  0.00     0.091 A 
ATOM      3  C   UNL d   1     -42.534-123.258 -48.178  0.00  0.00     0.004 A 
ATOM      4  C   UNL d   1     -41.138-123.383 -49.072  0.00  0.00     0.024 A 
ATOM      5  C   UNL d   1     -41.814-123.415 -47.808  0.00  0.00     0.035 A 
ATOM      6  C   UNL d   1     -41.123-123.476 -48.253  0.00  0.00     0.009 A 
ATOM      7 BR   UNL d   1     -41.785-123.512 -46.971  0.00  0.00    -0.049 Br
ENDROOT
BRANCH   2   8
ATOM      8  O   UNL d   1     -41.885-123.130 -50.278  0.00  0.00    -0.320 OA
BRANCH   8   9
ATOM      9  C   UNL d   1     -41.216-123.309 -50.759  0.00  0.00     0.246 C 
BRANCH   9  10
ATOM     10  C   UNL d   1     -41.236-123.173 -51.572  0.00  0.00     0.217 C 
ATOM     11  O   UNL d   1     -41.369-123.813 -52.088  0.00  0.00    -0.645 OA
ATOM     12  O   UNL d   1     -41.123-122.406 -51.852  0.00  0.00    -0.645 OA
ENDBRANCH   9  10
ENDBRANCH   8   9
ENDBRANCH   2   8
BRANCH   1  13
ATOM     13  C   UNL d   1     -43.274-123.005 -49.393  0.00  0.00     0.021 C 
ATOM     14  C   UNL d   1     -43.992-122.848 -49.773  0.00  0.00     0.004 C 
ATOM     15  C   UNL d   1     -43.081-122.197 -49.423  0.00  0.00     0.004 C 
ATOM     16  C   UNL d   1     -43.464-123.799 -49.363  0.00  0.00     0.004 C 
ENDBRANCH   1  13
TORSDOF 4
ENDMDL
MODEL 2
REMARK VINA RESULT:      -1.0      2.129      3.470
REMARK  4 active torsions:
REMARK  status: ('A' for Active; 'I' for Inactive)
REMARK    1  A    between atoms: C_2  and  C_1 
REMARK    2  A    between atoms: O_6  and  C_3 
REMARK    3  A    between atoms: C_4  and  C_9 
REMARK    4  A    between atoms: C_9  and  O_6 
ROOT
ATOM      1  C   UNL d   1     -41.683-122.334 -51.648  0.00  0.00     0.000 A 
ATOM      2  C   UNL d   1     -41.630-122.997 -51.146  0.00  0.00     0.091 A 
ATOM      3  C   UNL d   1     -41.511-122.429 -52.468  0.00  0.00     0.004 A 
ATOM      4  C   UNL d   1     -41.413-123.735 -51.444  0.00  0.00     0.024 A 
ATOM      5  C   UNL d   1     -41.295-123.171 -52.756  0.00  0.00     0.035 A 
ATOM      6  C   UNL d   1     -41.247-123.817 -52.247  0.00  0.00     0.009 A 
ATOM      7 BR   UNL d   1     -41.123-123.268 -53.576  0.00  0.00    -0.049 Br
ENDROOT
BRANCH   2   8
ATOM      8  O   UNL d   1     -41.801-122.898 -50.336  0.00  0.00    -0.320 OA
BRANCH   8   9
ATOM      9  C   UNL d   1     -41.804-123.559 -49.813  0.00  0.00     0.246 C 
BRANCH   9  10
ATOM     10  C   UNL d   1     -41.823-123.446 -48.996  0.00  0.00     0.217 C 
ATOM     11  O   UNL d   1     -42.517-123.152 -48.643  0.00  0.00    -0.645 OA
ATOM     12  O   UNL d   1     -41.153-123.627 -48.552  0.00  0.00    -0.645 OA
ENDBRANCH   9  10
ENDBRANCH   8   9
ENDBRANCH   2   8
BRANCH   1  13
ATOM     13  C   UNL d   1     -41.898-121.598 -51.351  0.00  0.00     0.021 C 
ATOM     14  C   UNL d   1     -42.115-120.858 -51.053  0.00  0.00     0.004 C 
ATOM     15  C   UNL d   1     -42.687-121.742 -51.569  0.00  0.00     0.004 C 
ATOM     16  C   UNL d   1     -41.123-121.457 -51.137  0.00  0.00     0.004 C 
ENDBRANCH   1  13
TORSDOF 4
ENDMDL
MODEL 3
REMARK VINA RESULT:      -0.8      1.878      2.957
REMARK  4 active torsions:
REMARK  status: ('A' for Active; 'I' for Inactive)
REMARK    1  A    between atoms: C_2  and  C_1 
REMARK    2  A    between atoms: O_6  and  C_3 
REMARK    3  A    between atoms: C_4  and  C_9 
REMARK    4  A    between atoms: C_9  and  O_6 
ROOT
ATOM      1  C   UNL d   1     -42.522-122.966 -50.089  0.00  0.00     0.000 A 
ATOM      2  C   UNL d   1     -42.091-123.280 -49.449  0.00  0.00     0.091 A 
ATOM      3  C   UNL d   1     -42.235-123.088 -50.871  0.00  0.00     0.004 A 
ATOM      4  C   UNL d   1     -41.395-123.704 -49.576  0.00  0.00     0.024 A 
ATOM      5  C   UNL d   1     -41.538-123.512 -50.989  0.00  0.00     0.035 A 
ATOM      6  C   UNL d   1     -41.123-123.817 -50.345  0.00  0.00     0.009 A 
ATOM      7 BR   UNL d   1     -41.249-123.635 -51.772  0.00  0.00    -0.049 Br
ENDROOT
BRANCH   2   8
ATOM      8  O   UNL d   1     -42.379-123.158 -48.676  0.00  0.00    -0.320 OA
BRANCH   8   9
ATOM      9  C   UNL d   1     -41.992-123.503 -48.012  0.00  0.00     0.246 C 
BRANCH   9  10
ATOM     10  C   UNL d   1     -42.210-123.295 -47.244  0.00  0.00     0.217 C 
ATOM     11  O   UNL d   1     -42.776-123.755 -46.843  0.00  0.00    -0.645 OA
ATOM     12  O   UNL d   1     -41.861-122.634 -46.895  0.00  0.00    -0.645 OA
ENDBRANCH   9  10
ENDBRANCH   8   9
ENDBRANCH   2   8
BRANCH   1  13
ATOM     13  C   UNL d   1     -43.216-122.544 -49.961  0.00  0.00     0.021 C 
ATOM     14  C   UNL d   1     -43.914-122.119 -49.833  0.00  0.00     0.004 C 
ATOM     15  C   UNL d   1     -43.637-123.257 -49.892  0.00  0.00     0.004 C 
ATOM     16  C   UNL d   1     -42.802-121.843 -50.029  0.00  0.00     0.004 C 
ENDBRANCH   1  13
TORSDOF 4
ENDMDL
MODEL 4
REMARK VINA RESULT:       0.4      3.153      4.828
REMARK  4 active torsions:
REMARK  status: ('A' for Active; 'I' for Inactive)
REMARK    1  A    between atoms: C_2  and  C_1 
REMARK    2  A    between atoms: O_6  and  C_3 
REMARK    3  A    between atoms: C_4  and  C_9 
REMARK    4  A    between atoms: C_9  and  O_6 
ROOT
ATOM      1  C   UNL d   1     -41.855-122.323 -53.972  0.00  0.00     0.000 A 
ATOM      2  C   UNL d   1     -41.589-122.709 -53.283  0.00  0.00     0.091 A 
ATOM      3  C   UNL d   1     -41.745-122.699 -54.717  0.00  0.00     0.004 A 
ATOM      4  C   UNL d   1     -41.225-123.448 -53.328  0.00  0.00     0.024 A 
ATOM      5  C   UNL d   1     -41.380-123.438 -54.752  0.00  0.00     0.035 A 
ATOM      6  C   UNL d   1     -41.123-123.808 -54.062  0.00  0.00     0.009 A 
ATOM      7 BR   UNL d   1     -41.269-123.816 -55.498  0.00  0.00    -0.049 Br
ENDROOT
BRANCH   2   8
ATOM      8  O   UNL d   1     -41.700-122.333 -52.547  0.00  0.00    -0.320 OA
BRANCH   8   9
ATOM      9  C   UNL d   1     -41.314-122.619 -51.854  0.00  0.00     0.246 C 
BRANCH   9  10
ATOM     10  C   UNL d   1     -41.611-122.441 -51.105  0.00  0.00     0.217 C 
ATOM     11  O   UNL d   1     -41.194-121.909 -50.620  0.00  0.00    -0.645 OA
ATOM     12  O   UNL d   1     -42.314-122.796 -50.859  0.00  0.00    -0.645 OA
ENDBRANCH   9  10
ENDBRANCH   8   9
ENDBRANCH   2   8
BRANCH   1  13
ATOM     13  C   UNL d   1     -42.217-121.586 -53.927  0.00  0.00     0.021 C 
ATOM     14  C   UNL d   1     -42.582-120.846 -53.882  0.00  0.00     0.004 C 
ATOM     15  C   UNL d   1     -42.962-121.954 -53.909  0.00  0.00     0.004 C 
ATOM     16  C   UNL d   1     -41.485-121.224 -53.945  0.00  0.00     0.004 C 
ENDBRANCH   1  13
TORSDOF 4
ENDMDL
