MODEL 1
REMARK VINA RESULT:      62.9      0.000      0.000
REMARK  7 active torsions:
REMARK  status: ('A' for Active; 'I' for Inactive)
REMARK    1  A    between atoms: C_7  and  N_1 
REMARK    2  A    between atoms: C_6  and  C_4 
REMARK    3  A    between atoms: C_9  and  C_6 
REMARK    4  A    between atoms: C_8  and  C_7 
REMARK       I    between atoms: N_12  and  C_8 
REMARK    5  A    between atoms: C_10  and  C_9 
REMARK    6  A    between atoms: C_16  and  C_10 
REMARK    7  A    between atoms: C_15  and  N_12 
ROOT
ATOM      1  N   UNL d   1     -48.674  28.098  35.099  0.00  0.00    -0.230 N 
ATOM      2  C   UNL d   1     -49.362  27.787  35.441  0.00  0.00     0.299 A 
ATOM      3  C   UNL d   1     -48.614  27.797  34.334  0.00  0.00     0.274 A 
ATOM      4  C   UNL d   1     -49.265  27.300  34.200  0.00  0.00     0.090 A 
ATOM      5  S   UNL d   1     -49.720  27.300  34.887  0.00  0.00    -0.022 SA
ATOM      6  O   UNL d   1     -49.631  27.947  36.206  0.00  0.00    -0.259 OA
ATOM      7  O   UNL d   1     -48.009  27.962  33.790  0.00  0.00    -0.266 OA
ENDROOT
BRANCH   1   8
ATOM      8  C   UNL d   1     -48.140  28.615  35.454  0.00  0.00     0.149 C 
BRANCH   8   9
ATOM      9  C   UNL d   1     -48.135  29.416  35.250  0.00  0.00     0.297 C 
ATOM     10  N   UNL d   1     -47.468  29.871  35.408  0.00  0.00    -0.207 NA
ATOM     11  O   UNL d   1     -48.793  29.750  34.891  0.00  0.00    -0.264 OA
BRANCH  10  12
ATOM     12  C   UNL d   1     -47.462  30.676  35.203  0.00  0.00     0.085 A 
ATOM     13  C   UNL d   1     -47.838  30.922  34.507  0.00  0.00     0.022 A 
ATOM     14  C   UNL d   1     -47.830  31.718  34.308  0.00  0.00     0.044 A 
ATOM     15  C   UNL d   1     -47.453  32.273  34.793  0.00  0.00     0.196 A 
ATOM     16  C   UNL d   1     -47.080  32.018  35.488  0.00  0.00     0.044 A 
ATOM     17  O   UNL d   1     -47.450  33.070  34.587  0.00  0.00    -0.287 OA
ATOM     18  C   UNL d   1     -47.084  31.218  35.694  0.00  0.00     0.022 A 
ENDBRANCH  10  12
ENDBRANCH   8   9
ENDBRANCH   1   8
BRANCH   4  19
ATOM     19  C   UNL d   1     -49.420  26.887  33.510  0.00  0.00     0.011 C 
BRANCH  19  20
ATOM     20  C   UNL d   1     -50.074  26.391  33.465  0.00  0.00     0.001 C 
ATOM     21  C   UNL d   1     -50.838  26.697  33.574  0.00  0.00     0.000 C 
BRANCH  20  22
ATOM     22  C   UNL d   1     -49.981  25.586  33.312  0.00  0.00     0.000 C 
BRANCH  22  23
ATOM     23  C   UNL d   1     -50.630  25.081  33.313  0.00  0.00     0.000 A 
ATOM     24  C   UNL d   1     -51.402  25.399  33.306  0.00  0.00     0.000 A 
ATOM     25  C   UNL d   1     -52.050  24.900  33.307  0.00  0.00     0.000 A 
ATOM     26  C   UNL d   1     -51.935  24.081  33.316  0.00  0.00     0.000 A 
ATOM     27  C   UNL d   1     -51.175  23.766  33.323  0.00  0.00     0.000 A 
ATOM     28  C   UNL d   1     -50.529  24.269  33.322  0.00  0.00     0.000 A 
ENDBRANCH  22  23
ENDBRANCH  20  22
ENDBRANCH  19  20
ENDBRANCH   4  19
TORSDOF 7
ENDMDL
