MODEL 1
REMARK VINA RESULT:      23.3      0.000      0.000
REMARK  4 active torsions:
REMARK  status: ('A' for Active; 'I' for Inactive)
REMARK    1  A    between atoms: N_7  and  C_1 
REMARK    2  A    between atoms: C_12  and  N_4 
REMARK    3  A    between atoms: S_6  and  N_7 
REMARK    4  A    between atoms: C_11  and  S_6 
ROOT
ATOM      1  C   UNL d   1      46.123 -18.432  44.235  0.00  0.00     0.169 A 
ATOM      2  C   UNL d   1      46.226 -18.175  43.452  0.00  0.00     0.299 A 
ATOM      3  N   UNL d   1      46.248 -19.510  43.454  0.00  0.00    -0.238 N 
ATOM      4  N   UNL d   1      46.302 -18.828  42.975  0.00  0.00    -0.209 N 
ATOM      5  C   UNL d   1      46.134 -19.220  44.250  0.00  0.00     0.105 A 
ATOM      6  O   UNL d   1      46.247 -17.367  43.204  0.00  0.00    -0.263 OA
ATOM      7  C   UNL d   1      46.295 -20.289  43.204  0.00  0.00     0.120 C 
ATOM      8  C   UNL d   1      46.046 -19.698  44.951  0.00  0.00     0.022 C 
ENDROOT
BRANCH   1   9
ATOM      9  N   UNL d   1      46.019 -17.935  44.930  0.00  0.00    -0.152 NA
BRANCH   9  10
ATOM     10  S   UNL d   1      45.843 -17.134  44.856  0.00  0.00     0.285 S 
ATOM     11  O   UNL d   1      46.645 -16.964  44.782  0.00  0.00    -0.198 OA
ATOM     12  O   UNL d   1      45.010 -17.314  44.934  0.00  0.00    -0.198 OA
BRANCH  10  13
ATOM     13  C   UNL d   1      45.655 -16.337  44.783  0.00  0.00     0.105 A 
ATOM     14  C   UNL d   1      44.883 -16.071  44.937  0.00  0.00     0.013 A 
ATOM     15  C   UNL d   1      44.683 -15.264  44.866  0.00  0.00     0.001 A 
ATOM     16  C   UNL d   1      45.262 -14.738  44.641  0.00  0.00     0.000 A 
ATOM     17  C   UNL d   1      46.055 -15.002  44.481  0.00  0.00     0.001 A 
ATOM     18  C   UNL d   1      46.246 -15.778  44.551  0.00  0.00     0.013 A 
ENDBRANCH  10  13
ENDBRANCH   9  10
ENDBRANCH   1   9
BRANCH   4  19
ATOM     19  C   UNL d   1      46.414 -18.802  42.157  0.00  0.00     0.085 A 
ATOM     20  C   UNL d   1      46.440 -18.082  41.755  0.00  0.00     0.019 A 
ATOM     21  C   UNL d   1      46.552 -18.058  40.933  0.00  0.00     0.002 A 
ATOM     22  C   UNL d   1      46.639 -18.747  40.516  0.00  0.00     0.000 A 
ATOM     23  C   UNL d   1      46.613 -19.462  40.915  0.00  0.00     0.002 A 
ATOM     24  C   UNL d   1      46.502 -19.495  41.730  0.00  0.00     0.019 A 
ENDBRANCH   4  19
TORSDOF 4
ENDMDL
MODEL 2
REMARK VINA RESULT:      24.6      1.212      2.158
REMARK  4 active torsions:
REMARK  status: ('A' for Active; 'I' for Inactive)
REMARK    1  A    between atoms: N_7  and  C_1 
REMARK    2  A    between atoms: C_12  and  N_4 
REMARK    3  A    between atoms: S_6  and  N_7 
REMARK    4  A    between atoms: C_11  and  S_6 
ROOT
ATOM      1  C   UNL d   1      45.842 -16.834  44.237  0.00  0.00     0.169 A 
ATOM      2  C   UNL d   1      45.896 -17.662  44.275  0.00  0.00     0.299 A 
ATOM      3  N   UNL d   1      46.309 -17.276  43.065  0.00  0.00    -0.238 N 
ATOM      4  N   UNL d   1      46.180 -17.934  43.564  0.00  0.00    -0.209 N 
ATOM      5  C   UNL d   1      46.083 -16.593  43.527  0.00  0.00     0.105 A 
ATOM      6  O   UNL d   1      45.689 -18.133  44.945  0.00  0.00    -0.263 OA
ATOM      7  C   UNL d   1      46.593 -17.293  42.297  0.00  0.00     0.120 C 
ATOM      8  C   UNL d   1      46.111 -15.781  43.269  0.00  0.00     0.022 C 
ENDROOT
BRANCH   1   9
ATOM      9  N   UNL d   1      45.570 -16.307  44.862  0.00  0.00    -0.152 NA
BRANCH   9  10
ATOM     10  S   UNL d   1      45.538 -15.493  44.746  0.00  0.00     0.285 S 
ATOM     11  O   UNL d   1      46.333 -15.432  44.949  0.00  0.00    -0.198 OA
ATOM     12  O   UNL d   1      44.711 -15.559  44.536  0.00  0.00    -0.198 OA
BRANCH  10  13
ATOM     13  C   UNL d   1      45.494 -14.680  44.627  0.00  0.00     0.105 A 
ATOM     14  C   UNL d   1      44.871 -14.352  44.184  0.00  0.00     0.013 A 
ATOM     15  C   UNL d   1      44.819 -13.530  44.058  0.00  0.00     0.001 A 
ATOM     16  C   UNL d   1      45.392 -13.049  44.380  0.00  0.00     0.000 A 
ATOM     17  C   UNL d   1      46.033 -13.376  44.835  0.00  0.00     0.001 A 
ATOM     18  C   UNL d   1      46.082 -14.168  44.955  0.00  0.00     0.013 A 
ENDBRANCH  10  13
ENDBRANCH   9  10
ENDBRANCH   1   9
BRANCH   4  19
ATOM     19  C   UNL d   1      46.312 -18.729  43.383  0.00  0.00     0.085 A 
ATOM     20  C   UNL d   1      46.514 -19.270  43.973  0.00  0.00     0.019 A 
ATOM     21  C   UNL d   1      46.645 -20.069  43.789  0.00  0.00     0.002 A 
ATOM     22  C   UNL d   1      46.576 -20.325  43.024  0.00  0.00     0.000 A 
ATOM     23  C   UNL d   1      46.375 -19.787  42.438  0.00  0.00     0.002 A 
ATOM     24  C   UNL d   1      46.243 -18.994  42.612  0.00  0.00     0.019 A 
ENDBRANCH   4  19
TORSDOF 4
ENDMDL
