MODEL 1
REMARK VINA RESULT:     -10.9      0.000      0.000
REMARK  5 active torsions:
REMARK  status: ('A' for Active; 'I' for Inactive)
REMARK    1  A    between atoms: C_5  and  C_1 
REMARK    2  A    between atoms: O_8  and  C_2 
REMARK    3  A    between atoms: C_20  and  O_8 
REMARK    4  A    between atoms: C_11  and  O_14 
REMARK    5  A    between atoms: O_14  and  C_13 
ROOT
ATOM      1  C   UNL d   1      53.641  32.670  54.044  0.00  0.00     0.197 A 
ATOM      2  C   UNL d   1      53.193  32.790  53.360  0.00  0.00     0.165 A 
ATOM      3  O   UNL d   1      53.788  31.916  54.297  0.00  0.00    -0.301 OA
ATOM      4  C   UNL d   1      52.897  32.150  52.935  0.00  0.00     0.222 A 
ATOM      5  C   UNL d   1      53.497  31.271  53.880  0.00  0.00     0.105 A 
ATOM      6  C   UNL d   1      53.049  31.392  53.195  0.00  0.00     0.064 A 
ATOM      7  C   UNL d   1      53.647  30.504  54.138  0.00  0.00     0.050 A 
ATOM      8  C   UNL d   1      52.756  30.740  52.774  0.00  0.00     0.007 A 
ATOM      9  O   UNL d   1      52.454  32.270  52.256  0.00  0.00    -0.284 OA
ATOM     10  C   UNL d   1      53.361  29.870  53.727  0.00  0.00     0.105 A 
ATOM     11  C   UNL d   1      52.914  29.988  53.043  0.00  0.00     0.025 A 
ENDROOT
BRANCH   2  12
ATOM     12  O   UNL d   1      53.029  33.560  53.080  0.00  0.00    -0.302 OA
BRANCH  12  13
ATOM     13  C   UNL d   1      52.253  33.820  52.995  0.00  0.00     0.100 A 
ATOM     14  C   UNL d   1      51.725  33.765  53.620  0.00  0.00     0.025 A 
ATOM     15  C   UNL d   1      50.948  34.027  53.531  0.00  0.00     0.002 A 
ATOM     16  C   UNL d   1      50.700  34.346  52.809  0.00  0.00     0.000 A 
ATOM     17  C   UNL d   1      51.231  34.405  52.172  0.00  0.00     0.002 A 
ATOM     18  C   UNL d   1      52.009  34.141  52.264  0.00  0.00     0.025 A 
ENDBRANCH  12  13
ENDBRANCH   2  12
BRANCH   1  19
ATOM     19  C   UNL d   1      53.935  33.301  54.467  0.00  0.00     0.442 C 
ATOM     20  F   UNL d   1      54.285  33.938  54.837  0.00  0.00    -0.164 F 
ATOM     21  F   UNL d   1      53.559  33.588  55.213  0.00  0.00    -0.164 F 
ATOM     22  F   UNL d   1      54.562  33.628  54.171  0.00  0.00    -0.164 F 
ENDBRANCH   1  19
BRANCH  10  23
ATOM     23  O   UNL d   1      53.523  29.075  54.005  0.00  0.00    -0.273 OA
BRANCH  23  24
ATOM     24  C   UNL d   1      53.203  28.825  54.724  0.00  0.00     0.300 C 
ATOM     25  O   UNL d   1      52.376  28.918  54.877  0.00  0.00    -0.259 OA
ATOM     26  C   UNL d   1      53.689  28.487  55.285  0.00  0.00     0.074 C 
ENDBRANCH  23  24
ENDBRANCH  10  23
TORSDOF 5
ENDMDL
MODEL 2
REMARK VINA RESULT:     -10.4      1.974      4.277
REMARK  5 active torsions:
REMARK  status: ('A' for Active; 'I' for Inactive)
REMARK    1  A    between atoms: C_5  and  C_1 
REMARK    2  A    between atoms: O_8  and  C_2 
REMARK    3  A    between atoms: C_20  and  O_8 
REMARK    4  A    between atoms: C_11  and  O_14 
REMARK    5  A    between atoms: O_14  and  C_13 
ROOT
ATOM      1  C   UNL d   1      52.673  32.238  53.142  0.00  0.00     0.197 A 
ATOM      2  C   UNL d   1      53.168  32.888  53.266  0.00  0.00     0.165 A 
ATOM      3  O   UNL d   1      51.884  32.356  53.014  0.00  0.00    -0.301 OA
ATOM      4  C   UNL d   1      52.863  33.654  53.262  0.00  0.00     0.222 A 
ATOM      5  C   UNL d   1      51.570  33.116  53.008  0.00  0.00     0.105 A 
ATOM      6  C   UNL d   1      52.066  33.766  53.133  0.00  0.00     0.064 A 
ATOM      7  C   UNL d   1      50.766  33.236  52.878  0.00  0.00     0.050 A 
ATOM      8  C   UNL d   1      51.750  34.533  53.126  0.00  0.00     0.007 A 
ATOM      9  O   UNL d   1      53.355  34.297  53.385  0.00  0.00    -0.284 OA
ATOM     10  C   UNL d   1      50.460  33.983  52.872  0.00  0.00     0.105 A 
ATOM     11  C   UNL d   1      50.952  34.634  52.996  0.00  0.00     0.025 A 
ENDROOT
BRANCH   2  12
ATOM     12  O   UNL d   1      53.986  32.789  53.400  0.00  0.00    -0.302 OA
BRANCH  12  13
ATOM     13  C   UNL d   1      54.329  33.028  54.109  0.00  0.00     0.100 A 
ATOM     14  C   UNL d   1      54.008  32.794  54.826  0.00  0.00     0.025 A 
ATOM     15  C   UNL d   1      54.354  33.035  55.535  0.00  0.00     0.002 A 
ATOM     16  C   UNL d   1      55.028  33.514  55.523  0.00  0.00     0.000 A 
ATOM     17  C   UNL d   1      55.359  33.755  54.799  0.00  0.00     0.002 A 
ATOM     18  C   UNL d   1      55.010  33.511  54.090  0.00  0.00     0.025 A 
ENDBRANCH  12  13
ENDBRANCH   2  12
BRANCH   1  19
ATOM     19  C   UNL d   1      52.971  31.480  53.145  0.00  0.00     0.442 C 
ATOM     20  F   UNL d   1      53.293  30.734  53.077  0.00  0.00    -0.164 F 
ATOM     21  F   UNL d   1      52.899  30.946  53.846  0.00  0.00    -0.164 F 
ATOM     22  F   UNL d   1      53.318  31.263  52.497  0.00  0.00    -0.164 F 
ENDBRANCH   1  19
BRANCH  10  23
ATOM     23  O   UNL d   1      49.620  34.097  52.736  0.00  0.00    -0.273 OA
BRANCH  23  24
ATOM     24  C   UNL d   1      49.373  34.614  52.141  0.00  0.00     0.300 C 
ATOM     25  O   UNL d   1      49.535  34.437  51.329  0.00  0.00    -0.259 OA
ATOM     26  C   UNL d   1      48.974  35.296  52.340  0.00  0.00     0.074 C 
ENDBRANCH  23  24
ENDBRANCH  10  23
TORSDOF 5
ENDMDL
MODEL 3
REMARK VINA RESULT:      -9.9      1.157      3.984
REMARK  5 active torsions:
REMARK  status: ('A' for Active; 'I' for Inactive)
REMARK    1  A    between atoms: C_5  and  C_1 
REMARK    2  A    between atoms: O_8  and  C_2 
REMARK    3  A    between atoms: C_20  and  O_8 
REMARK    4  A    between atoms: C_11  and  O_14 
REMARK    5  A    between atoms: O_14  and  C_13 
ROOT
ATOM      1  C   UNL d   1      53.563  32.932  54.180  0.00  0.00     0.197 A 
ATOM      2  C   UNL d   1      53.488  32.325  53.624  0.00  0.00     0.165 A 
ATOM      3  O   UNL d   1      53.059  33.564  54.152  0.00  0.00    -0.301 OA
ATOM      4  C   UNL d   1      52.905  32.359  53.043  0.00  0.00     0.222 A 
ATOM      5  C   UNL d   1      52.474  33.606  53.576  0.00  0.00     0.105 A 
ATOM      6  C   UNL d   1      52.400  32.999  53.020  0.00  0.00     0.064 A 
ATOM      7  C   UNL d   1      51.961  34.250  53.547  0.00  0.00     0.050 A 
ATOM      8  C   UNL d   1      51.809  33.042  52.438  0.00  0.00     0.007 A 
ATOM      9  O   UNL d   1      52.831  31.757  52.492  0.00  0.00    -0.284 OA
ATOM     10  C   UNL d   1      51.387  34.291  52.981  0.00  0.00     0.105 A 
ATOM     11  C   UNL d   1      51.310  33.686  52.425  0.00  0.00     0.025 A 
ENDROOT
BRANCH   2  12
ATOM     12  O   UNL d   1      53.997  31.664  53.635  0.00  0.00    -0.302 OA
BRANCH  12  13
ATOM     13  C   UNL d   1      53.701  30.906  53.756  0.00  0.00     0.100 A 
ATOM     14  C   UNL d   1      53.365  30.701  54.475  0.00  0.00     0.025 A 
ATOM     15  C   UNL d   1      53.068  29.940  54.594  0.00  0.00     0.002 A 
ATOM     16  C   UNL d   1      53.111  29.382  53.985  0.00  0.00     0.000 A 
ATOM     17  C   UNL d   1      53.451  29.583  53.253  0.00  0.00     0.002 A 
ATOM     18  C   UNL d   1      53.747  30.347  53.137  0.00  0.00     0.025 A 
ENDBRANCH  12  13
ENDBRANCH   2  12
BRANCH   1  19
ATOM     19  C   UNL d   1      54.138  32.902  54.756  0.00  0.00     0.442 C 
ATOM     20  F   UNL d   1      54.764  32.891  55.278  0.00  0.00    -0.164 F 
ATOM     21  F   UNL d   1      53.957  32.701  55.597  0.00  0.00    -0.164 F 
ATOM     22  F   UNL d   1      54.849  33.061  54.515  0.00  0.00    -0.164 F 
ENDBRANCH   1  19
BRANCH  10  23
ATOM     23  O   UNL d   1      50.857  34.966  52.960  0.00  0.00    -0.273 OA
BRANCH  23  24
ATOM     24  C   UNL d   1      50.041  34.839  52.957  0.00  0.00     0.300 C 
ATOM     25  O   UNL d   1      49.619  34.765  53.687  0.00  0.00    -0.259 OA
ATOM     26  C   UNL d   1      49.644  34.786  52.247  0.00  0.00     0.074 C 
ENDBRANCH  23  24
ENDBRANCH  10  23
TORSDOF 5
ENDMDL
MODEL 4
REMARK VINA RESULT:      -9.7      1.590      2.114
REMARK  5 active torsions:
REMARK  status: ('A' for Active; 'I' for Inactive)
REMARK    1  A    between atoms: C_5  and  C_1 
REMARK    2  A    between atoms: O_8  and  C_2 
REMARK    3  A    between atoms: C_20  and  O_8 
REMARK    4  A    between atoms: C_11  and  O_14 
REMARK    5  A    between atoms: O_14  and  C_13 
ROOT
ATOM      1  C   UNL d   1      52.092  32.749  53.005  0.00  0.00     0.197 A 
ATOM      2  C   UNL d   1      52.841  33.083  53.109  0.00  0.00     0.165 A 
ATOM      3  O   UNL d   1      51.997  31.950  53.076  0.00  0.00    -0.301 OA
ATOM      4  C   UNL d   1      53.490  32.607  53.285  0.00  0.00     0.222 A 
ATOM      5  C   UNL d   1      52.639  31.467  53.250  0.00  0.00     0.105 A 
ATOM      6  C   UNL d   1      53.388  31.801  53.355  0.00  0.00     0.064 A 
ATOM      7  C   UNL d   1      52.543  30.652  53.323  0.00  0.00     0.050 A 
ATOM      8  C   UNL d   1      54.036  31.313  53.531  0.00  0.00     0.007 A 
ATOM      9  O   UNL d   1      54.232  32.938  53.388  0.00  0.00    -0.284 OA
ATOM     10  C   UNL d   1      53.174  30.179  53.494  0.00  0.00     0.105 A 
ATOM     11  C   UNL d   1      53.923  30.509  53.599  0.00  0.00     0.025 A 
ENDROOT
BRANCH   2  12
ATOM     12  O   UNL d   1      52.961  33.906  53.041  0.00  0.00    -0.302 OA
BRANCH  12  13
ATOM     13  C   UNL d   1      53.048  34.376  53.711  0.00  0.00     0.100 A 
ATOM     14  C   UNL d   1      53.240  34.039  54.433  0.00  0.00     0.025 A 
ATOM     15  C   UNL d   1      53.326  34.513  55.103  0.00  0.00     0.002 A 
ATOM     16  C   UNL d   1      53.219  35.332  55.045  0.00  0.00     0.000 A 
ATOM     17  C   UNL d   1      53.024  35.680  54.315  0.00  0.00     0.002 A 
ATOM     18  C   UNL d   1      52.938  35.202  53.646  0.00  0.00     0.025 A 
ENDBRANCH  12  13
ENDBRANCH   2  12
BRANCH   1  19
ATOM     19  C   UNL d   1      51.448  33.217  52.832  0.00  0.00     0.442 C 
ATOM     20  F   UNL d   1      50.773  33.662  52.726  0.00  0.00    -0.164 F 
ATOM     21  F   UNL d   1      51.388  33.685  52.085  0.00  0.00    -0.164 F 
ATOM     22  F   UNL d   1      50.895  33.221  53.364  0.00  0.00    -0.164 F 
ENDBRANCH   1  19
BRANCH  10  23
ATOM     23  O   UNL d   1      53.062  29.331  53.567  0.00  0.00    -0.273 OA
BRANCH  23  24
ATOM     24  C   UNL d   1      53.100  28.981  54.314  0.00  0.00     0.300 C 
ATOM     25  O   UNL d   1      52.473  29.098  54.871  0.00  0.00    -0.259 OA
ATOM     26  C   UNL d   1      53.744  28.523  54.512  0.00  0.00     0.074 C 
ENDBRANCH  23  24
ENDBRANCH  10  23
TORSDOF 5
ENDMDL
MODEL 5
REMARK VINA RESULT:      -8.5      2.119      4.443
REMARK  5 active torsions:
REMARK  status: ('A' for Active; 'I' for Inactive)
REMARK    1  A    between atoms: C_5  and  C_1 
REMARK    2  A    between atoms: O_8  and  C_2 
REMARK    3  A    between atoms: C_20  and  O_8 
REMARK    4  A    between atoms: C_11  and  O_14 
REMARK    5  A    between atoms: O_14  and  C_13 
ROOT
ATOM      1  C   UNL d   1      52.391  34.937  53.697  0.00  0.00     0.197 A 
ATOM      2  C   UNL d   1      52.684  34.268  53.310  0.00  0.00     0.165 A 
ATOM      3  O   UNL d   1      51.611  35.133  53.620  0.00  0.00    -0.301 OA
ATOM      4  C   UNL d   1      52.188  33.801  52.847  0.00  0.00     0.222 A 
ATOM      5  C   UNL d   1      51.108  34.674  53.160  0.00  0.00     0.105 A 
ATOM      6  C   UNL d   1      51.402  34.004  52.773  0.00  0.00     0.064 A 
ATOM      7  C   UNL d   1      50.313  34.874  53.081  0.00  0.00     0.050 A 
ATOM      8  C   UNL d   1      50.894  33.540  52.309  0.00  0.00     0.007 A 
ATOM      9  O   UNL d   1      52.479  33.138  52.464  0.00  0.00    -0.284 OA
ATOM     10  C   UNL d   1      49.820  34.422  52.629  0.00  0.00     0.105 A 
ATOM     11  C   UNL d   1      50.110  33.753  52.242  0.00  0.00     0.025 A 
ENDROOT
BRANCH   2  12
ATOM     12  O   UNL d   1      53.486  34.047  53.376  0.00  0.00    -0.302 OA
BRANCH  12  13
ATOM     13  C   UNL d   1      53.700  33.343  53.744  0.00  0.00     0.100 A 
ATOM     14  C   UNL d   1      53.549  33.227  54.542  0.00  0.00     0.025 A 
ATOM     15  C   UNL d   1      53.764  32.520  54.908  0.00  0.00     0.002 A 
ATOM     16  C   UNL d   1      54.134  31.925  54.469  0.00  0.00     0.000 A 
ATOM     17  C   UNL d   1      54.291  32.035  53.660  0.00  0.00     0.002 A 
ATOM     18  C   UNL d   1      54.074  32.745  53.296  0.00  0.00     0.025 A 
ENDBRANCH  12  13
ENDBRANCH   2  12
BRANCH   1  19
ATOM     19  C   UNL d   1      52.879  35.401  54.155  0.00  0.00     0.442 C 
ATOM     20  F   UNL d   1      53.398  35.891  54.549  0.00  0.00    -0.164 F 
ATOM     21  F   UNL d   1      52.840  35.402  55.038  0.00  0.00    -0.164 F 
ATOM     22  F   UNL d   1      53.375  35.837  53.766  0.00  0.00    -0.164 F 
ENDBRANCH   1  19
BRANCH  10  23
ATOM     23  O   UNL d   1      48.993  34.639  52.554  0.00  0.00    -0.273 OA
BRANCH  23  24
ATOM     24  C   UNL d   1      48.733  35.006  51.861  0.00  0.00     0.300 C 
ATOM     25  O   UNL d   1      48.855  34.632  51.111  0.00  0.00    -0.259 OA
ATOM     26  C   UNL d   1      48.359  35.729  51.903  0.00  0.00     0.074 C 
ENDBRANCH  23  24
ENDBRANCH  10  23
TORSDOF 5
ENDMDL
