MODEL 1
REMARK VINA RESULT:      29.6      0.000      0.000
REMARK  2 active torsions:
REMARK  status: ('A' for Active; 'I' for Inactive)
REMARK    1  A    between atoms: S_12  and  C_3 
REMARK    2  A    between atoms: C_14  and  S_12 
ROOT
ATOM      1  N   UNL d   1      44.971 -15.606  43.838  0.00  0.00    -0.195 NA
ATOM      2  C   UNL d   1      45.125 -16.354  43.529  0.00  0.00     0.086 C 
ATOM      3  C   UNL d   1      45.266 -17.105  43.218  0.00  0.00     0.170 C 
ENDROOT
BRANCH   3   4
ATOM      4  S   UNL d   1      46.043 -17.337  43.066  0.00  0.00    -0.060 SA
BRANCH   4   5
ATOM      5  C   UNL d   1      46.194 -17.938  42.516  0.00  0.00     0.177 A 
ATOM      6  N   UNL d   1      46.347 -18.705  42.779  0.00  0.00    -0.270 N 
ATOM      7  C   UNL d   1      46.498 -19.311  42.242  0.00  0.00     0.151 A 
ATOM      8  C   UNL d   1      46.388 -19.037  43.538  0.00  0.00     0.085 A 
ATOM      9  N   UNL d   1      46.630 -20.007  42.656  0.00  0.00    -0.227 NA
ATOM     10  C   UNL d   1      46.493 -19.136  41.433  0.00  0.00     0.052 A 
ATOM     11  C   UNL d   1      46.563 -19.840  43.460  0.00  0.00     0.099 A 
ATOM     12  C   UNL d   1      46.636 -20.310  44.130  0.00  0.00     0.021 A 
ATOM     13  C   UNL d   1      46.535 -19.977  44.876  0.00  0.00     0.002 A 
ATOM     14  C   UNL d   1      46.361 -19.175  44.955  0.00  0.00     0.002 A 
ATOM     15  C   UNL d   1      46.288 -18.707  44.284  0.00  0.00     0.019 A 
ATOM     16  C   UNL d   1      46.643 -19.737  40.889  0.00  0.00     0.004 A 
ATOM     17  C   UNL d   1      46.340 -18.369  41.170  0.00  0.00     0.086 A 
ATOM     18  C   UNL d   1      46.640 -19.571  40.078  0.00  0.00     0.000 A 
ATOM     19  C   UNL d   1      46.487 -18.804  39.815  0.00  0.00     0.002 A 
ATOM     20  C   UNL d   1      46.337 -18.203  40.364  0.00  0.00     0.019 A 
ATOM     21  N   UNL d   1      46.190 -17.770  41.715  0.00  0.00    -0.222 NA
ENDBRANCH   4   5
ENDBRANCH   3   4
TORSDOF 2
ENDMDL
