MODEL 1
REMARK VINA RESULT:      17.7      0.000      0.000
REMARK  5 active torsions:
REMARK  status: ('A' for Active; 'I' for Inactive)
REMARK    1  A    between atoms: N_5  and  C_1 
REMARK    2  A    between atoms: C_9  and  C_2 
REMARK       I    between atoms: C_6  and  N_5 
REMARK    3  A    between atoms: C_8  and  C_6 
REMARK    4  A    between atoms: O_14  and  C_9 
REMARK    5  A    between atoms: C_16  and  O_14 
ROOT
ATOM      1  C   UNL d   1     -55.278-102.735 -38.316  0.00  0.00     0.114 A 
ATOM      2  C   UNL d   1     -55.211-102.491 -39.630  0.00  0.00     0.094 A 
ATOM      3  S   UNL d   1     -54.785-102.499 -38.939  0.00  0.00    -0.062 SA
ATOM      4  C   UNL d   1     -55.996-102.731 -39.416  0.00  0.00     0.013 A 
ATOM      5  C   UNL d   1     -56.022-102.872 -38.640  0.00  0.00     0.027 A 
ATOM      6  C   UNL d   1     -56.641-102.808 -39.938  0.00  0.00     0.001 C 
ENDROOT
BRANCH   1   7
ATOM      7  N   UNL d   1     -55.064-102.824 -37.483  0.00  0.00    -0.201 NA
ATOM      8  C   UNL d   1     -55.119-102.175 -36.977  0.00  0.00     0.280 C 
ATOM      9  O   UNL d   1     -55.374-101.441 -37.256  0.00  0.00    -0.265 OA
BRANCH   8  10
ATOM     10  C   UNL d   1     -54.916-102.259 -36.185  0.00  0.00     0.058 A 
ATOM     11  C   UNL d   1     -54.742-102.714 -35.519  0.00  0.00     0.005 A 
ATOM     12  C   UNL d   1     -54.713-101.953 -35.380  0.00  0.00     0.005 A 
ENDBRANCH   8  10
ENDBRANCH   1   7
BRANCH   2  13
ATOM     13  C   UNL d   1     -54.938-102.287 -40.398  0.00  0.00     0.306 C 
ATOM     14  O   UNL d   1     -54.900-102.879 -40.967  0.00  0.00    -0.258 OA
BRANCH  13  15
ATOM     15  O   UNL d   1     -54.712-101.518 -40.587  0.00  0.00    -0.271 OA
BRANCH  15  16
ATOM     16  C   UNL d   1     -54.848-101.214 -41.344  0.00  0.00     0.126 C 
ATOM     17  C   UNL d   1     -54.723-101.707 -42.004  0.00  0.00     0.029 C 
ENDBRANCH  15  16
ENDBRANCH  13  15
ENDBRANCH   2  13
TORSDOF 5
ENDMDL
MODEL 2
REMARK VINA RESULT:      20.5      5.218      6.961
REMARK  5 active torsions:
REMARK  status: ('A' for Active; 'I' for Inactive)
REMARK    1  A    between atoms: N_5  and  C_1 
REMARK    2  A    between atoms: C_9  and  C_2 
REMARK       I    between atoms: C_6  and  N_5 
REMARK    3  A    between atoms: C_8  and  C_6 
REMARK    4  A    between atoms: O_14  and  C_9 
REMARK    5  A    between atoms: C_16  and  O_14 
ROOT
ATOM      1  C   UNL d   1     -56.560 -99.172 -44.394  0.00  0.00     0.114 A 
ATOM      2  C   UNL d   1     -55.505 -99.968 -44.609  0.00  0.00     0.094 A 
ATOM      3  S   UNL d   1     -56.234 -99.922 -44.254  0.00  0.00    -0.062 SA
ATOM      4  C   UNL d   1     -55.384 -99.214 -44.980  0.00  0.00     0.013 A 
ATOM      5  C   UNL d   1     -56.012 -98.756 -44.845  0.00  0.00     0.027 A 
ATOM      6  C   UNL d   1     -54.712 -98.989 -45.417  0.00  0.00     0.001 C 
ENDROOT
BRANCH   1   7
ATOM      7  N   UNL d   1     -57.325 -98.874 -44.123  0.00  0.00    -0.201 NA
ATOM      8  C   UNL d   1     -58.010 -99.303 -44.286  0.00  0.00     0.280 C 
ATOM      9  O   UNL d   1     -57.975-100.014 -44.703  0.00  0.00    -0.265 OA
BRANCH   8  10
ATOM     10  C   UNL d   1     -58.737 -99.020 -44.029  0.00  0.00     0.058 A 
ATOM     11  C   UNL d   1     -59.508 -98.757 -44.162  0.00  0.00     0.005 A 
ATOM     12  C   UNL d   1     -59.314 -98.756 -43.412  0.00  0.00     0.005 A 
ENDBRANCH   8  10
ENDBRANCH   1   7
BRANCH   2  13
ATOM     13  C   UNL d   1     -54.978-100.621 -44.612  0.00  0.00     0.306 C 
ATOM     14  O   UNL d   1     -54.717-100.908 -45.337  0.00  0.00    -0.258 OA
BRANCH  13  15
ATOM     15  O   UNL d   1     -54.722-100.975 -43.913  0.00  0.00    -0.271 OA
BRANCH  15  16
ATOM     16  C   UNL d   1     -54.872-101.775 -43.767  0.00  0.00     0.126 C 
ATOM     17  C   UNL d   1     -54.757-102.071 -42.996  0.00  0.00     0.029 C 
ENDBRANCH  15  16
ENDBRANCH  13  15
ENDBRANCH   2  13
TORSDOF 5
ENDMDL
