MODEL 1
REMARK VINA RESULT:      -2.1      0.000      0.000
REMARK  3 active torsions:
REMARK  status: ('A' for Active; 'I' for Inactive)
REMARK    1  A    between atoms: N_9  and  C_7 
REMARK       I    between atoms: C_10  and  N_9 
REMARK    2  A    between atoms: C_13  and  C_10 
REMARK    3  A    between atoms: O_23  and  C_18 
ROOT
ATOM      1  C   UNL d   1      33.115  20.453 -23.470  0.00  0.00     0.081 A 
ATOM      2  C   UNL d   1      33.072  20.055 -24.184  0.00  0.00     0.301 A 
ATOM      3  C   UNL d   1      33.166  20.048 -22.756  0.00  0.00     0.090 A 
ATOM      4  O   UNL d   1      33.081  19.223 -24.187  0.00  0.00    -0.273 OA
ATOM      5  N   UNL d   1      33.208  20.460 -22.040  0.00  0.00    -0.226 NA
ATOM      6  C   UNL d   1      33.174  19.222 -22.762  0.00  0.00     0.041 A 
ATOM      7  C   UNL d   1      33.198  21.292 -22.047  0.00  0.00     0.166 A 
ATOM      8  C   UNL d   1      33.106  21.283 -23.469  0.00  0.00     0.010 A 
ATOM      9  C   UNL d   1      33.132  18.806 -23.477  0.00  0.00     0.105 A 
ATOM     10  C   UNL d   1      33.148  21.703 -22.758  0.00  0.00     0.039 A 
ATOM     11  O   UNL d   1      33.021  20.468 -24.901  0.00  0.00    -0.259 OA
ATOM     12  C   UNL d   1      33.225  18.807 -22.048  0.00  0.00     0.004 A 
ATOM     13  C   UNL d   1      33.055  21.686 -24.187  0.00  0.00     0.000 C 
ATOM     14  C   UNL d   1      33.140  17.990 -23.484  0.00  0.00     0.025 A 
ATOM     15  C   UNL d   1      33.233  17.984 -22.061  0.00  0.00     0.000 A 
ATOM     16  C   UNL d   1      33.191  17.575 -22.779  0.00  0.00     0.002 A 
ENDROOT
BRANCH   7  17
ATOM     17  N   UNL d   1      33.241  21.712 -21.325  0.00  0.00    -0.189 NA
ATOM     18  C   UNL d   1      32.556  22.028 -20.996  0.00  0.00     0.281 C 
ATOM     19  O   UNL d   1      31.825  21.929 -21.381  0.00  0.00    -0.265 OA
BRANCH  18  20
ATOM     20  C   UNL d   1      32.593  22.438 -20.294  0.00  0.00     0.058 A 
ATOM     21  C   UNL d   1      32.819  22.048 -19.591  0.00  0.00     0.007 A 
ATOM     22  C   UNL d   1      32.858  22.464 -18.877  0.00  0.00     0.024 A 
ATOM     23  C   UNL d   1      32.664  23.271 -18.885  0.00  0.00     0.094 A 
ATOM     24  C   UNL d   1      32.442  23.656 -19.574  0.00  0.00     0.024 A 
ATOM     25  C   UNL d   1      32.408  23.233 -20.275  0.00  0.00     0.007 A 
BRANCH  23  26
ATOM     26  O   UNL d   1      32.699  23.702 -18.170  0.00  0.00    -0.328 OA
ATOM     27  C   UNL d   1      32.797  23.321 -17.443  0.00  0.00     0.181 C 
ENDBRANCH  23  26
ENDBRANCH  18  20
ENDBRANCH   7  17
TORSDOF 3
ENDMDL
MODEL 2
REMARK VINA RESULT:      -2.0      1.281      4.960
REMARK  3 active torsions:
REMARK  status: ('A' for Active; 'I' for Inactive)
REMARK    1  A    between atoms: N_9  and  C_7 
REMARK       I    between atoms: C_10  and  N_9 
REMARK    2  A    between atoms: C_13  and  C_10 
REMARK    3  A    between atoms: O_23  and  C_18 
ROOT
ATOM      1  C   UNL d   1      33.211  22.035 -22.610  0.00  0.00     0.081 A 
ATOM      2  C   UNL d   1      33.204  22.846 -22.494  0.00  0.00     0.301 A 
ATOM      3  C   UNL d   1      33.201  21.511 -21.977  0.00  0.00     0.090 A 
ATOM      4  O   UNL d   1      33.185  23.144 -21.717  0.00  0.00    -0.273 OA
ATOM      5  N   UNL d   1      33.209  20.694 -22.106  0.00  0.00    -0.226 NA
ATOM      6  C   UNL d   1      33.183  21.810 -21.208  0.00  0.00     0.041 A 
ATOM      7  C   UNL d   1      33.228  20.404 -22.886  0.00  0.00     0.166 A 
ATOM      8  C   UNL d   1      33.230  21.740 -23.386  0.00  0.00     0.010 A 
ATOM      9  C   UNL d   1      33.175  22.627 -21.074  0.00  0.00     0.105 A 
ATOM     10  C   UNL d   1      33.238  20.924 -23.525  0.00  0.00     0.039 A 
ATOM     11  O   UNL d   1      33.214  23.371 -23.135  0.00  0.00    -0.259 OA
ATOM     12  C   UNL d   1      33.172  21.289 -20.565  0.00  0.00     0.004 A 
ATOM     13  C   UNL d   1      33.240  22.268 -24.019  0.00  0.00     0.000 C 
ATOM     14  C   UNL d   1      33.156  22.924 -20.314  0.00  0.00     0.025 A 
ATOM     15  C   UNL d   1      33.154  21.594 -19.800  0.00  0.00     0.000 A 
ATOM     16  C   UNL d   1      33.146  22.412 -19.675  0.00  0.00     0.002 A 
ENDROOT
BRANCH   7  17
ATOM     17  N   UNL d   1      33.236  19.579 -23.021  0.00  0.00    -0.189 NA
ATOM     18  C   UNL d   1      32.532  19.186 -23.188  0.00  0.00     0.281 C 
ATOM     19  O   UNL d   1      31.817  19.610 -23.222  0.00  0.00    -0.265 OA
BRANCH  18  20
ATOM     20  C   UNL d   1      32.536  18.383 -23.320  0.00  0.00     0.058 A 
ATOM     21  C   UNL d   1      33.010  17.882 -22.851  0.00  0.00     0.007 A 
ATOM     22  C   UNL d   1      33.015  17.066 -22.985  0.00  0.00     0.024 A 
ATOM     23  C   UNL d   1      32.536  16.768 -23.594  0.00  0.00     0.094 A 
ATOM     24  C   UNL d   1      32.069  17.259 -24.056  0.00  0.00     0.024 A 
ATOM     25  C   UNL d   1      32.073  18.065 -23.914  0.00  0.00     0.007 A 
BRANCH  23  26
ATOM     26  O   UNL d   1      32.532  15.945 -23.739  0.00  0.00    -0.328 OA
ATOM     27  C   UNL d   1      33.235  15.523 -23.842  0.00  0.00     0.181 C 
ENDBRANCH  23  26
ENDBRANCH  18  20
ENDBRANCH   7  17
TORSDOF 3
ENDMDL
MODEL 3
REMARK VINA RESULT:       0.2      1.562      5.427
REMARK  3 active torsions:
REMARK  status: ('A' for Active; 'I' for Inactive)
REMARK    1  A    between atoms: N_9  and  C_7 
REMARK       I    between atoms: C_10  and  N_9 
REMARK    2  A    between atoms: C_13  and  C_10 
REMARK    3  A    between atoms: O_23  and  C_18 
ROOT
ATOM      1  C   UNL d   1      32.997  21.044 -20.662  0.00  0.00     0.081 A 
ATOM      2  C   UNL d   1      32.921  21.553 -20.025  0.00  0.00     0.301 A 
ATOM      3  C   UNL d   1      32.916  21.311 -21.436  0.00  0.00     0.090 A 
ATOM      4  O   UNL d   1      32.758  22.357 -20.165  0.00  0.00    -0.273 OA
ATOM      5  N   UNL d   1      32.995  20.787 -22.072  0.00  0.00    -0.226 NA
ATOM      6  C   UNL d   1      32.755  22.109 -21.571  0.00  0.00     0.041 A 
ATOM      7  C   UNL d   1      33.158  19.985 -21.923  0.00  0.00     0.166 A 
ATOM      8  C   UNL d   1      33.160  20.242 -20.520  0.00  0.00     0.010 A 
ATOM      9  C   UNL d   1      32.675  22.636 -20.937  0.00  0.00     0.105 A 
ATOM     10  C   UNL d   1      33.241  19.712 -21.150  0.00  0.00     0.039 A 
ATOM     11  O   UNL d   1      33.004  21.280 -19.247  0.00  0.00    -0.259 OA
ATOM     12  C   UNL d   1      32.672  22.385 -22.346  0.00  0.00     0.004 A 
ATOM     13  C   UNL d   1      33.241  19.978 -19.743  0.00  0.00     0.000 C 
ATOM     14  C   UNL d   1      32.515  23.425 -21.070  0.00  0.00     0.025 A 
ATOM     15  C   UNL d   1      32.510  23.182 -22.475  0.00  0.00     0.000 A 
ATOM     16  C   UNL d   1      32.432  23.702 -21.836  0.00  0.00     0.002 A 
ENDROOT
BRANCH   7  17
ATOM     17  N   UNL d   1      33.239  19.453 -22.563  0.00  0.00    -0.189 NA
ATOM     18  C   UNL d   1      32.802  18.756 -22.571  0.00  0.00     0.281 C 
ATOM     19  O   UNL d   1      32.283  18.582 -21.945  0.00  0.00    -0.265 OA
BRANCH  18  20
ATOM     20  C   UNL d   1      32.878  18.235 -23.193  0.00  0.00     0.058 A 
ATOM     21  C   UNL d   1      33.010  17.424 -23.048  0.00  0.00     0.007 A 
ATOM     22  C   UNL d   1      33.087  16.895 -23.679  0.00  0.00     0.024 A 
ATOM     23  C   UNL d   1      33.029  17.197 -24.450  0.00  0.00     0.094 A 
ATOM     24  C   UNL d   1      32.899  17.993 -24.594  0.00  0.00     0.024 A 
ATOM     25  C   UNL d   1      32.824  18.508 -23.961  0.00  0.00     0.007 A 
BRANCH  23  26
ATOM     26  O   UNL d   1      33.105  16.672 -25.097  0.00  0.00    -0.328 OA
ATOM     27  C   UNL d   1      32.797  15.905 -25.066  0.00  0.00     0.181 C 
ENDBRANCH  23  26
ENDBRANCH  18  20
ENDBRANCH   7  17
TORSDOF 3
ENDMDL
MODEL 4
REMARK VINA RESULT:       0.6      1.413      2.265
REMARK  3 active torsions:
REMARK  status: ('A' for Active; 'I' for Inactive)
REMARK    1  A    between atoms: N_9  and  C_7 
REMARK       I    between atoms: C_10  and  N_9 
REMARK    2  A    between atoms: C_13  and  C_10 
REMARK    3  A    between atoms: O_23  and  C_18 
ROOT
ATOM      1  C   UNL d   1      32.386  18.099 -23.793  0.00  0.00     0.081 A 
ATOM      2  C   UNL d   1      32.178  17.547 -24.361  0.00  0.00     0.301 A 
ATOM      3  C   UNL d   1      32.703  17.870 -23.069  0.00  0.00     0.090 A 
ATOM      4  O   UNL d   1      32.290  16.738 -24.202  0.00  0.00    -0.273 OA
ATOM      5  N   UNL d   1      32.910  18.436 -22.502  0.00  0.00    -0.226 NA
ATOM      6  C   UNL d   1      32.813  17.066 -22.915  0.00  0.00     0.041 A 
ATOM      7  C   UNL d   1      32.794  19.243 -22.669  0.00  0.00     0.166 A 
ATOM      8  C   UNL d   1      32.273  18.906 -23.953  0.00  0.00     0.010 A 
ATOM      9  C   UNL d   1      32.607  16.497 -23.480  0.00  0.00     0.105 A 
ATOM     10  C   UNL d   1      32.477  19.478 -23.392  0.00  0.00     0.039 A 
ATOM     11  O   UNL d   1      31.859  17.783 -25.089  0.00  0.00    -0.259 OA
ATOM     12  C   UNL d   1      33.131  16.828 -22.189  0.00  0.00     0.004 A 
ATOM     13  C   UNL d   1      31.955  19.132 -24.680  0.00  0.00     0.000 C 
ATOM     14  C   UNL d   1      32.715  15.703 -23.328  0.00  0.00     0.025 A 
ATOM     15  C   UNL d   1      33.238  16.026 -22.041  0.00  0.00     0.000 A 
ATOM     16  C   UNL d   1      33.030  15.462 -22.611  0.00  0.00     0.002 A 
ENDROOT
BRANCH   7  17
ATOM     17  N   UNL d   1      33.002  19.818 -22.099  0.00  0.00    -0.189 NA
ATOM     18  C   UNL d   1      32.430  20.340 -21.819  0.00  0.00     0.281 C 
ATOM     19  O   UNL d   1      31.650  20.294 -22.103  0.00  0.00    -0.265 OA
BRANCH  18  20
ATOM     20  C   UNL d   1      32.629  20.901 -21.263  0.00  0.00     0.058 A 
ATOM     21  C   UNL d   1      32.562  21.713 -21.443  0.00  0.00     0.007 A 
ATOM     22  C   UNL d   1      32.763  22.283 -20.880  0.00  0.00     0.024 A 
ATOM     23  C   UNL d   1      33.030  22.021 -20.138  0.00  0.00     0.094 A 
ATOM     24  C   UNL d   1      33.096  21.224 -19.960  0.00  0.00     0.024 A 
ATOM     25  C   UNL d   1      32.894  20.668 -20.526  0.00  0.00     0.007 A 
BRANCH  23  26
ATOM     26  O   UNL d   1      33.237  22.589 -19.560  0.00  0.00    -0.328 OA
ATOM     27  C   UNL d   1      33.088  23.394 -19.675  0.00  0.00     0.181 C 
ENDBRANCH  23  26
ENDBRANCH  18  20
ENDBRANCH   7  17
TORSDOF 3
ENDMDL
