MODEL 1
REMARK VINA RESULT:      36.0      0.000      0.000
REMARK  3 active torsions:
REMARK  status: ('A' for Active; 'I' for Inactive)
REMARK    1  A    between atoms: C_10  and  C_2 
REMARK    2  A    between atoms: C_13  and  C_6 
REMARK    3  A    between atoms: O_17  and  C_10 
ROOT
ATOM      1  C   UNL d   1      14.007  13.083  -2.611  0.00  0.00     0.081 A 
ATOM      2  C   UNL d   1      14.640  14.110  -1.859  0.00  0.00     0.106 A 
ATOM      3  C   UNL d   1      14.543  14.634  -2.495  0.00  0.00     0.208 A 
ATOM      4  C   UNL d   1      13.910  13.599  -3.240  0.00  0.00     0.108 A 
ATOM      5  C   UNL d   1      13.734  12.296  -2.671  0.00  0.00     0.281 A 
ATOM      6  C   UNL d   1      14.370  13.335  -1.922  0.00  0.00     0.015 A 
ATOM      7  O   UNL d   1      14.178  14.374  -3.182  0.00  0.00    -0.288 OA
ATOM      8  N   UNL d   1      13.366  12.037  -3.365  0.00  0.00    -0.208 NA
ATOM      9  C   UNL d   1      13.543  13.340  -3.934  0.00  0.00     0.044 A 
ATOM     10  C   UNL d   1      13.272  12.566  -4.000  0.00  0.00     0.087 A 
ATOM     11  O   UNL d   1      13.833  11.779  -2.034  0.00  0.00    -0.265 OA
ATOM     12  N   UNL d   1      14.816  15.408  -2.425  0.00  0.00    -0.121 N 
ATOM     13  C   UNL d   1      12.907  12.306  -4.687  0.00  0.00     0.021 C 
ENDROOT
BRANCH   6  14
ATOM     14  C   UNL d   1      14.468  12.815  -1.285  0.00  0.00     0.004 A 
ATOM     15  C   UNL d   1      13.817  12.637  -0.801  0.00  0.00     0.021 A 
ATOM     16  C   UNL d   1      13.912  12.120  -0.166  0.00  0.00     0.099 A 
ATOM     17  N   UNL d   1      14.653  11.780  -0.014  0.00  0.00    -0.242 NA
ATOM     18  C   UNL d   1      15.303  11.963  -0.506  0.00  0.00     0.099 A 
ATOM     19  C   UNL d   1      15.203  12.482  -1.140  0.00  0.00     0.021 A 
ENDBRANCH   6  14
BRANCH   2  20
ATOM     20  C   UNL d   1      15.006  14.365  -1.166  0.00  0.00     0.299 C 
ATOM     21  O   UNL d   1      15.762  14.099  -0.968  0.00  0.00    -0.259 OA
BRANCH  20  22
ATOM     22  O   UNL d   1      14.609  14.897  -0.659  0.00  0.00    -0.296 OA
ATOM     23  C   UNL d   1      15.028  15.265  -0.057  0.00  0.00     0.185 C 
ENDBRANCH  20  22
ENDBRANCH   2  20
TORSDOF 3
ENDMDL
