MODEL 1
REMARK VINA RESULT:       0.4      0.000      0.000
REMARK  4 active torsions:
REMARK  status: ('A' for Active; 'I' for Inactive)
REMARK    1  A    between atoms: C_3  and  C_14 
REMARK    2  A    between atoms: C_21  and  C_4 
REMARK    3  A    between atoms: S_15  and  C_5 
REMARK    4  A    between atoms: C_14  and  S_15 
ROOT
ATOM      1  C   UNL d   1     -41.371-121.728 -51.521  0.00  0.00     0.092 A 
ATOM      2  C   UNL d   1     -41.418-121.956 -52.926  0.00  0.00     0.057 A 
ATOM      3  C   UNL d   1     -41.356-121.436 -52.292  0.00  0.00     0.016 A 
ATOM      4  C   UNL d   1     -41.447-122.539 -51.389  0.00  0.00     0.120 A 
ATOM      5  N   UNL d   1     -41.509-123.059 -52.014  0.00  0.00    -0.239 NA
ATOM      6  C   UNL d   1     -41.495-122.768 -52.792  0.00  0.00     0.081 A 
ATOM      7  C   UNL d   1     -41.404-121.664 -53.700  0.00  0.00     0.193 A 
ATOM      8  C   UNL d   1     -41.308-121.208 -50.884  0.00  0.00     0.103 C 
ATOM      9  N   UNL d   1     -41.246-120.688 -50.246  0.00  0.00    -0.191 NA
ATOM     10  C   UNL d   1     -41.544-123.004 -54.204  0.00  0.00     0.042 A 
ATOM     11  C   UNL d   1     -41.466-122.184 -54.346  0.00  0.00     0.019 A 
ATOM     12  C   UNL d   1     -41.558-123.299 -53.430  0.00  0.00    -0.003 A 
ATOM     13  O   UNL d   1     -41.327-120.852 -53.833  0.00  0.00    -0.287 OA
ATOM     14  C   UNL d   1     -41.625-123.816 -54.295  0.00  0.00     0.009 C 
ATOM     15  C   UNL d   1     -41.529-122.704 -54.975  0.00  0.00     0.009 C 
ENDROOT
BRANCH   3  16
ATOM     16  C   UNL d   1     -41.280-120.624 -52.425  0.00  0.00     0.001 C 
ATOM     17  C   UNL d   1     -41.125-120.127 -51.792  0.00  0.00     0.000 C 
ENDBRANCH   3  16
BRANCH   4  18
ATOM     18  S   UNL d   1     -41.461-122.827 -50.614  0.00  0.00    -0.067 SA
BRANCH  18  19
ATOM     19  C   UNL d   1     -41.953-123.461 -50.424  0.00  0.00     0.041 C 
BRANCH  19  20
ATOM     20  C   UNL d   1     -42.188-123.583 -49.643  0.00  0.00     0.051 A 
ATOM     21  C   UNL d   1     -41.776-123.616 -49.023  0.00  0.00     0.127 A 
ATOM     22  O   UNL d   1     -42.167-123.743 -48.331  0.00  0.00    -0.211 OA
ATOM     23  C   UNL d   1     -41.126-123.592 -48.650  0.00  0.00     0.029 C 
ATOM     24  N   UNL d   1     -42.941-123.796 -48.580  0.00  0.00    -0.126 NA
ATOM     25  C   UNL d   1     -42.960-123.698 -49.389  0.00  0.00     0.111 A 
ATOM     26  C   UNL d   1     -43.626-123.711 -49.866  0.00  0.00     0.023 C 
ENDBRANCH  19  20
ENDBRANCH  18  19
ENDBRANCH   4  18
TORSDOF 4
ENDMDL
