MODEL 1
REMARK VINA RESULT:      -5.7      0.000      0.000
REMARK  3 active torsions:
REMARK  status: ('A' for Active; 'I' for Inactive)
REMARK    1  A    between atoms: N_7  and  S_1 
REMARK    2  A    between atoms: C_3  and  C_8 
REMARK    3  A    between atoms: C_13  and  N_7 
ROOT
ATOM      1  C   UNL d   1     -41.520-122.964 -51.634  0.00  0.00     0.018 A 
ATOM      2  C   UNL d   1     -41.604-122.224 -51.974  0.00  0.00     0.003 A 
ATOM      3  C   UNL d   1     -41.301-123.611 -52.099  0.00  0.00     0.003 A 
ATOM      4  C   UNL d   1     -41.256-122.752 -53.246  0.00  0.00     0.093 A 
ATOM      5  C   UNL d   1     -41.473-122.116 -52.779  0.00  0.00     0.020 A 
ATOM      6  C   UNL d   1     -41.170-123.507 -52.902  0.00  0.00     0.020 A 
ENDROOT
BRANCH   1   7
ATOM      7  C   UNL d   1     -41.651-123.074 -50.827  0.00  0.00     0.088 A 
ATOM      8  N   UNL d   1     -42.324-122.844 -50.412  0.00  0.00    -0.239 NA
ATOM      9  C   UNL d   1     -42.225-123.058 -49.628  0.00  0.00     0.111 A 
ATOM     10  C   UNL d   1     -42.774-122.930 -49.014  0.00  0.00     0.028 C 
ATOM     11  S   UNL d   1     -41.488-123.423 -49.551  0.00  0.00    -0.066 SA
ATOM     12  C   UNL d   1     -41.131-123.433 -50.298  0.00  0.00     0.056 A 
ENDBRANCH   1   7
BRANCH   4  13
ATOM     13  N   UNL d   1     -41.123-122.651 -54.055  0.00  0.00    -0.162 NA
BRANCH  13  14
ATOM     14  S   UNL d   1     -41.786-122.567 -54.541  0.00  0.00     0.266 S 
ATOM     15  O   UNL d   1     -42.015-123.394 -54.385  0.00  0.00    -0.203 OA
ATOM     16  O   UNL d   1     -41.449-121.591 -54.678  0.00  0.00    -0.203 OA
ATOM     17  C   UNL d   1     -42.619-122.279 -55.219  0.00  0.00     0.165 C 
ENDBRANCH  13  14
ENDBRANCH   4  13
TORSDOF 3
ENDMDL
MODEL 2
REMARK VINA RESULT:      -5.7      1.698      4.031
REMARK  3 active torsions:
REMARK  status: ('A' for Active; 'I' for Inactive)
REMARK    1  A    between atoms: N_7  and  S_1 
REMARK    2  A    between atoms: C_3  and  C_8 
REMARK    3  A    between atoms: C_13  and  N_7 
ROOT
ATOM      1  C   UNL d   1     -41.407-122.695 -52.863  0.00  0.00     0.018 A 
ATOM      2  C   UNL d   1     -41.308-123.403 -52.466  0.00  0.00     0.003 A 
ATOM      3  C   UNL d   1     -41.413-121.982 -52.445  0.00  0.00     0.003 A 
ATOM      4  C   UNL d   1     -41.218-122.713 -51.228  0.00  0.00     0.093 A 
ATOM      5  C   UNL d   1     -41.213-123.415 -51.648  0.00  0.00     0.020 A 
ATOM      6  C   UNL d   1     -41.319-121.990 -51.630  0.00  0.00     0.020 A 
ENDROOT
BRANCH   1   7
ATOM      7  C   UNL d   1     -41.503-122.681 -53.682  0.00  0.00     0.088 A 
ATOM      8  N   UNL d   1     -41.951-122.137 -54.107  0.00  0.00    -0.239 NA
ATOM      9  C   UNL d   1     -41.895-122.325 -54.902  0.00  0.00     0.111 A 
ATOM     10  C   UNL d   1     -42.263-121.916 -55.528  0.00  0.00     0.028 C 
ATOM     11  S   UNL d   1     -41.410-122.989 -54.976  0.00  0.00    -0.066 SA
ATOM     12  C   UNL d   1     -41.166-123.211 -54.217  0.00  0.00     0.056 A 
ENDBRANCH   1   7
BRANCH   4  13
ATOM     13  N   UNL d   1     -41.123-122.717 -50.406  0.00  0.00    -0.162 NA
BRANCH  13  14
ATOM     14  S   UNL d   1     -41.778-122.931 -49.951  0.00  0.00     0.266 S 
ATOM     15  O   UNL d   1     -42.162-122.168 -50.131  0.00  0.00    -0.203 OA
ATOM     16  O   UNL d   1     -41.258-123.817 -49.781  0.00  0.00    -0.203 OA
ATOM     17  C   UNL d   1     -42.567-123.377 -49.307  0.00  0.00     0.165 C 
ENDBRANCH  13  14
ENDBRANCH   4  13
TORSDOF 3
ENDMDL
MODEL 3
REMARK VINA RESULT:      -4.0      2.658      4.605
REMARK  3 active torsions:
REMARK  status: ('A' for Active; 'I' for Inactive)
REMARK    1  A    between atoms: N_7  and  S_1 
REMARK    2  A    between atoms: C_3  and  C_8 
REMARK    3  A    between atoms: C_13  and  N_7 
ROOT
ATOM      1  C   UNL d   1     -41.719-122.948 -50.550  0.00  0.00     0.018 A 
ATOM      2  C   UNL d   1     -42.501-123.091 -50.359  0.00  0.00     0.003 A 
ATOM      3  C   UNL d   1     -41.123-123.091 -49.995  0.00  0.00     0.003 A 
ATOM      4  C   UNL d   1     -42.122-123.522 -49.060  0.00  0.00     0.093 A 
ATOM      5  C   UNL d   1     -42.705-123.378 -49.615  0.00  0.00     0.020 A 
ATOM      6  C   UNL d   1     -41.323-123.378 -49.252  0.00  0.00     0.020 A 
ENDROOT
BRANCH   1   7
ATOM      7  C   UNL d   1     -41.513-122.660 -51.295  0.00  0.00     0.088 A 
ATOM      8  N   UNL d   1     -41.499-123.096 -51.994  0.00  0.00    -0.239 NA
ATOM      9  C   UNL d   1     -41.264-122.598 -52.600  0.00  0.00     0.111 A 
ATOM     10  C   UNL d   1     -41.175-122.812 -53.400  0.00  0.00     0.028 C 
ATOM     11  S   UNL d   1     -41.131-121.848 -52.281  0.00  0.00    -0.066 SA
ATOM     12  C   UNL d   1     -41.285-121.887 -51.468  0.00  0.00     0.056 A 
ENDBRANCH   1   7
BRANCH   4  13
ATOM     13  N   UNL d   1     -42.318-123.810 -48.311  0.00  0.00    -0.162 NA
BRANCH  13  14
ATOM     14  S   UNL d   1     -42.267-123.283 -47.677  0.00  0.00     0.266 S 
ATOM     15  O   UNL d   1     -42.994-122.879 -47.944  0.00  0.00    -0.203 OA
ATOM     16  O   UNL d   1     -41.409-123.814 -47.421  0.00  0.00    -0.203 OA
ATOM     17  C   UNL d   1     -42.045-122.667 -46.778  0.00  0.00     0.165 C 
ENDBRANCH  13  14
ENDBRANCH   4  13
TORSDOF 3
ENDMDL
