MODEL 1
REMARK VINA RESULT:       5.0      0.000      0.000
REMARK  7 active torsions:
REMARK  status: ('A' for Active; 'I' for Inactive)
REMARK    1  A    between atoms: S_2  and  C_1 
REMARK    2  A    between atoms: C_7  and  S_2 
REMARK    3  A    between atoms: C_9  and  N_3 
REMARK    4  A    between atoms: C_11  and  C_7 
REMARK    5  A    between atoms: C_8  and  C_9 
REMARK       I    between atoms: N_10  and  C_8 
REMARK       I    between atoms: N_15  and  C_11 
REMARK    6  A    between atoms: C_12  and  C_16 
REMARK    7  A    between atoms: C_23  and  N_15 
ROOT
ATOM      1  C   UNL d   1      56.350   0.028  32.552  0.00  0.00     0.107 A 
ATOM      2  N   UNL d   1      56.715   0.346  33.792  0.00  0.00    -0.299 N 
ATOM      3  C   UNL d   1      56.996   0.241  33.025  0.00  0.00     0.092 A 
ATOM      4  C   UNL d   1      55.679   0.003  33.031  0.00  0.00     0.028 A 
ATOM      5  C   UNL d   1      55.907   0.201  33.800  0.00  0.00     0.065 A 
ATOM      6  C   UNL d   1      54.893  -0.174  32.865  0.00  0.00     0.002 A 
ATOM      7  C   UNL d   1      55.342   0.220  34.399  0.00  0.00     0.018 A 
ATOM      8  C   UNL d   1      54.324  -0.155  33.467  0.00  0.00     0.000 A 
ATOM      9  C   UNL d   1      54.556   0.043  34.234  0.00  0.00     0.002 A 
ENDROOT
BRANCH   1  10
ATOM     10  S   UNL d   1      56.375  -0.133  31.739  0.00  0.00     0.217 S 
ATOM     11  O   UNL d   1      56.253  -0.935  31.851  0.00  0.00    -0.217 OA
ATOM     12  O   UNL d   1      56.499   0.682  31.631  0.00  0.00    -0.217 OA
BRANCH  10  13
ATOM     13  C   UNL d   1      56.401  -0.289  30.925  0.00  0.00     0.161 C 
BRANCH  13  14
ATOM     14  C   UNL d   1      57.101  -0.519  30.578  0.00  0.00     0.291 C 
ATOM     15  N   UNL d   1      57.577   0.033  30.191  0.00  0.00    -0.207 NA
ATOM     16  O   UNL d   1      57.338  -1.312  30.612  0.00  0.00    -0.264 OA
BRANCH  15  17
ATOM     17  C   UNL d   1      58.285  -0.204  29.841  0.00  0.00     0.085 A 
ATOM     18  C   UNL d   1      58.559   0.173  29.156  0.00  0.00     0.019 A 
ATOM     19  C   UNL d   1      59.263  -0.058  28.802  0.00  0.00     0.006 A 
ATOM     20  C   UNL d   1      59.710  -0.678  29.131  0.00  0.00     0.059 A 
ATOM     21  C   UNL d   1      59.447  -1.061  29.813  0.00  0.00     0.006 A 
ATOM     22  C   UNL d   1      58.729  -0.825  30.173  0.00  0.00     0.019 A 
BRANCH  20  23
ATOM     23  C   UNL d   1      60.414  -0.915  28.786  0.00  0.00     0.297 C 
ATOM     24  O   UNL d   1      60.992  -0.362  28.572  0.00  0.00    -0.264 OA
ATOM     25  N   UNL d   1      60.550  -1.730  28.646  0.00  0.00    -0.102 N 
ENDBRANCH  20  23
ENDBRANCH  15  17
ENDBRANCH  13  14
ENDBRANCH  10  13
ENDBRANCH   1  10
BRANCH   2  26
ATOM     26  C   UNL d   1      57.171   0.562  34.444  0.00  0.00     0.142 C 
BRANCH  26  27
ATOM     27  C   UNL d   1      57.989   0.613  34.376  0.00  0.00     0.282 C 
ATOM     28  N   UNL d   1      58.459   0.630  35.052  0.00  0.00    -0.271 N 
ATOM     29  C   UNL d   1      58.197   0.601  35.830  0.00  0.00     0.083 A 
ATOM     30  C   UNL d   1      59.287   0.681  35.069  0.00  0.00     0.083 A 
ATOM     31  C   UNL d   1      58.847   0.633  36.330  0.00  0.00     0.021 A 
ATOM     32  C   UNL d   1      59.525   0.682  35.862  0.00  0.00     0.021 A 
ATOM     33  O   UNL d   1      58.337   0.647  33.631  0.00  0.00    -0.265 OA
ENDBRANCH  26  27
ENDBRANCH   2  26
TORSDOF 7
ENDMDL
