MODEL 1
REMARK VINA RESULT:      19.0      0.000      0.000
REMARK  4 active torsions:
REMARK  status: ('A' for Active; 'I' for Inactive)
REMARK    1  A    between atoms: S_3  and  N_1 
REMARK    2  A    between atoms: C_7  and  C_4 
REMARK    3  A    between atoms: C_8  and  C_5 
REMARK    4  A    between atoms: O_19  and  C_17 
ROOT
ATOM      1  N   UNL d   1      46.008 -18.754  44.201  0.00  0.00    -0.155 N 
ATOM      2  N   UNL d   1      45.858 -18.093  44.690  0.00  0.00    -0.155 NA
ATOM      3  C   UNL d   1      45.899 -17.430  44.218  0.00  0.00     0.110 A 
ATOM      4  C   UNL d   1      46.142 -18.500  43.429  0.00  0.00     0.096 A 
ATOM      5  C   UNL d   1      46.075 -17.661  43.424  0.00  0.00     0.041 A 
ENDROOT
BRANCH   4   6
ATOM      6  C   UNL d   1      46.310 -18.975  42.775  0.00  0.00     0.021 A 
ATOM      7  C   UNL d   1      46.394 -18.642  42.034  0.00  0.00     0.026 A 
ATOM      8  C   UNL d   1      46.562 -19.117  41.380  0.00  0.00     0.094 A 
ATOM      9  C   UNL d   1      46.646 -19.924  41.468  0.00  0.00     0.024 A 
ATOM     10  C   UNL d   1      46.563 -20.265  42.215  0.00  0.00     0.002 A 
ATOM     11  C   UNL d   1      46.395 -19.790  42.868  0.00  0.00     0.002 A 
BRANCH   8  12
ATOM     12  O   UNL d   1      46.645 -18.772  40.631  0.00  0.00    -0.328 OA
ATOM     13  C   UNL d   1      46.638 -17.955  40.552  0.00  0.00     0.181 C 
ENDBRANCH   8  12
ENDBRANCH   4   6
BRANCH   1  14
ATOM     14  S   UNL d   1      46.019 -19.520  44.454  0.00  0.00     0.266 S 
ATOM     15  O   UNL d   1      45.374 -19.702  43.952  0.00  0.00    -0.203 OA
ATOM     16  O   UNL d   1      46.647 -19.381  44.954  0.00  0.00    -0.203 OA
ATOM     17  C   UNL d   1      46.013 -20.329  44.704  0.00  0.00     0.165 C 
ENDBRANCH   1  14
BRANCH   3  18
ATOM     18  C   UNL d   1      45.789 -16.641  44.452  0.00  0.00     0.049 A 
ATOM     19  S   UNL d   1      45.087 -16.367  44.770  0.00  0.00    -0.085 SA
ATOM     20  C   UNL d   1      45.198 -15.563  44.929  0.00  0.00     0.035 A 
ATOM     21  C   UNL d   1      45.984 -15.363  44.698  0.00  0.00     0.007 A 
ATOM     22  C   UNL d   1      46.337 -16.029  44.408  0.00  0.00     0.009 A 
ENDBRANCH   3  18
TORSDOF 4
ENDMDL
