MODEL 1
REMARK VINA RESULT:      32.8      0.000      0.000
REMARK  5 active torsions:
REMARK  status: ('A' for Active; 'I' for Inactive)
REMARK    1  A    between atoms: N_9  and  C_2 
REMARK    2  A    between atoms: N_8  and  C_3 
REMARK    3  A    between atoms: N_10  and  C_6 
REMARK    4  A    between atoms: C_7  and  C_11 
REMARK    5  A    between atoms: C_13  and  N_10 
ROOT
ATOM      1  N   UNL d   1      45.943 -18.611  42.793  0.00  0.00     0.133 NA
ATOM      2  C   UNL d   1      46.078 -18.586  43.611  0.00  0.00     0.765 A 
ATOM      3  C   UNL d   1      46.033 -17.927  42.340  0.00  0.00     0.765 A 
ATOM      4  N   UNL d   1      46.301 -17.876  43.972  0.00  0.00     0.134 NA
ATOM      5  N   UNL d   1      46.256 -17.217  42.700  0.00  0.00     0.134 NA
ATOM      6  C   UNL d   1      46.390 -17.190  43.514  0.00  0.00     0.780 A 
ENDROOT
BRANCH   6   7
ATOM      7  N   UNL d   1      46.613 -16.486  43.878  0.00  0.00    -0.058 NA
BRANCH   7   8
ATOM      8  C   UNL d   1      46.039 -15.963  44.153  0.00  0.00     0.100 A 
ATOM      9  C   UNL d   1      46.086 -15.159  43.945  0.00  0.00     0.024 A 
ATOM     10  C   UNL d   1      45.510 -14.633  44.221  0.00  0.00     0.073 A 
ATOM     11  C   UNL d   1      44.894 -14.911  44.701  0.00  0.00     0.004 A 
ATOM     12  C   UNL d   1      44.857 -15.710  44.901  0.00  0.00     0.002 A 
ATOM     13  C   UNL d   1      45.425 -16.236  44.631  0.00  0.00     0.020 A 
BRANCH  10  14
ATOM     14  C   UNL d   1      45.550 -13.842  44.020  0.00  0.00     0.419 C 
ATOM     15  F   UNL d   1      44.902 -13.476  43.669  0.00  0.00    -0.166 F 
ATOM     16  F   UNL d   1      46.231 -13.415  44.167  0.00  0.00    -0.166 F 
ATOM     17  F   UNL d   1      44.794 -14.079  43.792  0.00  0.00    -0.166 F 
ENDBRANCH  10  14
ENDBRANCH   7   8
ENDBRANCH   6   7
BRANCH   3  18
ATOM     18  N   UNL d   1      45.898 -17.951  41.522  0.00  0.00    -0.137 N 
ATOM     19  C   UNL d   1      45.132 -17.829  41.233  0.00  0.00     0.098 A 
ATOM     20  C   UNL d   1      45.006 -17.855  40.418  0.00  0.00     0.021 A 
ATOM     21  C   UNL d   1      46.385 -18.118  40.204  0.00  0.00     0.021 A 
ATOM     22  C   UNL d   1      46.528 -18.096  41.010  0.00  0.00     0.098 A 
ENDBRANCH   3  18
BRANCH   2  23
ATOM     23  N   UNL d   1      45.988 -19.273  44.069  0.00  0.00    -0.137 N 
ATOM     24  C   UNL d   1      46.643 -19.597  44.440  0.00  0.00     0.098 A 
ATOM     25  C   UNL d   1      46.553 -20.272  44.889  0.00  0.00     0.021 A 
ATOM     26  C   UNL d   1      45.161 -20.297  44.598  0.00  0.00     0.021 A 
ATOM     27  C   UNL d   1      45.242 -19.615  44.141  0.00  0.00     0.098 A 
ENDBRANCH   2  23
TORSDOF 5
ENDMDL
