MODEL 1
REMARK VINA RESULT:      -5.0      0.000      0.000
REMARK  3 active torsions:
REMARK  status: ('A' for Active; 'I' for Inactive)
REMARK    1  A    between atoms: S_3  and  N_1 
REMARK    2  A    between atoms: C_7  and  C_4 
REMARK    3  A    between atoms: C_16  and  C_5 
ROOT
ATOM      1  N   UNL d   1      58.191  -0.140  29.825  0.00  0.00    -0.155 N 
ATOM      2  N   UNL d   1      57.674   0.204  30.387  0.00  0.00    -0.156 NA
ATOM      3  C   UNL d   1      58.299  -0.915  30.016  0.00  0.00     0.096 A 
ATOM      4  C   UNL d   1      57.473  -0.389  30.922  0.00  0.00     0.103 A 
ATOM      5  C   UNL d   1      57.871  -1.086  30.680  0.00  0.00     0.041 A 
ENDROOT
BRANCH   3   6
ATOM      6  C   UNL d   1      58.771  -1.450  29.602  0.00  0.00     0.021 A 
ATOM      7  C   UNL d   1      59.589  -1.533  29.766  0.00  0.00     0.028 A 
ATOM      8  C   UNL d   1      60.062  -2.069  29.350  0.00  0.00     0.119 A 
ATOM      9  O   UNL d   1      60.838  -2.237  29.413  0.00  0.00    -0.300 OA
ATOM     10  C   UNL d   1      59.714  -2.520  28.772  0.00  0.00     0.119 A 
ATOM     11  C   UNL d   1      61.016  -2.831  28.845  0.00  0.00     0.304 A 
ATOM     12  O   UNL d   1      60.297  -2.993  28.455  0.00  0.00    -0.300 OA
ATOM     13  C   UNL d   1      58.932  -2.471  28.583  0.00  0.00     0.026 A 
ATOM     14  C   UNL d   1      58.459  -1.935  28.999  0.00  0.00     0.004 A 
ENDBRANCH   3   6
BRANCH   1  15
ATOM     15  S   UNL d   1      58.528   0.276  29.180  0.00  0.00     0.266 S 
ATOM     16  O   UNL d   1      59.131   0.497  29.686  0.00  0.00    -0.203 OA
ATOM     17  O   UNL d   1      57.897   0.033  28.692  0.00  0.00    -0.203 OA
ATOM     18  C   UNL d   1      58.861   0.682  28.562  0.00  0.00     0.165 C 
ENDBRANCH   1  15
BRANCH   4  19
ATOM     19  C   UNL d   1      56.976  -0.319  31.575  0.00  0.00     0.019 A 
ATOM     20  C   UNL d   1      56.682  -1.037  31.886  0.00  0.00     0.002 A 
ATOM     21  C   UNL d   1      56.170  -0.982  32.557  0.00  0.00     0.000 A 
ATOM     22  C   UNL d   1      55.980  -0.241  32.876  0.00  0.00     0.000 A 
ATOM     23  C   UNL d   1      56.290   0.430  32.541  0.00  0.00     0.000 A 
ATOM     24  C   UNL d   1      56.780   0.382  31.899  0.00  0.00     0.002 A 
ENDBRANCH   4  19
TORSDOF 3
ENDMDL
MODEL 2
REMARK VINA RESULT:      -3.1      1.312      4.151
REMARK  3 active torsions:
REMARK  status: ('A' for Active; 'I' for Inactive)
REMARK    1  A    between atoms: S_3  and  N_1 
REMARK    2  A    between atoms: C_7  and  C_4 
REMARK    3  A    between atoms: C_16  and  C_5 
ROOT
ATOM      1  N   UNL d   1      58.627  -0.773  29.080  0.00  0.00    -0.155 N 
ATOM      2  N   UNL d   1      58.981  -1.385  28.631  0.00  0.00    -0.156 NA
ATOM      3  C   UNL d   1      58.554  -1.024  29.842  0.00  0.00     0.096 A 
ATOM      4  C   UNL d   1      59.119  -2.012  29.146  0.00  0.00     0.103 A 
ATOM      5  C   UNL d   1      58.848  -1.774  29.903  0.00  0.00     0.041 A 
ENDROOT
BRANCH   3   6
ATOM      6  C   UNL d   1      58.231  -0.585  30.462  0.00  0.00     0.021 A 
ATOM      7  C   UNL d   1      57.468  -0.752  30.767  0.00  0.00     0.028 A 
ATOM      8  C   UNL d   1      57.144  -0.312  31.388  0.00  0.00     0.119 A 
ATOM      9  O   UNL d   1      56.442  -0.372  31.758  0.00  0.00    -0.300 OA
ATOM     10  C   UNL d   1      57.586   0.293  31.701  0.00  0.00     0.119 A 
ATOM     11  C   UNL d   1      56.415   0.225  32.350  0.00  0.00     0.304 A 
ATOM     12  O   UNL d   1      57.143   0.629  32.296  0.00  0.00    -0.300 OA
ATOM     13  C   UNL d   1      58.323   0.485  31.437  0.00  0.00     0.026 A 
ATOM     14  C   UNL d   1      58.647   0.045  30.816  0.00  0.00     0.004 A 
ENDBRANCH   3   6
BRANCH   1  15
ATOM     15  S   UNL d   1      58.396  -0.032  28.764  0.00  0.00     0.266 S 
ATOM     16  O   UNL d   1      57.685  -0.381  28.564  0.00  0.00    -0.203 OA
ATOM     17  O   UNL d   1      59.133   0.292  28.982  0.00  0.00    -0.203 OA
ATOM     18  C   UNL d   1      58.164   0.681  28.455  0.00  0.00     0.165 C 
ENDBRANCH   1  15
BRANCH   4  19
ATOM     19  C   UNL d   1      59.460  -2.738  28.962  0.00  0.00     0.019 A 
ATOM     20  C   UNL d   1      60.292  -2.778  29.035  0.00  0.00     0.002 A 
ATOM     21  C   UNL d   1      60.656  -3.519  28.850  0.00  0.00     0.000 A 
ATOM     22  C   UNL d   1      60.194  -4.163  28.608  0.00  0.00     0.000 A 
ATOM     23  C   UNL d   1      59.389  -4.077  28.552  0.00  0.00     0.000 A 
ATOM     24  C   UNL d   1      59.036  -3.371  28.728  0.00  0.00     0.002 A 
ENDBRANCH   4  19
TORSDOF 3
ENDMDL
MODEL 3
REMARK VINA RESULT:      -3.0      1.423      2.054
REMARK  3 active torsions:
REMARK  status: ('A' for Active; 'I' for Inactive)
REMARK    1  A    between atoms: S_3  and  N_1 
REMARK    2  A    between atoms: C_7  and  C_4 
REMARK    3  A    between atoms: C_16  and  C_5 
ROOT
ATOM      1  N   UNL d   1      57.873  -1.306  30.406  0.00  0.00    -0.155 N 
ATOM      2  N   UNL d   1      57.293  -1.393  31.004  0.00  0.00    -0.156 NA
ATOM      3  C   UNL d   1      58.108  -0.536  30.386  0.00  0.00     0.096 A 
ATOM      4  C   UNL d   1      57.187  -0.651  31.344  0.00  0.00     0.103 A 
ATOM      5  C   UNL d   1      57.703  -0.121  30.949  0.00  0.00     0.041 A 
ENDROOT
BRANCH   3   6
ATOM      6  C   UNL d   1      58.673  -0.220  29.874  0.00  0.00     0.021 A 
ATOM      7  C   UNL d   1      59.488  -0.211  30.071  0.00  0.00     0.028 A 
ATOM      8  C   UNL d   1      60.054   0.106  29.558  0.00  0.00     0.119 A 
ATOM      9  O   UNL d   1      60.844   0.172  29.630  0.00  0.00    -0.300 OA
ATOM     10  C   UNL d   1      59.802   0.411  28.850  0.00  0.00     0.119 A 
ATOM     11  C   UNL d   1      61.133   0.541  28.933  0.00  0.00     0.304 A 
ATOM     12  O   UNL d   1      60.462   0.682  28.457  0.00  0.00    -0.300 OA
ATOM     13  C   UNL d   1      59.028   0.421  28.622  0.00  0.00     0.026 A 
ATOM     14  C   UNL d   1      58.462   0.105  29.135  0.00  0.00     0.004 A 
ENDBRANCH   3   6
BRANCH   1  15
ATOM     15  S   UNL d   1      58.145  -1.934  29.922  0.00  0.00     0.266 S 
ATOM     16  O   UNL d   1      57.517  -1.774  29.425  0.00  0.00    -0.203 OA
ATOM     17  O   UNL d   1      58.776  -2.070  30.451  0.00  0.00    -0.203 OA
ATOM     18  C   UNL d   1      58.402  -2.539  29.447  0.00  0.00     0.165 C 
ENDBRANCH   1  15
BRANCH   4  19
ATOM     19  C   UNL d   1      56.673  -0.456  31.957  0.00  0.00     0.019 A 
ATOM     20  C   UNL d   1      56.281  -1.100  32.320  0.00  0.00     0.002 A 
ATOM     21  C   UNL d   1      55.749  -0.916  32.952  0.00  0.00     0.000 A 
ATOM     22  C   UNL d   1      55.635  -0.129  33.185  0.00  0.00     0.000 A 
ATOM     23  C   UNL d   1      56.037   0.463  32.803  0.00  0.00     0.000 A 
ATOM     24  C   UNL d   1      56.547   0.292  32.199  0.00  0.00     0.002 A 
ENDBRANCH   4  19
TORSDOF 3
ENDMDL
MODEL 4
REMARK VINA RESULT:      -2.1      1.146      1.564
REMARK  3 active torsions:
REMARK  status: ('A' for Active; 'I' for Inactive)
REMARK    1  A    between atoms: S_3  and  N_1 
REMARK    2  A    between atoms: C_7  and  C_4 
REMARK    3  A    between atoms: C_16  and  C_5 
ROOT
ATOM      1  N   UNL d   1      58.193  -0.005  31.242  0.00  0.00    -0.155 N 
ATOM      2  N   UNL d   1      57.708   0.268  31.867  0.00  0.00    -0.156 NA
ATOM      3  C   UNL d   1      57.834  -0.638  30.896  0.00  0.00     0.096 A 
ATOM      4  C   UNL d   1      57.046  -0.220  31.887  0.00  0.00     0.103 A 
ATOM      5  C   UNL d   1      57.135  -0.784  31.274  0.00  0.00     0.041 A 
ENDROOT
BRANCH   3   6
ATOM      6  C   UNL d   1      58.132  -1.068  30.258  0.00  0.00     0.021 A 
ATOM      7  C   UNL d   1      58.377  -1.866  30.343  0.00  0.00     0.028 A 
ATOM      8  C   UNL d   1      58.675  -2.297  29.703  0.00  0.00     0.119 A 
ATOM      9  O   UNL d   1      58.936  -3.048  29.658  0.00  0.00    -0.300 OA
ATOM     10  C   UNL d   1      58.727  -1.928  28.982  0.00  0.00     0.119 A 
ATOM     11  C   UNL d   1      59.175  -3.186  28.864  0.00  0.00     0.304 A 
ATOM     12  O   UNL d   1      59.034  -2.471  28.458  0.00  0.00    -0.300 OA
ATOM     13  C   UNL d   1      58.502  -1.164  28.858  0.00  0.00     0.026 A 
ATOM     14  C   UNL d   1      58.204  -0.733  29.498  0.00  0.00     0.004 A 
ENDBRANCH   3   6
BRANCH   1  15
ATOM     15  S   UNL d   1      58.927   0.342  31.031  0.00  0.00     0.266 S 
ATOM     16  O   UNL d   1      59.240  -0.003  31.703  0.00  0.00    -0.203 OA
ATOM     17  O   UNL d   1      58.575   0.679  30.354  0.00  0.00    -0.203 OA
ATOM     18  C   UNL d   1      59.641   0.673  30.835  0.00  0.00     0.165 C 
ENDBRANCH   1  15
BRANCH   4  19
ATOM     19  C   UNL d   1      56.410  -0.170  32.408  0.00  0.00     0.019 A 
ATOM     20  C   UNL d   1      56.057   0.585  32.479  0.00  0.00     0.002 A 
ATOM     21  C   UNL d   1      55.402   0.652  33.011  0.00  0.00     0.000 A 
ATOM     22  C   UNL d   1      55.138  -0.011  33.433  0.00  0.00     0.000 A 
ATOM     23  C   UNL d   1      55.512  -0.723  33.331  0.00  0.00     0.000 A 
ATOM     24  C   UNL d   1      56.138  -0.793  32.824  0.00  0.00     0.002 A 
ENDBRANCH   4  19
TORSDOF 3
ENDMDL
