MODEL 1
REMARK VINA RESULT:      44.3      0.000      0.000
REMARK  4 active torsions:
REMARK  status: ('A' for Active; 'I' for Inactive)
REMARK    1  A    between atoms: C_2  and  C_1 
REMARK       I    between atoms: N_7  and  C_2 
REMARK    2  A    between atoms: C_9  and  N_7 
REMARK    3  A    between atoms: O_16  and  C_10 
REMARK    4  A    between atoms: C_18  and  O_16 
ROOT
ATOM      1  C   UNL d   1      58.337  49.553  51.793  0.00  0.00     0.280 C 
ATOM      2  N   UNL d   1      59.084  49.347  52.075  0.00  0.00    -0.208 NA
ATOM      3  O   UNL d   1      57.729  49.707  52.331  0.00  0.00    -0.265 OA
ENDROOT
BRANCH   1   4
ATOM      4  C   UNL d   1      58.200  49.603  50.982  0.00  0.00     0.065 A 
ATOM      5  C   UNL d   1      57.459  49.626  50.618  0.00  0.00     0.011 A 
ATOM      6  C   UNL d   1      57.586  49.676  49.809  0.00  0.00     0.030 A 
ATOM      7  C   UNL d   1      56.689  49.607  50.918  0.00  0.00     0.001 A 
ATOM      8  C   UNL d   1      56.941  49.708  49.289  0.00  0.00     0.006 A 
ATOM      9  S   UNL d   1      58.399  49.684  49.672  0.00  0.00    -0.086 SA
ATOM     10  C   UNL d   1      56.190  49.690  49.582  0.00  0.00     0.001 A 
ATOM     11  C   UNL d   1      56.056  49.639  50.397  0.00  0.00     0.000 A 
ATOM     12  C   UNL d   1      58.774  49.638  50.408  0.00  0.00     0.040 A 
ENDBRANCH   1   4
BRANCH   2  13
ATOM     13  C   UNL d   1      59.700  49.190  51.536  0.00  0.00     0.085 A 
ATOM     14  C   UNL d   1      59.832  49.707  50.907  0.00  0.00     0.021 A 
ATOM     15  C   UNL d   1      60.440  49.553  50.373  0.00  0.00     0.026 A 
ATOM     16  C   UNL d   1      60.921  48.881  50.464  0.00  0.00     0.100 A 
ATOM     17  C   UNL d   1      60.782  48.369  51.096  0.00  0.00     0.026 A 
ATOM     18  C   UNL d   1      60.169  48.524  51.634  0.00  0.00     0.021 A 
BRANCH  16  19
ATOM     19  O   UNL d   1      61.537  48.714  49.934  0.00  0.00    -0.305 OA
BRANCH  19  20
ATOM     20  C   UNL d   1      61.979  48.022  50.014  0.00  0.00     0.123 C 
ATOM     21  C   UNL d   1      61.672  47.300  49.752  0.00  0.00     0.029 C 
ENDBRANCH  19  20
ENDBRANCH  16  19
ENDBRANCH   2  13
TORSDOF 4
ENDMDL
MODEL 2
REMARK VINA RESULT:      44.9      1.169      3.640
REMARK  4 active torsions:
REMARK  status: ('A' for Active; 'I' for Inactive)
REMARK    1  A    between atoms: C_2  and  C_1 
REMARK       I    between atoms: N_7  and  C_2 
REMARK    2  A    between atoms: C_9  and  N_7 
REMARK    3  A    between atoms: O_16  and  C_10 
REMARK    4  A    between atoms: C_18  and  O_16 
ROOT
ATOM      1  C   UNL d   1      59.697  49.550  51.849  0.00  0.00     0.280 C 
ATOM      2  N   UNL d   1      58.889  49.705  51.889  0.00  0.00    -0.208 NA
ATOM      3  O   UNL d   1      60.160  49.635  52.529  0.00  0.00    -0.265 OA
ENDROOT
BRANCH   1   4
ATOM      4  C   UNL d   1      60.039  49.312  51.138  0.00  0.00     0.065 A 
ATOM      5  C   UNL d   1      60.500  48.636  51.026  0.00  0.00     0.011 A 
ATOM      6  C   UNL d   1      60.722  48.620  50.236  0.00  0.00     0.030 A 
ATOM      7  C   UNL d   1      60.746  48.036  51.540  0.00  0.00     0.001 A 
ATOM      8  C   UNL d   1      61.194  48.001  49.951  0.00  0.00     0.006 A 
ATOM      9  S   UNL d   1      60.401  49.280  49.861  0.00  0.00    -0.086 SA
ATOM     10  C   UNL d   1      61.433  47.416  50.452  0.00  0.00     0.001 A 
ATOM     11  C   UNL d   1      61.212  47.427  51.250  0.00  0.00     0.000 A 
ATOM     12  C   UNL d   1      59.977  49.706  50.430  0.00  0.00     0.040 A 
ENDBRANCH   1   4
BRANCH   2  13
ATOM     13  C   UNL d   1      58.419  49.620  51.205  0.00  0.00     0.085 A 
ATOM     14  C   UNL d   1      58.781  49.553  50.468  0.00  0.00     0.021 A 
ATOM     15  C   UNL d   1      58.318  49.469  49.792  0.00  0.00     0.026 A 
ATOM     16  C   UNL d   1      57.488  49.452  49.848  0.00  0.00     0.100 A 
ATOM     17  C   UNL d   1      57.134  49.520  50.590  0.00  0.00     0.026 A 
ATOM     18  C   UNL d   1      57.601  49.604  51.271  0.00  0.00     0.021 A 
BRANCH  16  19
ATOM     19  O   UNL d   1      57.009  49.368  49.176  0.00  0.00    -0.305 OA
BRANCH  19  20
ATOM     20  C   UNL d   1      56.245  49.067  49.244  0.00  0.00     0.123 C 
ATOM     21  C   UNL d   1      56.037  48.367  48.855  0.00  0.00     0.029 C 
ENDBRANCH  19  20
ENDBRANCH  16  19
ENDBRANCH   2  13
TORSDOF 4
ENDMDL
MODEL 3
REMARK VINA RESULT:      45.3      1.514      4.085
REMARK  4 active torsions:
REMARK  status: ('A' for Active; 'I' for Inactive)
REMARK    1  A    between atoms: C_2  and  C_1 
REMARK       I    between atoms: N_7  and  C_2 
REMARK    2  A    between atoms: C_9  and  N_7 
REMARK    3  A    between atoms: O_16  and  C_10 
REMARK    4  A    between atoms: C_18  and  O_16 
ROOT
ATOM      1  C   UNL d   1      60.692  49.578  50.478  0.00  0.00     0.280 C 
ATOM      2  N   UNL d   1      60.133  49.613  49.874  0.00  0.00    -0.208 NA
ATOM      3  O   UNL d   1      61.496  49.563  50.286  0.00  0.00    -0.265 OA
ENDROOT
BRANCH   1   4
ATOM      4  C   UNL d   1      60.451  49.559  51.266  0.00  0.00     0.065 A 
ATOM      5  C   UNL d   1      60.947  49.603  51.924  0.00  0.00     0.011 A 
ATOM      6  C   UNL d   1      60.472  49.563  52.592  0.00  0.00     0.030 A 
ATOM      7  C   UNL d   1      61.768  49.674  52.001  0.00  0.00     0.001 A 
ATOM      8  C   UNL d   1      60.813  49.594  53.346  0.00  0.00     0.006 A 
ATOM      9  S   UNL d   1      59.687  49.495  52.349  0.00  0.00    -0.086 SA
ATOM     10  C   UNL d   1      61.613  49.663  53.421  0.00  0.00     0.001 A 
ATOM     11  C   UNL d   1      62.098  49.703  52.752  0.00  0.00     0.000 A 
ATOM     12  C   UNL d   1      59.682  49.493  51.522  0.00  0.00     0.040 A 
ENDBRANCH   1   4
BRANCH   2  13
ATOM     13  C   UNL d   1      59.321  49.629  50.064  0.00  0.00     0.085 A 
ATOM     14  C   UNL d   1      59.089  49.690  50.852  0.00  0.00     0.021 A 
ATOM     15  C   UNL d   1      58.287  49.706  51.041  0.00  0.00     0.026 A 
ATOM     16  C   UNL d   1      57.711  49.660  50.442  0.00  0.00     0.100 A 
ATOM     17  C   UNL d   1      57.953  49.598  49.657  0.00  0.00     0.026 A 
ATOM     18  C   UNL d   1      58.760  49.582  49.466  0.00  0.00     0.021 A 
BRANCH  16  19
ATOM     19  O   UNL d   1      56.901  49.674  50.619  0.00  0.00    -0.305 OA
BRANCH  19  20
ATOM     20  C   UNL d   1      56.590  49.167  51.191  0.00  0.00     0.123 C 
ATOM     21  C   UNL d   1      56.033  48.593  50.979  0.00  0.00     0.029 C 
ENDBRANCH  19  20
ENDBRANCH  16  19
ENDBRANCH   2  13
TORSDOF 4
ENDMDL
