MODEL 1
REMARK VINA RESULT:      75.2      0.000      0.000
REMARK  6 active torsions:
REMARK  status: ('A' for Active; 'I' for Inactive)
REMARK    1  A    between atoms: N_2  and  S_1 
REMARK    2  A    between atoms: C_7  and  S_1 
REMARK    3  A    between atoms: C_3  and  N_2 
REMARK    4  A    between atoms: C_4  and  C_3 
REMARK    5  A    between atoms: N_5  and  C_4 
REMARK    6  A    between atoms: C_6  and  C_4 
ROOT
ATOM      1  C   UNL d   1      60.911  48.798  50.628  0.00  0.00     0.110 C 
ATOM      2  C   UNL d   1      61.417  49.280  50.187  0.00  0.00     0.023 C 
ENDROOT
BRANCH   1   3
ATOM      3  N   UNL d   1      60.991  47.985  50.596  0.00  0.00    -0.157 NA
BRANCH   3   4
ATOM      4  S   UNL d   1      61.555  47.634  50.112  0.00  0.00     0.285 S 
ATOM      5  O   UNL d   1      62.178  47.760  49.583  0.00  0.00    -0.198 OA
ATOM      6  O   UNL d   1      61.789  48.407  49.921  0.00  0.00    -0.198 OA
BRANCH   4   7
ATOM      7  C   UNL d   1      61.375  46.846  50.257  0.00  0.00     0.105 A 
ATOM      8  C   UNL d   1      60.978  46.637  50.959  0.00  0.00     0.013 A 
ATOM      9  C   UNL d   1      60.798  45.842  51.101  0.00  0.00     0.007 A 
ATOM     10  C   UNL d   1      61.009  45.262  50.556  0.00  0.00     0.035 A 
ATOM     11  C   UNL d   1      61.402  45.469  49.861  0.00  0.00     0.007 A 
ATOM     12 BR   UNL d   1      60.826  44.464  50.705  0.00  0.00    -0.049 Br
ATOM     13  C   UNL d   1      61.585  46.267  49.712  0.00  0.00     0.013 A 
ENDBRANCH   4   7
ENDBRANCH   3   4
ENDBRANCH   1   3
BRANCH   1  14
ATOM     14  C   UNL d   1      60.329  49.138  51.098  0.00  0.00     0.089 C 
BRANCH  14  15
ATOM     15  N   UNL d   1      59.574  49.255  50.798  0.00  0.00    -0.300 N 
ATOM     16  C   UNL d   1      59.471  49.583  50.049  0.00  0.00     0.100 A 
ATOM     17  C   UNL d   1      58.708  49.700  49.749  0.00  0.00     0.100 A 
ATOM     18  N   UNL d   1      58.050  49.491  50.193  0.00  0.00    -0.299 N 
ATOM     19  C   UNL d   1      58.152  49.161  50.948  0.00  0.00     0.100 A 
ATOM     20  C   UNL d   1      57.287  49.610  49.890  0.00  0.00     0.100 C 
ATOM     21  C   UNL d   1      58.907  49.045  51.246  0.00  0.00     0.100 A 
ENDBRANCH  14  15
BRANCH  14  22
ATOM     22  C   UNL d   1      60.504  49.360  51.871  0.00  0.00     0.047 A 
ATOM     23  S   UNL d   1      61.260  49.491  52.183  0.00  0.00    -0.085 SA
ATOM     24  C   UNL d   1      61.171  49.703  52.977  0.00  0.00     0.035 A 
ATOM     25  C   UNL d   1      60.375  49.706  53.163  0.00  0.00     0.007 A 
ATOM     26  C   UNL d   1      59.956  49.492  52.477  0.00  0.00     0.009 A 
ENDBRANCH  14  22
ENDBRANCH   1  14
TORSDOF 6
ENDMDL
