MODEL 1
REMARK VINA RESULT:      34.8      0.000      0.000
REMARK  5 active torsions:
REMARK  status: ('A' for Active; 'I' for Inactive)
REMARK    1  A    between atoms: C_3  and  S_1 
REMARK    2  A    between atoms: N_10  and  S_1 
REMARK    3  A    between atoms: C_19  and  N_10 
REMARK    4  A    between atoms: C_21  and  C_19 
REMARK    5  A    between atoms: C_22  and  C_21 
ROOT
ATOM      1  N   UNL d   1     -52.544  23.992  33.368  0.00  0.00    -0.273 N 
ATOM      2  C   UNL d   1     -51.222  26.079  33.441  0.00  0.00     0.104 A 
ATOM      3  C   UNL d   1     -52.103  24.689  33.393  0.00  0.00     0.067 A 
ATOM      4  C   UNL d   1     -52.486  25.415  33.380  0.00  0.00     0.017 A 
ATOM      5  C   UNL d   1     -51.280  24.655  33.429  0.00  0.00     0.017 A 
ATOM      6  C   UNL d   1     -53.368  24.026  33.332  0.00  0.00     0.265 A 
ATOM      7  C   UNL d   1     -52.045  26.113  33.404  0.00  0.00     0.014 A 
ATOM      8  C   UNL d   1     -50.839  25.348  33.453  0.00  0.00     0.014 A 
ATOM      9  C   UNL d   1     -53.310  25.449  33.344  0.00  0.00     0.006 A 
ATOM     10  C   UNL d   1     -53.750  24.757  33.320  0.00  0.00     0.061 A 
ATOM     11  O   UNL d   1     -53.817  23.323  33.307  0.00  0.00    -0.267 OA
ATOM     12  C   UNL d   1     -52.161  23.260  33.381  0.00  0.00     0.083 A 
ATOM     13  C   UNL d   1     -50.897  23.933  33.441  0.00  0.00     0.003 A 
ATOM     14  C   UNL d   1     -51.337  23.236  33.417  0.00  0.00     0.019 A 
ENDROOT
BRANCH   2  15
ATOM     15  S   UNL d   1     -50.781  26.782  33.465  0.00  0.00     0.271 S 
ATOM     16  O   UNL d   1     -50.088  26.347  33.314  0.00  0.00    -0.200 OA
ATOM     17  O   UNL d   1     -51.469  27.220  33.616  0.00  0.00    -0.200 OA
BRANCH  15  18
ATOM     18  N   UNL d   1     -50.334  27.488  33.489  0.00  0.00    -0.228 N 
ATOM     19  C   UNL d   1     -50.683  28.208  33.306  0.00  0.00     0.111 C 
BRANCH  18  20
ATOM     20  C   UNL d   1     -49.538  27.465  33.697  0.00  0.00     0.092 C 
BRANCH  20  21
ATOM     21  C   UNL d   1     -49.228  28.034  34.209  0.00  0.00     0.020 C 
BRANCH  21  22
ATOM     22  C   UNL d   1     -48.446  27.975  34.467  0.00  0.00     0.002 C 
ATOM     23  C   UNL d   1     -48.084  28.606  34.829  0.00  0.00     0.000 C 
ENDBRANCH  21  22
ENDBRANCH  20  21
ENDBRANCH  18  20
ENDBRANCH  15  18
ENDBRANCH   2  15
TORSDOF 5
ENDMDL
