MODEL 1
REMARK VINA RESULT:      60.6      0.000      0.000
REMARK  7 active torsions:
REMARK  status: ('A' for Active; 'I' for Inactive)
REMARK    1  A    between atoms: N_2  and  S_1 
REMARK    2  A    between atoms: C_3  and  S_1 
REMARK    3  A    between atoms: C_16  and  N_2 
REMARK    4  A    between atoms: C_4  and  C_10 
REMARK       I    between atoms: N_7  and  C_4 
REMARK    5  A    between atoms: C_17  and  N_7 
REMARK    6  A    between atoms: C_9  and  C_17 
REMARK    7  A    between atoms: O_23  and  C_20 
ROOT
ATOM      1  C   UNL d   1     -49.743  27.551  34.237  0.00  0.00     0.058 A 
ATOM      2  C   UNL d   1     -48.461  28.229  35.022  0.00  0.00     0.094 A 
ATOM      3  C   UNL d   1     -49.792  27.719  35.042  0.00  0.00     0.006 A 
ATOM      4  C   UNL d   1     -49.050  27.722  33.823  0.00  0.00     0.006 A 
ATOM      5  C   UNL d   1     -49.151  28.059  35.438  0.00  0.00     0.020 A 
ATOM      6  C   UNL d   1     -48.406  28.061  34.209  0.00  0.00     0.020 A 
ENDROOT
BRANCH   2   7
ATOM      7  N   UNL d   1     -47.823  28.566  35.408  0.00  0.00    -0.158 NA
BRANCH   7   8
ATOM      8  S   UNL d   1     -47.734  29.388  35.415  0.00  0.00     0.285 S 
ATOM      9  O   UNL d   1     -47.686  29.378  36.241  0.00  0.00    -0.198 OA
ATOM     10  O   UNL d   1     -47.781  29.405  34.595  0.00  0.00    -0.198 OA
BRANCH   8  11
ATOM     11  C   UNL d   1     -47.645  30.205  35.426  0.00  0.00     0.107 A 
ATOM     12  C   UNL d   1     -47.877  30.653  34.775  0.00  0.00     0.037 A 
ATOM     13  C   UNL d   1     -47.790  31.480  34.778  0.00  0.00     0.095 A 
ATOM     14  C   UNL d   1     -47.470  31.849  35.441  0.00  0.00     0.024 A 
ATOM     15  C   UNL d   1     -47.237  31.404  36.096  0.00  0.00     0.003 A 
ATOM     16  C   UNL d   1     -47.324  30.581  36.089  0.00  0.00     0.013 A 
BRANCH  13  17
ATOM     17  O   UNL d   1     -48.026  31.934  34.116  0.00  0.00    -0.328 OA
ATOM     18  C   UNL d   1     -47.458  32.372  33.698  0.00  0.00     0.181 C 
ENDBRANCH  13  17
ENDBRANCH   8  11
ENDBRANCH   7   8
ENDBRANCH   2   7
BRANCH   1  19
ATOM     19  C   UNL d   1     -50.390  27.207  33.836  0.00  0.00     0.279 C 
ATOM     20  N   UNL d   1     -50.409  26.395  33.713  0.00  0.00    -0.204 NA
ATOM     21  O   UNL d   1     -51.011  27.685  33.562  0.00  0.00    -0.265 OA
BRANCH  20  22
ATOM     22  C   UNL d   1     -51.052  26.053  33.314  0.00  0.00     0.127 C 
BRANCH  22  23
ATOM     23  C   UNL d   1     -51.154  25.225  33.325  0.00  0.00     0.119 A 
ATOM     24  O   UNL d   1     -51.871  24.827  33.355  0.00  0.00    -0.304 OA
ATOM     25  C   UNL d   1     -51.706  24.022  33.355  0.00  0.00     0.123 A 
ATOM     26  C   UNL d   1     -50.897  23.930  33.326  0.00  0.00     0.029 A 
ATOM     27  C   UNL d   1     -50.554  24.677  33.307  0.00  0.00     0.028 A 
ENDBRANCH  22  23
ENDBRANCH  20  22
ENDBRANCH   1  19
TORSDOF 7
ENDMDL
MODEL 2
REMARK VINA RESULT:      61.3      1.191      5.835
REMARK  7 active torsions:
REMARK  status: ('A' for Active; 'I' for Inactive)
REMARK    1  A    between atoms: N_2  and  S_1 
REMARK    2  A    between atoms: C_3  and  S_1 
REMARK    3  A    between atoms: C_16  and  N_2 
REMARK    4  A    between atoms: C_4  and  C_10 
REMARK       I    between atoms: N_7  and  C_4 
REMARK    5  A    between atoms: C_17  and  N_7 
REMARK    6  A    between atoms: C_9  and  C_17 
REMARK    7  A    between atoms: O_23  and  C_20 
ROOT
ATOM      1  C   UNL d   1     -48.015  29.266  35.131  0.00  0.00     0.058 A 
ATOM      2  C   UNL d   1     -48.502  27.771  34.633  0.00  0.00     0.094 A 
ATOM      3  C   UNL d   1     -48.548  28.831  35.585  0.00  0.00     0.006 A 
ATOM      4  C   UNL d   1     -47.725  28.952  34.426  0.00  0.00     0.006 A 
ATOM      5  C   UNL d   1     -48.794  28.082  35.338  0.00  0.00     0.020 A 
ATOM      6  C   UNL d   1     -47.964  28.206  34.171  0.00  0.00     0.020 A 
ENDROOT
BRANCH   2   7
ATOM      7  N   UNL d   1     -48.741  27.030  34.382  0.00  0.00    -0.158 NA
BRANCH   7   8
ATOM      8  S   UNL d   1     -49.521  26.913  34.131  0.00  0.00     0.285 S 
ATOM      9  O   UNL d   1     -49.248  26.466  33.489  0.00  0.00    -0.198 OA
ATOM     10  O   UNL d   1     -49.797  27.355  34.766  0.00  0.00    -0.198 OA
BRANCH   8  11
ATOM     11  C   UNL d   1     -50.294  26.794  33.877  0.00  0.00     0.107 A 
ATOM     12  C   UNL d   1     -50.597  26.029  33.831  0.00  0.00     0.037 A 
ATOM     13  C   UNL d   1     -51.377  25.900  33.575  0.00  0.00     0.095 A 
ATOM     14  C   UNL d   1     -51.846  26.544  33.368  0.00  0.00     0.024 A 
ATOM     15  C   UNL d   1     -51.545  27.311  33.413  0.00  0.00     0.003 A 
ATOM     16  C   UNL d   1     -50.768  27.437  33.668  0.00  0.00     0.013 A 
BRANCH  13  17
ATOM     17  O   UNL d   1     -51.685  25.123  33.528  0.00  0.00    -0.328 OA
ATOM     18  C   UNL d   1     -51.184  24.497  33.315  0.00  0.00     0.181 C 
ENDBRANCH  13  17
ENDBRANCH   8  11
ENDBRANCH   7   8
ENDBRANCH   2   7
BRANCH   1  19
ATOM     19  C   UNL d   1     -47.767  30.023  35.381  0.00  0.00     0.279 C 
ATOM     20  N   UNL d   1     -47.810  30.658  34.862  0.00  0.00    -0.204 NA
ATOM     21  O   UNL d   1     -47.477  30.134  36.151  0.00  0.00    -0.265 OA
BRANCH  20  22
ATOM     22  C   UNL d   1     -47.563  31.412  35.109  0.00  0.00     0.127 C 
BRANCH  22  23
ATOM     23  C   UNL d   1     -47.635  32.062  34.592  0.00  0.00     0.119 A 
ATOM     24  O   UNL d   1     -48.205  32.651  34.634  0.00  0.00    -0.304 OA
ATOM     25  C   UNL d   1     -48.064  33.175  34.016  0.00  0.00     0.123 A 
ATOM     26  C   UNL d   1     -47.415  32.908  33.602  0.00  0.00     0.029 A 
ATOM     27  C   UNL d   1     -47.148  32.217  33.960  0.00  0.00     0.028 A 
ENDBRANCH  22  23
ENDBRANCH  20  22
ENDBRANCH   1  19
TORSDOF 7
ENDMDL
