MODEL 1
REMARK VINA RESULT:      -9.2      0.000      0.000
REMARK  5 active torsions:
REMARK  status: ('A' for Active; 'I' for Inactive)
REMARK    1  A    between atoms: C_11  and  N_1 
REMARK    2  A    between atoms: C_15  and  C_3 
REMARK    3  A    between atoms: N_4  and  C_7 
REMARK    4  A    between atoms: C_9  and  C_10 
REMARK       I    between atoms: C_10  and  N_12 
REMARK    5  A    between atoms: N_12  and  C_15 
ROOT
ATOM      1  C   UNL d   1      52.454  33.109  52.953  0.00  0.00     0.141 C 
ENDROOT
BRANCH   1   2
ATOM      2  N   UNL d   1      51.692  33.311  52.706  0.00  0.00    -0.203 NA
ATOM      3  C   UNL d   1      51.499  34.110  52.590  0.00  0.00     0.279 C 
ATOM      4  O   UNL d   1      52.054  34.683  52.720  0.00  0.00    -0.265 OA
BRANCH   3   5
ATOM      5  C   UNL d   1      50.731  34.308  52.341  0.00  0.00     0.059 A 
ATOM      6  C   UNL d   1      50.224  34.708  52.858  0.00  0.00     0.027 A 
ATOM      7  C   UNL d   1      49.475  34.900  52.612  0.00  0.00     0.127 A 
ATOM      8  C   UNL d   1      50.494  34.902  53.611  0.00  0.00     0.002 C 
ATOM      9  C   UNL d   1      49.208  34.701  51.848  0.00  0.00     0.024 A 
ATOM     10  C   UNL d   1      49.704  34.303  51.327  0.00  0.00     0.002 A 
ATOM     11  C   UNL d   1      50.456  34.110  51.571  0.00  0.00     0.005 A 
BRANCH   7  12
ATOM     12  N   UNL d   1      48.982  35.296  53.131  0.00  0.00    -0.114 N 
ATOM     13  O   UNL d   1      48.599  34.893  53.745  0.00  0.00    -0.532 OA
ATOM     14  O   UNL d   1      48.860  36.115  53.046  0.00  0.00    -0.532 OA
ENDBRANCH   7  12
ENDBRANCH   3   5
ENDBRANCH   1   2
BRANCH   1  15
ATOM     15  C   UNL d   1      52.678  32.313  52.991  0.00  0.00     0.191 A 
ATOM     16  N   UNL d   1      53.297  31.997  53.429  0.00  0.00    -0.264 N 
ATOM     17  C   UNL d   1      53.327  31.188  53.309  0.00  0.00     0.227 A 
ATOM     18  N   UNL d   1      52.711  30.987  52.783  0.00  0.00    -0.117 NA
ATOM     19  S   UNL d   1      53.861  30.660  53.642  0.00  0.00    -0.036 SA
ATOM     20  N   UNL d   1      52.307  31.687  52.585  0.00  0.00    -0.126 NA
BRANCH  16  21
ATOM     21  C   UNL d   1      53.811  32.431  53.916  0.00  0.00     0.068 A 
ATOM     22  C   UNL d   1      54.490  32.769  53.587  0.00  0.00     0.020 A 
ATOM     23  C   UNL d   1      54.993  33.199  54.080  0.00  0.00     0.031 A 
ATOM     24  C   UNL d   1      54.832  33.293  54.882  0.00  0.00     0.140 A 
ATOM     25  C   UNL d   1      54.147  32.947  55.198  0.00  0.00     0.031 A 
ATOM     26  F   UNL d   1      55.338  33.720  55.361  0.00  0.00    -0.204 F 
ATOM     27  C   UNL d   1      53.636  32.516  54.714  0.00  0.00     0.020 A 
ENDBRANCH  16  21
ENDBRANCH   1  15
TORSDOF 5
ENDMDL
MODEL 2
REMARK VINA RESULT:      -6.9      1.731      2.222
REMARK  5 active torsions:
REMARK  status: ('A' for Active; 'I' for Inactive)
REMARK    1  A    between atoms: C_11  and  N_1 
REMARK    2  A    between atoms: C_15  and  C_3 
REMARK    3  A    between atoms: N_4  and  C_7 
REMARK    4  A    between atoms: C_9  and  C_10 
REMARK       I    between atoms: C_10  and  N_12 
REMARK    5  A    between atoms: N_12  and  C_15 
ROOT
ATOM      1  C   UNL d   1      52.331  33.885  53.272  0.00  0.00     0.141 C 
ENDROOT
BRANCH   1   2
ATOM      2  N   UNL d   1      51.579  34.228  53.263  0.00  0.00    -0.203 NA
ATOM      3  C   UNL d   1      51.076  34.091  52.618  0.00  0.00     0.279 C 
ATOM      4  O   UNL d   1      51.322  33.625  52.004  0.00  0.00    -0.265 OA
BRANCH   3   5
ATOM      5  C   UNL d   1      50.321  34.439  52.614  0.00  0.00     0.059 A 
ATOM      6  C   UNL d   1      49.865  34.418  51.924  0.00  0.00     0.027 A 
ATOM      7  C   UNL d   1      49.128  34.758  51.923  0.00  0.00     0.127 A 
ATOM      8  C   UNL d   1      50.172  34.050  51.254  0.00  0.00     0.002 C 
ATOM      9  C   UNL d   1      48.823  35.129  52.604  0.00  0.00     0.024 A 
ATOM     10  C   UNL d   1      49.269  35.155  53.294  0.00  0.00     0.002 A 
ATOM     11  C   UNL d   1      50.008  34.815  53.298  0.00  0.00     0.005 A 
BRANCH   7  12
ATOM     12  N   UNL d   1      48.686  34.731  51.235  0.00  0.00    -0.114 N 
ATOM     13  O   UNL d   1      48.166  34.104  51.089  0.00  0.00    -0.532 OA
ATOM     14  O   UNL d   1      48.755  35.340  50.672  0.00  0.00    -0.532 OA
ENDBRANCH   7  12
ENDBRANCH   3   5
ENDBRANCH   1   2
BRANCH   1  15
ATOM     15  C   UNL d   1      52.878  34.105  53.852  0.00  0.00     0.191 A 
ATOM     16  N   UNL d   1      53.474  33.635  54.169  0.00  0.00    -0.264 N 
ATOM     17  C   UNL d   1      53.889  34.067  54.727  0.00  0.00     0.227 A 
ATOM     18  N   UNL d   1      53.547  34.827  54.766  0.00  0.00    -0.117 NA
ATOM     19  S   UNL d   1      54.527  33.808  55.175  0.00  0.00    -0.036 SA
ATOM     20  N   UNL d   1      52.918  34.851  54.221  0.00  0.00    -0.126 NA
BRANCH  16  21
ATOM     21  C   UNL d   1      53.630  32.849  53.955  0.00  0.00     0.068 A 
ATOM     22  C   UNL d   1      54.134  32.696  53.318  0.00  0.00     0.020 A 
ATOM     23  C   UNL d   1      54.282  31.910  53.114  0.00  0.00     0.031 A 
ATOM     24  C   UNL d   1      53.940  31.286  53.530  0.00  0.00     0.140 A 
ATOM     25  C   UNL d   1      53.435  31.456  54.167  0.00  0.00     0.031 A 
ATOM     26  F   UNL d   1      54.093  30.512  53.319  0.00  0.00    -0.204 F 
ATOM     27  C   UNL d   1      53.280  32.238  54.379  0.00  0.00     0.020 A 
ENDBRANCH  16  21
ENDBRANCH   1  15
TORSDOF 5
ENDMDL
MODEL 3
REMARK VINA RESULT:      -6.7      2.670      4.646
REMARK  5 active torsions:
REMARK  status: ('A' for Active; 'I' for Inactive)
REMARK    1  A    between atoms: C_11  and  N_1 
REMARK    2  A    between atoms: C_15  and  C_3 
REMARK    3  A    between atoms: N_4  and  C_7 
REMARK    4  A    between atoms: C_9  and  C_10 
REMARK       I    between atoms: C_10  and  N_12 
REMARK    5  A    between atoms: N_12  and  C_15 
ROOT
ATOM      1  C   UNL d   1      52.355  32.695  53.242  0.00  0.00     0.141 C 
ENDROOT
BRANCH   1   2
ATOM      2  N   UNL d   1      52.347  31.869  53.216  0.00  0.00    -0.203 NA
ATOM      3  C   UNL d   1      53.056  31.451  53.320  0.00  0.00     0.279 C 
ATOM      4  O   UNL d   1      53.747  31.851  53.445  0.00  0.00    -0.265 OA
BRANCH   3   5
ATOM      5  C   UNL d   1      53.042  30.620  53.294  0.00  0.00     0.059 A 
ATOM      6  C   UNL d   1      53.209  30.187  53.978  0.00  0.00     0.027 A 
ATOM      7  C   UNL d   1      53.196  29.376  53.950  0.00  0.00     0.127 A 
ATOM      8  C   UNL d   1      53.386  30.591  54.673  0.00  0.00     0.002 C 
ATOM      9  C   UNL d   1      53.016  28.972  53.243  0.00  0.00     0.024 A 
ATOM     10  C   UNL d   1      52.849  29.394  52.558  0.00  0.00     0.002 A 
ATOM     11  C   UNL d   1      52.862  30.208  52.583  0.00  0.00     0.005 A 
BRANCH   7  12
ATOM     12  N   UNL d   1      53.362  28.957  54.632  0.00  0.00    -0.114 N 
ATOM     13  O   UNL d   1      52.810  28.908  55.247  0.00  0.00    -0.532 OA
ATOM     14  O   UNL d   1      54.096  28.573  54.716  0.00  0.00    -0.532 OA
ENDBRANCH   7  12
ENDBRANCH   3   5
ENDBRANCH   1   2
BRANCH   1  15
ATOM     15  C   UNL d   1      51.652  33.118  53.133  0.00  0.00     0.191 A 
ATOM     16  N   UNL d   1      51.538  33.922  53.256  0.00  0.00    -0.264 N 
ATOM     17  C   UNL d   1      50.762  34.114  53.083  0.00  0.00     0.227 A 
ATOM     18  N   UNL d   1      50.374  33.415  52.845  0.00  0.00    -0.117 NA
ATOM     19  S   UNL d   1      50.416  34.858  53.132  0.00  0.00    -0.036 SA
ATOM     20  N   UNL d   1      50.929  32.794  52.876  0.00  0.00    -0.126 NA
BRANCH  16  21
ATOM     21  C   UNL d   1      52.120  34.455  53.515  0.00  0.00     0.068 A 
ATOM     22  C   UNL d   1      52.611  34.819  52.959  0.00  0.00     0.020 A 
ATOM     23  C   UNL d   1      53.186  35.346  53.228  0.00  0.00     0.031 A 
ATOM     24  C   UNL d   1      53.275  35.513  54.030  0.00  0.00     0.140 A 
ATOM     25  C   UNL d   1      52.774  35.139  54.577  0.00  0.00     0.031 A 
ATOM     26  F   UNL d   1      53.848  36.037  54.285  0.00  0.00    -0.204 F 
ATOM     27  C   UNL d   1      52.196  34.610  54.319  0.00  0.00     0.020 A 
ENDBRANCH  16  21
ENDBRANCH   1  15
TORSDOF 5
ENDMDL
MODEL 4
REMARK VINA RESULT:      -6.7      2.758      5.026
REMARK  5 active torsions:
REMARK  status: ('A' for Active; 'I' for Inactive)
REMARK    1  A    between atoms: C_11  and  N_1 
REMARK    2  A    between atoms: C_15  and  C_3 
REMARK    3  A    between atoms: N_4  and  C_7 
REMARK    4  A    between atoms: C_9  and  C_10 
REMARK       I    between atoms: C_10  and  N_12 
REMARK    5  A    between atoms: N_12  and  C_15 
ROOT
ATOM      1  C   UNL d   1      52.819  32.867  53.121  0.00  0.00     0.141 C 
ENDROOT
BRANCH   1   2
ATOM      2  N   UNL d   1      53.178  32.171  53.382  0.00  0.00    -0.203 NA
ATOM      3  C   UNL d   1      53.062  31.467  52.958  0.00  0.00     0.279 C 
ATOM      4  O   UNL d   1      52.600  31.466  52.295  0.00  0.00    -0.265 OA
BRANCH   3   5
ATOM      5  C   UNL d   1      53.427  30.769  53.226  0.00  0.00     0.059 A 
ATOM      6  C   UNL d   1      52.964  30.166  53.551  0.00  0.00     0.027 A 
ATOM      7  C   UNL d   1      53.322  29.486  53.811  0.00  0.00     0.127 A 
ATOM      8  C   UNL d   1      52.149  30.272  53.603  0.00  0.00     0.002 C 
ATOM      9  C   UNL d   1      54.148  29.385  53.756  0.00  0.00     0.024 A 
ATOM     10  C   UNL d   1      54.616  29.979  53.434  0.00  0.00     0.002 A 
ATOM     11  C   UNL d   1      54.259  30.662  53.172  0.00  0.00     0.005 A 
BRANCH   7  12
ATOM     12  N   UNL d   1      52.855  28.895  54.131  0.00  0.00    -0.114 N 
ATOM     13  O   UNL d   1      52.380  28.421  53.648  0.00  0.00    -0.532 OA
ATOM     14  O   UNL d   1      52.855  28.765  54.954  0.00  0.00    -0.532 OA
ENDBRANCH   7  12
ENDBRANCH   3   5
ENDBRANCH   1   2
BRANCH   1  15
ATOM     15  C   UNL d   1      52.940  33.574  53.534  0.00  0.00     0.191 A 
ATOM     16  N   UNL d   1      52.439  34.226  53.549  0.00  0.00    -0.264 N 
ATOM     17  C   UNL d   1      52.768  34.806  54.024  0.00  0.00     0.227 A 
ATOM     18  N   UNL d   1      53.493  34.515  54.316  0.00  0.00    -0.117 NA
ATOM     19  S   UNL d   1      52.449  35.545  54.190  0.00  0.00    -0.036 SA
ATOM     20  N   UNL d   1      53.600  33.748  54.011  0.00  0.00    -0.126 NA
BRANCH  16  21
ATOM     21  C   UNL d   1      51.716  34.285  53.147  0.00  0.00     0.068 A 
ATOM     22  C   UNL d   1      51.715  34.479  52.344  0.00  0.00     0.020 A 
ATOM     23  C   UNL d   1      50.990  34.535  51.954  0.00  0.00     0.031 A 
ATOM     24  C   UNL d   1      50.278  34.403  52.347  0.00  0.00     0.140 A 
ATOM     25  C   UNL d   1      50.295  34.209  53.154  0.00  0.00     0.031 A 
ATOM     26  F   UNL d   1      49.566  34.461  51.951  0.00  0.00    -0.204 F 
ATOM     27  C   UNL d   1      51.015  34.150  53.554  0.00  0.00     0.020 A 
ENDBRANCH  16  21
ENDBRANCH   1  15
TORSDOF 5
ENDMDL
MODEL 5
REMARK VINA RESULT:      -6.7      1.643      2.183
REMARK  5 active torsions:
REMARK  status: ('A' for Active; 'I' for Inactive)
REMARK    1  A    between atoms: C_11  and  N_1 
REMARK    2  A    between atoms: C_15  and  C_3 
REMARK    3  A    between atoms: N_4  and  C_7 
REMARK    4  A    between atoms: C_9  and  C_10 
REMARK       I    between atoms: C_10  and  N_12 
REMARK    5  A    between atoms: N_12  and  C_15 
ROOT
ATOM      1  C   UNL d   1      50.799  34.018  53.152  0.00  0.00     0.141 C 
ENDROOT
BRANCH   1   2
ATOM      2  N   UNL d   1      50.226  34.103  52.563  0.00  0.00    -0.203 NA
ATOM      3  C   UNL d   1      49.663  34.710  52.626  0.00  0.00     0.279 C 
ATOM      4  O   UNL d   1      49.679  35.213  53.259  0.00  0.00    -0.265 OA
BRANCH   3   5
ATOM      5  C   UNL d   1      49.088  34.791  52.031  0.00  0.00     0.059 A 
ATOM      6  C   UNL d   1      48.386  35.196  52.194  0.00  0.00     0.027 A 
ATOM      7  C   UNL d   1      47.827  35.273  51.612  0.00  0.00     0.127 A 
ATOM      8  C   UNL d   1      48.273  35.512  52.946  0.00  0.00     0.002 C 
ATOM      9  C   UNL d   1      47.947  34.951  50.852  0.00  0.00     0.024 A 
ATOM     10  C   UNL d   1      48.642  34.547  50.681  0.00  0.00     0.002 A 
ATOM     11  C   UNL d   1      49.205  34.468  51.263  0.00  0.00     0.005 A 
BRANCH   7  12
ATOM     12  N   UNL d   1      47.136  35.676  51.783  0.00  0.00    -0.114 N 
ATOM     13  O   UNL d   1      47.126  36.503  51.829  0.00  0.00    -0.532 OA
ATOM     14  O   UNL d   1      46.430  35.255  51.915  0.00  0.00    -0.532 OA
ENDBRANCH   7  12
ENDBRANCH   3   5
ENDBRANCH   1   2
BRANCH   1  15
ATOM     15  C   UNL d   1      51.335  33.388  53.119  0.00  0.00     0.191 A 
ATOM     16  N   UNL d   1      52.127  33.404  53.337  0.00  0.00    -0.264 N 
ATOM     17  C   UNL d   1      52.454  32.664  53.217  0.00  0.00     0.227 A 
ATOM     18  N   UNL d   1      51.856  32.167  52.915  0.00  0.00    -0.117 NA
ATOM     19  S   UNL d   1      53.231  32.440  53.363  0.00  0.00    -0.036 SA
ATOM     20  N   UNL d   1      51.158  32.618  52.854  0.00  0.00    -0.126 NA
BRANCH  16  21
ATOM     21  C   UNL d   1      52.530  34.067  53.632  0.00  0.00     0.068 A 
ATOM     22  C   UNL d   1      52.559  34.191  54.449  0.00  0.00     0.020 A 
ATOM     23  C   UNL d   1      52.962  34.854  54.731  0.00  0.00     0.031 A 
ATOM     24  C   UNL d   1      53.331  35.384  54.219  0.00  0.00     0.140 A 
ATOM     25  C   UNL d   1      53.292  35.245  53.401  0.00  0.00     0.031 A 
ATOM     26  F   UNL d   1      53.727  36.036  54.509  0.00  0.00    -0.204 F 
ATOM     27  C   UNL d   1      52.892  34.586  53.108  0.00  0.00     0.020 A 
ENDBRANCH  16  21
ENDBRANCH   1  15
TORSDOF 5
ENDMDL
