MODEL 1
REMARK VINA RESULT:      -4.8      0.000      0.000
REMARK  2 active torsions:
REMARK  status: ('A' for Active; 'I' for Inactive)
REMARK    1  A    between atoms: C_2  and  P_1 
REMARK    2  A    between atoms: C_7  and  C_2 
ROOT
ATOM      1  C   UNL d   1     -46.951  13.153  22.978  0.00  0.00     0.194 C 
ATOM      2  N   UNL d   1     -47.109  12.518  23.491  0.00  0.00    -0.138 N 
ENDROOT
BRANCH   1   3
ATOM      3  P   UNL d   1     -46.155  13.339  22.807  0.00  0.00     0.317 P 
ATOM      4  O   UNL d   1     -45.378  13.523  22.649  0.00  0.00    -0.635 OA
ATOM      5  O   UNL d   1     -46.049  13.533  23.622  0.00  0.00    -0.635 OA
ATOM      6  O   UNL d   1     -46.264  13.147  22.003  0.00  0.00    -0.635 OA
ENDBRANCH   1   3
BRANCH   1   7
ATOM      7  C   UNL d   1     -47.570  13.587  22.645  0.00  0.00     0.029 C 
ATOM      8  C   UNL d   1     -47.642  14.386  22.805  0.00  0.00     0.002 C 
ATOM      9  C   UNL d   1     -48.111  13.207  22.151  0.00  0.00     0.002 C 
ENDBRANCH   1   7
TORSDOF 2
ENDMDL
MODEL 2
REMARK VINA RESULT:      -4.5      2.394      2.848
REMARK  2 active torsions:
REMARK  status: ('A' for Active; 'I' for Inactive)
REMARK    1  A    between atoms: C_2  and  P_1 
REMARK    2  A    between atoms: C_7  and  C_2 
ROOT
ATOM      1  C   UNL d   1     -47.968  12.125  22.903  0.00  0.00     0.194 C 
ATOM      2  N   UNL d   1     -48.017  12.514  22.170  0.00  0.00    -0.138 N 
ENDROOT
BRANCH   1   3
ATOM      3  P   UNL d   1     -48.642  11.722  23.186  0.00  0.00     0.317 P 
ATOM      4  O   UNL d   1     -49.298  11.323  23.458  0.00  0.00    -0.635 OA
ATOM      5  O   UNL d   1     -48.448  11.081  22.673  0.00  0.00    -0.635 OA
ATOM      6  O   UNL d   1     -48.831  12.357  23.693  0.00  0.00    -0.635 OA
ENDBRANCH   1   3
BRANCH   1   7
ATOM      7  C   UNL d   1     -47.266  12.138  23.340  0.00  0.00     0.029 C 
ATOM      8  C   UNL d   1     -46.992  11.455  23.696  0.00  0.00     0.002 C 
ATOM      9  C   UNL d   1     -46.848  12.846  23.411  0.00  0.00     0.002 C 
ENDBRANCH   1   7
TORSDOF 2
ENDMDL
MODEL 3
REMARK VINA RESULT:      -4.4      2.306      2.681
REMARK  2 active torsions:
REMARK  status: ('A' for Active; 'I' for Inactive)
REMARK    1  A    between atoms: C_2  and  P_1 
REMARK    2  A    between atoms: C_7  and  C_2 
ROOT
ATOM      1  C   UNL d   1     -48.978  12.478  22.640  0.00  0.00     0.194 C 
ATOM      2  N   UNL d   1     -49.127  13.042  23.232  0.00  0.00    -0.138 N 
ENDROOT
BRANCH   1   3
ATOM      3  P   UNL d   1     -48.585  11.772  22.852  0.00  0.00     0.317 P 
ATOM      4  O   UNL d   1     -48.196  11.088  23.059  0.00  0.00    -0.635 OA
ATOM      5  O   UNL d   1     -47.858  12.200  22.847  0.00  0.00    -0.635 OA
ATOM      6  O   UNL d   1     -49.306  11.352  22.856  0.00  0.00    -0.635 OA
ENDBRANCH   1   3
BRANCH   1   7
ATOM      7  C   UNL d   1     -49.213  12.615  21.860  0.00  0.00     0.029 C 
ATOM      8  C   UNL d   1     -48.659  12.820  21.294  0.00  0.00     0.002 C 
ATOM      9  C   UNL d   1     -50.011  12.544  21.659  0.00  0.00     0.002 C 
ENDBRANCH   1   7
TORSDOF 2
ENDMDL
MODEL 4
REMARK VINA RESULT:      -3.3      0.940      1.287
REMARK  2 active torsions:
REMARK  status: ('A' for Active; 'I' for Inactive)
REMARK    1  A    between atoms: C_2  and  P_1 
REMARK    2  A    between atoms: C_7  and  C_2 
ROOT
ATOM      1  C   UNL d   1     -47.179  13.029  23.158  0.00  0.00     0.194 C 
ATOM      2  N   UNL d   1     -47.723  13.636  23.322  0.00  0.00    -0.138 N 
ENDROOT
BRANCH   1   3
ATOM      3  P   UNL d   1     -46.417  13.239  22.888  0.00  0.00     0.317 P 
ATOM      4  O   UNL d   1     -45.673  13.445  22.631  0.00  0.00    -0.635 OA
ATOM      5  O   UNL d   1     -46.180  13.332  23.692  0.00  0.00    -0.635 OA
ATOM      6  O   UNL d   1     -46.655  13.146  22.093  0.00  0.00    -0.635 OA
ENDBRANCH   1   3
BRANCH   1   7
ATOM      7  C   UNL d   1     -47.389  12.236  23.262  0.00  0.00     0.029 C 
ATOM      8  C   UNL d   1     -46.909  11.739  23.698  0.00  0.00     0.002 C 
ATOM      9  C   UNL d   1     -48.086  11.955  22.920  0.00  0.00     0.002 C 
ENDBRANCH   1   7
TORSDOF 2
ENDMDL
