MODEL 1
REMARK VINA RESULT:      19.2      0.000      0.000
REMARK  7 active torsions:
REMARK  status: ('A' for Active; 'I' for Inactive)
REMARK    1  A    between atoms: C_3  and  C_1 
REMARK    2  A    between atoms: C_4  and  C_1 
REMARK    3  A    between atoms: C_2  and  C_5 
REMARK    4  A    between atoms: O_14  and  C_2 
REMARK    5  A    between atoms: C_6  and  C_3 
REMARK    6  A    between atoms: C_13  and  C_4 
REMARK    7  A    between atoms: O_20  and  C_15 
ROOT
ATOM      1  C   UNL d   1      14.334  12.021  -1.359  0.00  0.00     0.042 C 
ENDROOT
BRANCH   1   2
ATOM      2  C   UNL d   1      14.270  12.367  -0.612  0.00  0.00     0.196 C 
ATOM      3  O   UNL d   1      13.827  12.006  -0.019  0.00  0.00    -0.287 OA
BRANCH   2   4
ATOM      4  C   UNL d   1      14.655  13.079  -0.464  0.00  0.00     0.039 A 
ATOM      5  C   UNL d   1      15.487  13.107  -0.448  0.00  0.00     0.005 A 
ATOM      6  C   UNL d   1      15.871  13.823  -0.298  0.00  0.00     0.024 A 
ATOM      7  C   UNL d   1      15.425  14.506  -0.165  0.00  0.00     0.094 A 
ATOM      8  C   UNL d   1      14.601  14.477  -0.180  0.00  0.00     0.024 A 
ATOM      9  C   UNL d   1      14.217  13.766  -0.329  0.00  0.00     0.005 A 
BRANCH   7  10
ATOM     10  O   UNL d   1      15.810  15.216  -0.016  0.00  0.00    -0.328 OA
ATOM     11  C   UNL d   1      15.501  15.927  -0.312  0.00  0.00     0.181 C 
ENDBRANCH   7  10
ENDBRANCH   2   4
ENDBRANCH   1   2
BRANCH   1  12
ATOM     12  C   UNL d   1      13.648  11.781  -1.760  0.00  0.00     0.003 C 
BRANCH  12  13
ATOM     13  C   UNL d   1      13.583  11.894  -2.572  0.00  0.00     0.000 A 
ATOM     14  C   UNL d   1      14.259  11.940  -3.027  0.00  0.00     0.000 A 
ATOM     15  C   UNL d   1      14.201  12.054  -3.843  0.00  0.00     0.005 A 
ATOM     16  C   UNL d   1      13.451  12.121  -4.199  0.00  0.00     0.063 A 
ATOM     17  C   UNL d   1      12.773  12.074  -3.733  0.00  0.00     0.005 A 
ATOM     18  C   UNL d   1      12.838  11.961  -2.922  0.00  0.00     0.000 A 
BRANCH  16  19
ATOM     19  C   UNL d   1      13.386  12.235  -5.011  0.00  0.00     0.296 C 
ATOM     20  O   UNL d   1      12.814  12.747  -5.312  0.00  0.00    -0.259 OA
BRANCH  19  21
ATOM     21  O   UNL d   1      13.892  11.837  -5.523  0.00  0.00    -0.296 OA
ATOM     22  C   UNL d   1      13.778  11.872  -6.338  0.00  0.00     0.185 C 
ENDBRANCH  19  21
ENDBRANCH  16  19
ENDBRANCH  12  13
ENDBRANCH   1  12
TORSDOF 7
ENDMDL
