MODEL 1
REMARK VINA RESULT:      -4.6      0.000      0.000
REMARK  3 active torsions:
REMARK  status: ('A' for Active; 'I' for Inactive)
REMARK    1  A    between atoms: C_3  and  C_1 
REMARK       I    between atoms: N_6  and  C_3 
REMARK    2  A    between atoms: C_12  and  N_5 
REMARK    3  A    between atoms: C_8  and  N_6 
ROOT
ATOM      1  C   UNL d   1      57.690  -0.045  30.297  0.00  0.00     0.348 C 
ATOM      2  N   UNL d   1      57.386  -0.279  31.036  0.00  0.00    -0.362 NA
ATOM      3  O   UNL d   1      57.369   0.636  29.898  0.00  0.00    -0.249 OA
ENDROOT
BRANCH   1   4
ATOM      4  C   UNL d   1      58.312  -0.486  29.955  0.00  0.00     0.173 A 
ATOM      5  N   UNL d   1      58.241  -1.242  29.613  0.00  0.00    -0.159 NA
ATOM      6  N   UNL d   1      58.998  -1.463  29.345  0.00  0.00    -0.227 N 
ATOM      7  C   UNL d   1      59.522  -0.853  29.521  0.00  0.00     0.102 A 
ATOM      8  C   UNL d   1      59.102  -0.246  29.898  0.00  0.00     0.048 A 
BRANCH   6   9
ATOM      9  C   UNL d   1      59.187  -2.174  28.968  0.00  0.00     0.101 C 
ATOM     10  C   UNL d   1      59.238  -2.962  29.205  0.00  0.00     0.022 C 
ENDBRANCH   6   9
ENDBRANCH   1   4
BRANCH   2  11
ATOM     11  C   UNL d   1      57.010  -0.420  31.760  0.00  0.00     0.146 A 
ATOM     12  C   UNL d   1      57.181   0.060  32.423  0.00  0.00     0.087 A 
ATOM     13 CL   UNL d   1      57.732   0.681  32.350  0.00  0.00    -0.080 Cl
ATOM     14  C   UNL d   1      56.813  -0.079  33.132  0.00  0.00     0.014 A 
ATOM     15  C   UNL d   1      56.269  -0.696  33.196  0.00  0.00     0.001 A 
ATOM     16  C   UNL d   1      56.095  -1.174  32.546  0.00  0.00     0.003 A 
ATOM     17  C   UNL d   1      56.467  -1.036  31.823  0.00  0.00     0.033 A 
ENDBRANCH   2  11
TORSDOF 3
ENDMDL
MODEL 2
REMARK VINA RESULT:      -4.4      1.377      3.823
REMARK  3 active torsions:
REMARK  status: ('A' for Active; 'I' for Inactive)
REMARK    1  A    between atoms: C_3  and  C_1 
REMARK       I    between atoms: N_6  and  C_3 
REMARK    2  A    between atoms: C_12  and  N_5 
REMARK    3  A    between atoms: C_8  and  N_6 
ROOT
ATOM      1  C   UNL d   1      57.846   0.284  30.152  0.00  0.00     0.348 C 
ATOM      2  N   UNL d   1      58.635   0.063  30.004  0.00  0.00    -0.362 NA
ATOM      3  O   UNL d   1      57.394   0.682  29.549  0.00  0.00    -0.249 OA
ENDROOT
BRANCH   1   4
ATOM      4  C   UNL d   1      57.507   0.111  30.896  0.00  0.00     0.173 A 
ATOM      5  N   UNL d   1      57.120  -0.597  31.101  0.00  0.00    -0.159 NA
ATOM      6  N   UNL d   1      56.873  -0.522  31.893  0.00  0.00    -0.227 N 
ATOM      7  C   UNL d   1      57.105   0.219  32.167  0.00  0.00     0.102 A 
ATOM      8  C   UNL d   1      57.497   0.615  31.553  0.00  0.00     0.048 A 
BRANCH   6   9
ATOM      9  C   UNL d   1      56.466  -1.096  32.327  0.00  0.00     0.101 C 
ATOM     10  C   UNL d   1      55.888  -1.078  32.915  0.00  0.00     0.022 C 
ENDBRANCH   6   9
ENDBRANCH   1   4
BRANCH   2  11
ATOM     11  C   UNL d   1      59.404  -0.110  29.751  0.00  0.00     0.146 A 
ATOM     12  C   UNL d   1      59.548  -0.773  29.264  0.00  0.00     0.087 A 
ATOM     13 CL   UNL d   1      58.910  -1.259  29.033  0.00  0.00    -0.080 Cl
ATOM     14  C   UNL d   1      60.301  -0.941  29.016  0.00  0.00     0.014 A 
ATOM     15  C   UNL d   1      60.925  -0.455  29.249  0.00  0.00     0.001 A 
ATOM     16  C   UNL d   1      60.792   0.202  29.731  0.00  0.00     0.003 A 
ATOM     17  C   UNL d   1      60.027   0.377  29.984  0.00  0.00     0.033 A 
ENDBRANCH   2  11
TORSDOF 3
ENDMDL
MODEL 3
REMARK VINA RESULT:      -4.1      1.337      1.744
REMARK  3 active torsions:
REMARK  status: ('A' for Active; 'I' for Inactive)
REMARK    1  A    between atoms: C_3  and  C_1 
REMARK       I    between atoms: N_6  and  C_3 
REMARK    2  A    between atoms: C_12  and  N_5 
REMARK    3  A    between atoms: C_8  and  N_6 
ROOT
ATOM      1  C   UNL d   1      57.781   0.364  31.688  0.00  0.00     0.348 C 
ATOM      2  N   UNL d   1      57.057   0.180  32.057  0.00  0.00    -0.362 NA
ATOM      3  O   UNL d   1      58.426   0.679  32.147  0.00  0.00    -0.249 OA
ENDROOT
BRANCH   1   4
ATOM      4  C   UNL d   1      57.864   0.235  30.867  0.00  0.00     0.173 A 
ATOM      5  N   UNL d   1      58.319  -0.366  30.513  0.00  0.00    -0.159 NA
ATOM      6  N   UNL d   1      58.239  -0.282  29.689  0.00  0.00    -0.227 N 
ATOM      7  C   UNL d   1      57.744   0.359  29.541  0.00  0.00     0.102 A 
ATOM      8  C   UNL d   1      57.509   0.682  30.268  0.00  0.00     0.048 A 
BRANCH   6   9
ATOM      9  C   UNL d   1      58.597  -0.763  29.118  0.00  0.00     0.101 C 
ATOM     10  C   UNL d   1      59.295  -0.724  28.682  0.00  0.00     0.022 C 
ENDBRANCH   6   9
ENDBRANCH   1   4
BRANCH   2  11
ATOM     11  C   UNL d   1      56.388   0.035  32.522  0.00  0.00     0.146 A 
ATOM     12  C   UNL d   1      56.139  -0.750  32.668  0.00  0.00     0.087 A 
ATOM     13 CL   UNL d   1      56.570  -1.385  32.340  0.00  0.00    -0.080 Cl
ATOM     14  C   UNL d   1      55.484  -0.892  33.123  0.00  0.00     0.014 A 
ATOM     15  C   UNL d   1      55.064  -0.258  33.443  0.00  0.00     0.001 A 
ATOM     16  C   UNL d   1      55.303   0.520  33.304  0.00  0.00     0.003 A 
ATOM     17  C   UNL d   1      55.969   0.669  32.841  0.00  0.00     0.033 A 
ENDBRANCH   2  11
TORSDOF 3
ENDMDL
MODEL 4
REMARK VINA RESULT:      -3.9      8.525      9.663
REMARK  3 active torsions:
REMARK  status: ('A' for Active; 'I' for Inactive)
REMARK    1  A    between atoms: C_3  and  C_1 
REMARK       I    between atoms: N_6  and  C_3 
REMARK    2  A    between atoms: C_12  and  N_5 
REMARK    3  A    between atoms: C_8  and  N_6 
ROOT
ATOM      1  C   UNL d   1      60.108  -8.751  35.556  0.00  0.00     0.348 C 
ATOM      2  N   UNL d   1      60.210  -8.906  34.744  0.00  0.00    -0.362 NA
ATOM      3  O   UNL d   1      59.983  -9.393  36.101  0.00  0.00    -0.249 OA
ENDROOT
BRANCH   1   4
ATOM      4  C   UNL d   1      60.129  -7.960  35.825  0.00  0.00     0.173 A 
ATOM      5  N   UNL d   1      60.798  -7.465  35.828  0.00  0.00    -0.159 NA
ATOM      6  N   UNL d   1      60.560  -6.732  36.143  0.00  0.00    -0.227 N 
ATOM      7  C   UNL d   1      59.760  -6.778  36.329  0.00  0.00     0.102 A 
ATOM      8  C   UNL d   1      59.488  -7.536  36.134  0.00  0.00     0.048 A 
BRANCH   6   9
ATOM      9  C   UNL d   1      61.048  -6.072  36.249  0.00  0.00     0.101 C 
ATOM     10  C   UNL d   1      60.976  -5.266  36.093  0.00  0.00     0.022 C 
ENDBRANCH   6   9
ENDBRANCH   1   4
BRANCH   2  11
ATOM     11  C   UNL d   1      60.300  -9.174  33.966  0.00  0.00     0.146 A 
ATOM     12  C   UNL d   1      59.637  -9.444  33.534  0.00  0.00     0.087 A 
ATOM     13 CL   UNL d   1      58.885  -9.442  33.894  0.00  0.00    -0.080 Cl
ATOM     14  C   UNL d   1      59.726  -9.706  32.773  0.00  0.00     0.014 A 
ATOM     15  C   UNL d   1      60.473  -9.704  32.425  0.00  0.00     0.001 A 
ATOM     16  C   UNL d   1      61.133  -9.438  32.844  0.00  0.00     0.003 A 
ATOM     17  C   UNL d   1      61.048  -9.172  33.619  0.00  0.00     0.033 A 
ENDBRANCH   2  11
TORSDOF 3
ENDMDL
MODEL 5
REMARK VINA RESULT:      -3.2      1.991      4.411
REMARK  3 active torsions:
REMARK  status: ('A' for Active; 'I' for Inactive)
REMARK    1  A    between atoms: C_3  and  C_1 
REMARK       I    between atoms: N_6  and  C_3 
REMARK    2  A    between atoms: C_12  and  N_5 
REMARK    3  A    between atoms: C_8  and  N_6 
ROOT
ATOM      1  C   UNL d   1      56.495  -0.722  32.590  0.00  0.00     0.348 C 
ATOM      2  N   UNL d   1      56.978  -0.307  32.053  0.00  0.00    -0.362 NA
ATOM      3  O   UNL d   1      56.486  -1.574  32.584  0.00  0.00    -0.249 OA
ENDROOT
BRANCH   1   4
ATOM      4  C   UNL d   1      56.024  -0.293  33.130  0.00  0.00     0.173 A 
ATOM      5  N   UNL d   1      56.251  -0.061  33.897  0.00  0.00    -0.159 NA
ATOM      6  N   UNL d   1      55.609   0.351  34.230  0.00  0.00    -0.227 N 
ATOM      7  C   UNL d   1      55.000   0.371  33.677  0.00  0.00     0.102 A 
ATOM      8  C   UNL d   1      55.252  -0.027  32.994  0.00  0.00     0.048 A 
BRANCH   6   9
ATOM      9  C   UNL d   1      55.590   0.682  34.987  0.00  0.00     0.101 C 
ATOM     10  C   UNL d   1      55.068   0.645  35.625  0.00  0.00     0.022 C 
ENDBRANCH   6   9
ENDBRANCH   1   4
BRANCH   2  11
ATOM     11  C   UNL d   1      57.491   0.001  31.481  0.00  0.00     0.146 A 
ATOM     12  C   UNL d   1      58.199   0.381  31.710  0.00  0.00     0.087 A 
ATOM     13 CL   UNL d   1      58.385   0.447  32.521  0.00  0.00    -0.080 Cl
ATOM     14  C   UNL d   1      58.701   0.682  31.150  0.00  0.00     0.014 A 
ATOM     15  C   UNL d   1      58.509   0.612  30.351  0.00  0.00     0.001 A 
ATOM     16  C   UNL d   1      57.811   0.239  30.115  0.00  0.00     0.003 A 
ATOM     17  C   UNL d   1      57.298  -0.069  30.683  0.00  0.00     0.033 A 
ENDBRANCH   2  11
TORSDOF 3
ENDMDL
