MODEL 1
REMARK VINA RESULT:      -2.4      0.000      0.000
REMARK  4 active torsions:
REMARK  status: ('A' for Active; 'I' for Inactive)
REMARK    1  A    between atoms: C_10  and  C_3 
REMARK    2  A    between atoms: C_12  and  N_6 
REMARK    3  A    between atoms: O_15  and  C_10 
REMARK    4  A    between atoms: C_18  and  O_15 
ROOT
ATOM      1  C   UNL d   1      31.881  16.584 -24.552  0.00  0.00     0.086 A 
ATOM      2  C   UNL d   1      31.063  16.657 -24.630  0.00  0.00     0.038 A 
ATOM      3  C   UNL d   1      30.681  17.346 -24.388  0.00  0.00     0.165 A 
ATOM      4  C   UNL d   1      32.317  17.208 -24.228  0.00  0.00     0.282 A 
ATOM      5  N   UNL d   1      31.118  17.961 -24.068  0.00  0.00    -0.157 NA
ATOM      6  N   UNL d   1      31.936  17.892 -23.988  0.00  0.00    -0.194 N 
ATOM      7  C   UNL d   1      32.098  15.841 -24.838  0.00  0.00     0.137 A 
ATOM      8  C   UNL d   1      30.771  15.964 -24.963  0.00  0.00     0.039 A 
ATOM      9  S   UNL d   1      31.417  15.453 -25.094  0.00  0.00    -0.066 SA
ATOM     10  O   UNL d   1      33.135  17.138 -24.148  0.00  0.00    -0.265 OA
ATOM     11  N   UNL d   1      32.868  15.538 -24.864  0.00  0.00    -0.141 N 
ENDROOT
BRANCH   6  12
ATOM     12  C   UNL d   1      32.373  18.515 -23.665  0.00  0.00     0.086 A 
ATOM     13  C   UNL d   1      32.766  19.043 -24.159  0.00  0.00     0.019 A 
ATOM     14  C   UNL d   1      33.200  19.663 -23.835  0.00  0.00     0.002 A 
ATOM     15  C   UNL d   1      33.241  19.755 -23.016  0.00  0.00     0.000 A 
ATOM     16  C   UNL d   1      32.845  19.224 -22.521  0.00  0.00     0.002 A 
ATOM     17  C   UNL d   1      32.411  18.604 -22.846  0.00  0.00     0.019 A 
ENDBRANCH   6  12
BRANCH   3  18
ATOM     18  C   UNL d   1      29.863  17.415 -24.468  0.00  0.00     0.320 C 
ATOM     19  O   UNL d   1      29.545  17.918 -25.038  0.00  0.00    -0.257 OA
BRANCH  18  20
ATOM     20  O   UNL d   1      29.362  16.979 -23.975  0.00  0.00    -0.270 OA
BRANCH  20  21
ATOM     21  C   UNL d   1      28.643  17.297 -23.733  0.00  0.00     0.126 C 
ATOM     22  C   UNL d   1      27.989  16.805 -23.634  0.00  0.00     0.029 C 
ENDBRANCH  20  21
ENDBRANCH  18  20
ENDBRANCH   3  18
TORSDOF 4
ENDMDL
MODEL 2
REMARK VINA RESULT:      -1.7      1.072      3.317
REMARK  4 active torsions:
REMARK  status: ('A' for Active; 'I' for Inactive)
REMARK    1  A    between atoms: C_10  and  C_3 
REMARK    2  A    between atoms: C_12  and  N_6 
REMARK    3  A    between atoms: O_15  and  C_10 
REMARK    4  A    between atoms: C_18  and  O_15 
ROOT
ATOM      1  C   UNL d   1      31.950  16.826 -24.676  0.00  0.00     0.086 A 
ATOM      2  C   UNL d   1      32.387  17.509 -24.527  0.00  0.00     0.038 A 
ATOM      3  C   UNL d   1      32.009  18.203 -24.293  0.00  0.00     0.165 A 
ATOM      4  C   UNL d   1      31.128  16.840 -24.590  0.00  0.00     0.282 A 
ATOM      5  N   UNL d   1      31.193  18.211 -24.209  0.00  0.00    -0.157 NA
ATOM      6  N   UNL d   1      30.753  17.530 -24.358  0.00  0.00    -0.194 N 
ATOM      7  C   UNL d   1      32.478  16.230 -24.897  0.00  0.00     0.137 A 
ATOM      8  C   UNL d   1      33.182  17.341 -24.653  0.00  0.00     0.039 A 
ATOM      9  S   UNL d   1      33.240  16.542 -24.885  0.00  0.00    -0.066 SA
ATOM     10  O   UNL d   1      30.687  16.158 -24.739  0.00  0.00    -0.265 OA
ATOM     11  N   UNL d   1      32.274  15.453 -25.097  0.00  0.00    -0.141 N 
ENDROOT
BRANCH   6  12
ATOM     12  C   UNL d   1      29.931  17.544 -24.271  0.00  0.00     0.086 A 
ATOM     13  C   UNL d   1      29.588  17.329 -23.555  0.00  0.00     0.019 A 
ATOM     14  C   UNL d   1      28.768  17.344 -23.471  0.00  0.00     0.002 A 
ATOM     15  C   UNL d   1      28.293  17.574 -24.105  0.00  0.00     0.000 A 
ATOM     16  C   UNL d   1      28.639  17.789 -24.825  0.00  0.00     0.002 A 
ATOM     17  C   UNL d   1      29.458  17.774 -24.907  0.00  0.00     0.019 A 
ENDBRANCH   6  12
BRANCH   3  18
ATOM     18  C   UNL d   1      32.449  18.884 -24.144  0.00  0.00     0.320 C 
ATOM     19  O   UNL d   1      32.768  19.313 -24.770  0.00  0.00    -0.257 OA
BRANCH  18  20
ATOM     20  O   UNL d   1      32.570  19.135 -23.365  0.00  0.00    -0.270 OA
BRANCH  20  21
ATOM     21  C   UNL d   1      32.881  19.882 -23.217  0.00  0.00     0.126 C 
ATOM     22  C   UNL d   1      32.857  20.193 -22.454  0.00  0.00     0.029 C 
ENDBRANCH  20  21
ENDBRANCH  18  20
ENDBRANCH   3  18
TORSDOF 4
ENDMDL
MODEL 3
REMARK VINA RESULT:      -0.1      4.148      5.907
REMARK  4 active torsions:
REMARK  status: ('A' for Active; 'I' for Inactive)
REMARK    1  A    between atoms: C_10  and  C_3 
REMARK    2  A    between atoms: C_12  and  N_6 
REMARK    3  A    between atoms: O_15  and  C_10 
REMARK    4  A    between atoms: C_18  and  O_15 
ROOT
ATOM      1  C   UNL d   1      32.945  21.726 -20.868  0.00  0.00     0.086 A 
ATOM      2  C   UNL d   1      32.975  22.387 -21.360  0.00  0.00     0.038 A 
ATOM      3  C   UNL d   1      33.059  22.296 -22.175  0.00  0.00     0.165 A 
ATOM      4  C   UNL d   1      32.998  20.969 -21.196  0.00  0.00     0.282 A 
ATOM      5  N   UNL d   1      33.111  21.544 -22.496  0.00  0.00    -0.157 NA
ATOM      6  N   UNL d   1      33.081  20.880 -22.006  0.00  0.00    -0.194 N 
ATOM      7  C   UNL d   1      32.860  21.992 -20.090  0.00  0.00     0.137 A 
ATOM      8  C   UNL d   1      32.911  23.061 -20.893  0.00  0.00     0.039 A 
ATOM      9  S   UNL d   1      32.839  22.816 -20.099  0.00  0.00    -0.066 SA
ATOM     10  O   UNL d   1      32.968  20.305 -20.707  0.00  0.00    -0.265 OA
ATOM     11  N   UNL d   1      32.807  21.512 -19.418  0.00  0.00    -0.141 N 
ENDROOT
BRANCH   6  12
ATOM     12  C   UNL d   1      33.134  20.123 -22.335  0.00  0.00     0.086 A 
ATOM     13  C   UNL d   1      33.160  20.030 -23.152  0.00  0.00     0.019 A 
ATOM     14  C   UNL d   1      33.214  19.275 -23.477  0.00  0.00     0.002 A 
ATOM     15  C   UNL d   1      33.241  18.614 -22.985  0.00  0.00     0.000 A 
ATOM     16  C   UNL d   1      33.215  18.710 -22.163  0.00  0.00     0.002 A 
ATOM     17  C   UNL d   1      33.161  19.465 -21.839  0.00  0.00     0.019 A 
ENDBRANCH   6  12
BRANCH   3  18
ATOM     18  C   UNL d   1      33.089  22.960 -22.664  0.00  0.00     0.320 C 
ATOM     19  O   UNL d   1      33.241  23.702 -22.342  0.00  0.00    -0.257 OA
BRANCH  18  20
ATOM     20  O   UNL d   1      32.966  22.878 -23.478  0.00  0.00    -0.270 OA
BRANCH  20  21
ATOM     21  C   UNL d   1      32.964  23.542 -23.963  0.00  0.00     0.126 C 
ATOM     22  C   UNL d   1      32.950  23.452 -24.781  0.00  0.00     0.029 C 
ENDBRANCH  20  21
ENDBRANCH  18  20
ENDBRANCH   3  18
TORSDOF 4
ENDMDL
MODEL 4
REMARK VINA RESULT:       0.3      3.557      5.147
REMARK  4 active torsions:
REMARK  status: ('A' for Active; 'I' for Inactive)
REMARK    1  A    between atoms: C_10  and  C_3 
REMARK    2  A    between atoms: C_12  and  N_6 
REMARK    3  A    between atoms: O_15  and  C_10 
REMARK    4  A    between atoms: C_18  and  O_15 
ROOT
ATOM      1  C   UNL d   1      33.083  22.184 -23.714  0.00  0.00     0.086 A 
ATOM      2  C   UNL d   1      33.153  21.396 -23.945  0.00  0.00     0.038 A 
ATOM      3  C   UNL d   1      33.129  20.793 -23.384  0.00  0.00     0.165 A 
ATOM      4  C   UNL d   1      32.987  22.368 -22.913  0.00  0.00     0.282 A 
ATOM      5  N   UNL d   1      33.035  20.981 -22.591  0.00  0.00    -0.157 NA
ATOM      6  N   UNL d   1      32.964  21.768 -22.356  0.00  0.00    -0.194 N 
ATOM      7  C   UNL d   1      33.127  22.653 -24.392  0.00  0.00     0.137 A 
ATOM      8  C   UNL d   1      33.241  21.372 -24.762  0.00  0.00     0.039 A 
ATOM      9  S   UNL d   1      33.225  22.158 -25.044  0.00  0.00    -0.066 SA
ATOM     10  O   UNL d   1      32.916  23.156 -22.678  0.00  0.00    -0.265 OA
ATOM     11  N   UNL d   1      33.081  23.480 -24.414  0.00  0.00    -0.141 N 
ENDROOT
BRANCH   6  12
ATOM     12  C   UNL d   1      32.868  21.952 -21.556  0.00  0.00     0.086 A 
ATOM     13  C   UNL d   1      32.456  22.629 -21.334  0.00  0.00     0.019 A 
ATOM     14  C   UNL d   1      32.362  22.811 -20.537  0.00  0.00     0.002 A 
ATOM     15  C   UNL d   1      32.681  22.314 -19.960  0.00  0.00     0.000 A 
ATOM     16  C   UNL d   1      33.096  21.634 -20.184  0.00  0.00     0.002 A 
ATOM     17  C   UNL d   1      33.189  21.453 -20.982  0.00  0.00     0.019 A 
ENDBRANCH   6  12
BRANCH   3  18
ATOM     18  C   UNL d   1      33.200  20.006 -23.619  0.00  0.00     0.320 C 
ATOM     19  O   UNL d   1      33.238  19.816 -24.419  0.00  0.00    -0.257 OA
BRANCH  18  20
ATOM     20  O   UNL d   1      33.234  19.407 -23.049  0.00  0.00    -0.270 OA
BRANCH  20  21
ATOM     21  C   UNL d   1      33.046  18.633 -23.254  0.00  0.00     0.126 C 
ATOM     22  C   UNL d   1      33.225  18.017 -22.738  0.00  0.00     0.029 C 
ENDBRANCH  20  21
ENDBRANCH  18  20
ENDBRANCH   3  18
TORSDOF 4
ENDMDL
