MODEL 1
REMARK VINA RESULT:      -8.0      0.000      0.000
REMARK  3 active torsions:
REMARK  status: ('A' for Active; 'I' for Inactive)
REMARK    1  A    between atoms: N_5  and  C_1 
REMARK       I    between atoms: C_6  and  N_5 
REMARK    2  A    between atoms: C_8  and  C_6 
REMARK    3  A    between atoms: O_16  and  C_12 
ROOT
ATOM      1  C   UNL d   1      52.550  33.478  53.501  0.00  0.00     0.124 A 
ATOM      2  C   UNL d   1      53.011  32.815  53.592  0.00  0.00     0.093 A 
ATOM      3  S   UNL d   1      52.821  34.077  53.990  0.00  0.00    -0.067 SA
ATOM      4  C   UNL d   1      53.595  32.971  54.146  0.00  0.00     0.018 A 
ATOM      5  C   UNL d   1      53.472  33.784  54.402  0.00  0.00     0.032 A 
ATOM      6  C   UNL d   1      52.917  32.053  53.177  0.00  0.00     0.103 C 
ATOM      7  N   UNL d   1      52.817  31.331  52.776  0.00  0.00    -0.191 NA
ATOM      8  C   UNL d   1      54.244  32.694  54.564  0.00  0.00     0.001 A 
ATOM      9  C   UNL d   1      54.054  33.956  54.962  0.00  0.00     0.006 A 
ATOM     10  C   UNL d   1      54.523  33.284  55.055  0.00  0.00     0.001 A 
ENDROOT
BRANCH   1  11
ATOM     11  N   UNL d   1      51.876  33.544  52.969  0.00  0.00    -0.201 NA
ATOM     12  C   UNL d   1      51.524  34.272  52.869  0.00  0.00     0.281 C 
ATOM     13  O   UNL d   1      51.786  34.971  53.261  0.00  0.00    -0.265 OA
BRANCH  12  14
ATOM     14  C   UNL d   1      50.869  34.336  52.353  0.00  0.00     0.080 A 
ATOM     15  C   UNL d   1      50.106  34.611  52.650  0.00  0.00     0.099 A 
ATOM     16  C   UNL d   1      49.464  34.674  52.144  0.00  0.00     0.024 A 
ATOM     17  C   UNL d   1      49.578  34.463  51.335  0.00  0.00     0.002 A 
ATOM     18  C   UNL d   1      50.240  34.216  51.036  0.00  0.00     0.000 A 
ATOM     19  C   UNL d   1      50.932  34.139  51.543  0.00  0.00     0.007 A 
BRANCH  15  20
ATOM     20  O   UNL d   1      49.996  34.819  53.454  0.00  0.00    -0.328 OA
ATOM     21  C   UNL d   1      49.315  35.219  53.708  0.00  0.00     0.181 C 
ENDBRANCH  15  20
ENDBRANCH  12  14
ENDBRANCH   1  11
TORSDOF 3
ENDMDL
MODEL 2
REMARK VINA RESULT:      -7.7      2.076      3.890
REMARK  3 active torsions:
REMARK  status: ('A' for Active; 'I' for Inactive)
REMARK    1  A    between atoms: N_5  and  C_1 
REMARK       I    between atoms: C_6  and  N_5 
REMARK    2  A    between atoms: C_8  and  C_6 
REMARK    3  A    between atoms: O_16  and  C_12 
ROOT
ATOM      1  C   UNL d   1      52.795  33.111  53.700  0.00  0.00     0.124 A 
ATOM      2  C   UNL d   1      52.229  33.692  53.645  0.00  0.00     0.093 A 
ATOM      3  S   UNL d   1      53.494  33.428  53.987  0.00  0.00    -0.067 SA
ATOM      4  C   UNL d   1      52.551  34.402  53.897  0.00  0.00     0.018 A 
ATOM      5  C   UNL d   1      53.366  34.233  54.117  0.00  0.00     0.032 A 
ATOM      6  C   UNL d   1      51.408  33.594  53.366  0.00  0.00     0.103 C 
ATOM      7  N   UNL d   1      50.627  33.490  53.098  0.00  0.00    -0.191 NA
ATOM      8  C   UNL d   1      52.439  35.204  54.031  0.00  0.00     0.001 A 
ATOM      9  C   UNL d   1      53.704  34.941  54.374  0.00  0.00     0.006 A 
ATOM     10  C   UNL d   1      53.130  35.530  54.318  0.00  0.00     0.001 A 
ENDROOT
BRANCH   1  11
ATOM     11  N   UNL d   1      52.680  32.285  53.488  0.00  0.00    -0.201 NA
ATOM     12  C   UNL d   1      53.309  31.770  53.557  0.00  0.00     0.281 C 
ATOM     13  O   UNL d   1      54.073  32.005  53.827  0.00  0.00    -0.265 OA
BRANCH  12  14
ATOM     14  C   UNL d   1      53.197  30.967  53.352  0.00  0.00     0.080 A 
ATOM     15  C   UNL d   1      53.221  30.355  53.961  0.00  0.00     0.099 A 
ATOM     16  C   UNL d   1      53.112  29.568  53.759  0.00  0.00     0.024 A 
ATOM     17  C   UNL d   1      52.978  29.384  52.947  0.00  0.00     0.002 A 
ATOM     18  C   UNL d   1      52.950  29.900  52.380  0.00  0.00     0.000 A 
ATOM     19  C   UNL d   1      53.061  30.735  52.560  0.00  0.00     0.007 A 
BRANCH  15  20
ATOM     20  O   UNL d   1      53.355  30.541  54.766  0.00  0.00    -0.328 OA
ATOM     21  C   UNL d   1      53.319  29.959  55.356  0.00  0.00     0.181 C 
ENDBRANCH  15  20
ENDBRANCH  12  14
ENDBRANCH   1  11
TORSDOF 3
ENDMDL
MODEL 3
REMARK VINA RESULT:      -7.3      1.282      2.117
REMARK  3 active torsions:
REMARK  status: ('A' for Active; 'I' for Inactive)
REMARK    1  A    between atoms: N_5  and  C_1 
REMARK       I    between atoms: C_6  and  N_5 
REMARK    2  A    between atoms: C_8  and  C_6 
REMARK    3  A    between atoms: O_16  and  C_12 
ROOT
ATOM      1  C   UNL d   1      51.961  34.017  53.265  0.00  0.00     0.124 A 
ATOM      2  C   UNL d   1      52.642  34.250  53.642  0.00  0.00     0.093 A 
ATOM      3  S   UNL d   1      52.032  33.241  53.012  0.00  0.00    -0.067 SA
ATOM      4  C   UNL d   1      53.173  33.625  53.640  0.00  0.00     0.018 A 
ATOM      5  C   UNL d   1      52.781  32.975  53.235  0.00  0.00     0.032 A 
ATOM      6  C   UNL d   1      52.802  35.031  53.995  0.00  0.00     0.103 C 
ATOM      7  N   UNL d   1      52.943  35.780  54.329  0.00  0.00    -0.191 NA
ATOM      8  C   UNL d   1      53.915  33.347  53.856  0.00  0.00     0.001 A 
ATOM      9  C   UNL d   1      53.305  32.338  53.226  0.00  0.00     0.006 A 
ATOM     10  C   UNL d   1      53.997  32.573  53.608  0.00  0.00     0.001 A 
ENDROOT
BRANCH   1  11
ATOM     11  N   UNL d   1      51.265  34.511  53.148  0.00  0.00    -0.201 NA
ATOM     12  C   UNL d   1      50.552  34.152  52.982  0.00  0.00     0.281 C 
ATOM     13  O   UNL d   1      50.457  33.317  52.918  0.00  0.00    -0.265 OA
BRANCH  12  14
ATOM     14  C   UNL d   1      49.876  34.632  52.869  0.00  0.00     0.080 A 
ATOM     15  C   UNL d   1      49.503  34.680  52.091  0.00  0.00     0.099 A 
ATOM     16  C   UNL d   1      48.841  35.150  51.980  0.00  0.00     0.024 A 
ATOM     17  C   UNL d   1      48.544  35.577  52.645  0.00  0.00     0.002 A 
ATOM     18  C   UNL d   1      48.849  35.557  53.348  0.00  0.00     0.000 A 
ATOM     19  C   UNL d   1      49.545  35.073  53.497  0.00  0.00     0.007 A 
BRANCH  15  20
ATOM     20  O   UNL d   1      49.801  34.256  51.433  0.00  0.00    -0.328 OA
ATOM     21  C   UNL d   1      49.438  34.303  50.689  0.00  0.00     0.181 C 
ENDBRANCH  15  20
ENDBRANCH  12  14
ENDBRANCH   1  11
TORSDOF 3
ENDMDL
MODEL 4
REMARK VINA RESULT:      -7.0      2.579      4.107
REMARK  3 active torsions:
REMARK  status: ('A' for Active; 'I' for Inactive)
REMARK    1  A    between atoms: N_5  and  C_1 
REMARK       I    between atoms: C_6  and  N_5 
REMARK    2  A    between atoms: C_8  and  C_6 
REMARK    3  A    between atoms: O_16  and  C_12 
ROOT
ATOM      1  C   UNL d   1      53.628  31.486  53.720  0.00  0.00     0.124 A 
ATOM      2  C   UNL d   1      53.032  31.347  53.186  0.00  0.00     0.093 A 
ATOM      3  S   UNL d   1      53.826  30.791  54.107  0.00  0.00    -0.067 SA
ATOM      4  C   UNL d   1      52.829  30.554  53.216  0.00  0.00     0.018 A 
ATOM      5  C   UNL d   1      53.340  30.195  53.809  0.00  0.00     0.032 A 
ATOM      6  C   UNL d   1      52.657  31.933  52.660  0.00  0.00     0.103 C 
ATOM      7  N   UNL d   1      52.306  32.500  52.162  0.00  0.00    -0.191 NA
ATOM      8  C   UNL d   1      52.352  29.950  52.929  0.00  0.00     0.001 A 
ATOM      9  C   UNL d   1      53.146  29.394  53.849  0.00  0.00     0.006 A 
ATOM     10  C   UNL d   1      52.540  29.252  53.308  0.00  0.00     0.001 A 
ENDROOT
BRANCH   1  11
ATOM     11  N   UNL d   1      54.000  32.250  53.861  0.00  0.00    -0.201 NA
ATOM     12  C   UNL d   1      54.069  32.519  54.627  0.00  0.00     0.281 C 
ATOM     13  O   UNL d   1      53.794  32.086  55.297  0.00  0.00    -0.265 OA
BRANCH  12  14
ATOM     14  C   UNL d   1      54.430  33.261  54.764  0.00  0.00     0.080 A 
ATOM     15  C   UNL d   1      53.947  33.954  54.942  0.00  0.00     0.099 A 
ATOM     16  C   UNL d   1      54.301  34.681  55.076  0.00  0.00     0.024 A 
ATOM     17  C   UNL d   1      55.143  34.723  55.033  0.00  0.00     0.002 A 
ATOM     18  C   UNL d   1      55.603  34.130  54.878  0.00  0.00     0.000 A 
ATOM     19  C   UNL d   1      55.261  33.352  54.733  0.00  0.00     0.007 A 
BRANCH  15  20
ATOM     20  O   UNL d   1      53.112  33.908  54.983  0.00  0.00    -0.328 OA
ATOM     21  C   UNL d   1      52.642  34.592  55.015  0.00  0.00     0.181 C 
ENDBRANCH  15  20
ENDBRANCH  12  14
ENDBRANCH   1  11
TORSDOF 3
ENDMDL
MODEL 5
REMARK VINA RESULT:      -6.9      1.748      2.597
REMARK  3 active torsions:
REMARK  status: ('A' for Active; 'I' for Inactive)
REMARK    1  A    between atoms: N_5  and  C_1 
REMARK       I    between atoms: C_6  and  N_5 
REMARK    2  A    between atoms: C_8  and  C_6 
REMARK    3  A    between atoms: O_16  and  C_12 
ROOT
ATOM      1  C   UNL d   1      52.847  31.566  53.071  0.00  0.00     0.124 A 
ATOM      2  C   UNL d   1      53.594  31.364  53.315  0.00  0.00     0.093 A 
ATOM      3  S   UNL d   1      52.352  30.914  53.109  0.00  0.00    -0.067 SA
ATOM      4  C   UNL d   1      53.601  30.570  53.519  0.00  0.00     0.018 A 
ATOM      5  C   UNL d   1      52.801  30.280  53.387  0.00  0.00     0.032 A 
ATOM      6  C   UNL d   1      54.289  31.890  53.360  0.00  0.00     0.103 C 
ATOM      7  N   UNL d   1      54.944  32.401  53.399  0.00  0.00    -0.191 NA
ATOM      8  C   UNL d   1      54.035  29.930  53.794  0.00  0.00     0.001 A 
ATOM      9  C   UNL d   1      52.793  29.480  53.589  0.00  0.00     0.006 A 
ATOM     10  C   UNL d   1      53.551  29.273  53.837  0.00  0.00     0.001 A 
ENDROOT
BRANCH   1  11
ATOM     11  N   UNL d   1      52.606  32.351  52.809  0.00  0.00    -0.201 NA
ATOM     12  C   UNL d   1      51.909  32.664  53.093  0.00  0.00     0.281 C 
ATOM     13  O   UNL d   1      51.406  32.259  53.636  0.00  0.00    -0.265 OA
BRANCH  12  14
ATOM     14  C   UNL d   1      51.675  33.426  52.839  0.00  0.00     0.080 A 
ATOM     15  C   UNL d   1      51.821  34.115  53.338  0.00  0.00     0.099 A 
ATOM     16  C   UNL d   1      51.592  34.862  53.088  0.00  0.00     0.024 A 
ATOM     17  C   UNL d   1      51.214  34.927  52.337  0.00  0.00     0.002 A 
ATOM     18  C   UNL d   1      51.069  34.338  51.868  0.00  0.00     0.000 A 
ATOM     19  C   UNL d   1      51.297  33.541  52.102  0.00  0.00     0.007 A 
BRANCH  15  20
ATOM     20  O   UNL d   1      52.196  34.047  54.084  0.00  0.00    -0.328 OA
ATOM     21  C   UNL d   1      52.459  34.715  54.499  0.00  0.00     0.181 C 
ENDBRANCH  15  20
ENDBRANCH  12  14
ENDBRANCH   1  11
TORSDOF 3
ENDMDL
MODEL 6
REMARK VINA RESULT:      -6.8      1.559      4.553
REMARK  3 active torsions:
REMARK  status: ('A' for Active; 'I' for Inactive)
REMARK    1  A    between atoms: N_5  and  C_1 
REMARK       I    between atoms: C_6  and  N_5 
REMARK    2  A    between atoms: C_8  and  C_6 
REMARK    3  A    between atoms: O_16  and  C_12 
ROOT
ATOM      1  C   UNL d   1      49.968  34.579  52.411  0.00  0.00     0.124 A 
ATOM      2  C   UNL d   1      49.290  35.001  52.557  0.00  0.00     0.093 A 
ATOM      3  S   UNL d   1      49.931  34.235  51.668  0.00  0.00    -0.067 SA
ATOM      4  C   UNL d   1      48.794  34.940  51.906  0.00  0.00     0.018 A 
ATOM      5  C   UNL d   1      49.207  34.446  51.334  0.00  0.00     0.032 A 
ATOM      6  C   UNL d   1      49.101  35.452  53.279  0.00  0.00     0.103 C 
ATOM      7  N   UNL d   1      48.932  35.878  53.973  0.00  0.00    -0.191 NA
ATOM      8  C   UNL d   1      48.078  35.142  51.561  0.00  0.00     0.001 A 
ATOM      9  C   UNL d   1      48.719  34.376  50.672  0.00  0.00     0.006 A 
ATOM     10  C   UNL d   1      48.030  34.804  50.819  0.00  0.00     0.001 A 
ENDROOT
BRANCH   1  11
ATOM     11  N   UNL d   1      50.631  34.502  52.955  0.00  0.00    -0.201 NA
ATOM     12  C   UNL d   1      51.361  34.291  52.660  0.00  0.00     0.281 C 
ATOM     13  O   UNL d   1      51.504  34.143  51.841  0.00  0.00    -0.265 OA
BRANCH  12  14
ATOM     14  C   UNL d   1      52.005  34.216  53.188  0.00  0.00     0.080 A 
ATOM     15  C   UNL d   1      52.361  33.443  53.333  0.00  0.00     0.099 A 
ATOM     16  C   UNL d   1      52.992  33.369  53.851  0.00  0.00     0.024 A 
ATOM     17  C   UNL d   1      53.274  34.068  54.230  0.00  0.00     0.002 A 
ATOM     18  C   UNL d   1      52.983  34.770  54.126  0.00  0.00     0.000 A 
ATOM     19  C   UNL d   1      52.319  34.880  53.588  0.00  0.00     0.007 A 
BRANCH  15  20
ATOM     20  O   UNL d   1      52.079  32.751  52.955  0.00  0.00    -0.328 OA
ATOM     21  C   UNL d   1      52.457  32.019  53.054  0.00  0.00     0.181 C 
ENDBRANCH  15  20
ENDBRANCH  12  14
ENDBRANCH   1  11
TORSDOF 3
ENDMDL
MODEL 7
REMARK VINA RESULT:      -6.4      1.251      4.164
REMARK  3 active torsions:
REMARK  status: ('A' for Active; 'I' for Inactive)
REMARK    1  A    between atoms: N_5  and  C_1 
REMARK       I    between atoms: C_6  and  N_5 
REMARK    2  A    between atoms: C_8  and  C_6 
REMARK    3  A    between atoms: O_16  and  C_12 
ROOT
ATOM      1  C   UNL d   1      51.779  33.758  53.563  0.00  0.00     0.124 A 
ATOM      2  C   UNL d   1      51.304  33.206  53.202  0.00  0.00     0.093 A 
ATOM      3  S   UNL d   1      51.514  34.514  53.390  0.00  0.00    -0.067 SA
ATOM      4  C   UNL d   1      50.715  33.596  52.785  0.00  0.00     0.018 A 
ATOM      5  C   UNL d   1      50.851  34.438  52.906  0.00  0.00     0.032 A 
ATOM      6  C   UNL d   1      51.389  32.339  53.241  0.00  0.00     0.103 C 
ATOM      7  N   UNL d   1      51.480  31.513  53.285  0.00  0.00    -0.191 NA
ATOM      8  C   UNL d   1      50.054  33.536  52.302  0.00  0.00     0.001 A 
ATOM      9  C   UNL d   1      50.264  34.843  52.490  0.00  0.00     0.006 A 
ATOM     10  C   UNL d   1      49.780  34.285  52.124  0.00  0.00     0.001 A 
ENDROOT
BRANCH   1  11
ATOM     11  N   UNL d   1      52.463  33.578  54.055  0.00  0.00    -0.201 NA
ATOM     12  C   UNL d   1      53.129  34.044  53.990  0.00  0.00     0.281 C 
ATOM     13  O   UNL d   1      53.185  34.699  53.462  0.00  0.00    -0.265 OA
BRANCH  12  14
ATOM     14  C   UNL d   1      53.792  33.869  54.468  0.00  0.00     0.080 A 
ATOM     15  C   UNL d   1      54.459  33.428  54.141  0.00  0.00     0.099 A 
ATOM     16  C   UNL d   1      55.110  33.257  54.609  0.00  0.00     0.024 A 
ATOM     17  C   UNL d   1      55.101  33.524  55.410  0.00  0.00     0.002 A 
ATOM     18  C   UNL d   1      54.527  33.916  55.733  0.00  0.00     0.000 A 
ATOM     19  C   UNL d   1      53.829  34.112  55.267  0.00  0.00     0.007 A 
BRANCH  15  20
ATOM     20  O   UNL d   1      54.466  33.165  53.346  0.00  0.00    -0.328 OA
ATOM     21  C   UNL d   1      55.055  32.653  53.064  0.00  0.00     0.181 C 
ENDBRANCH  15  20
ENDBRANCH  12  14
ENDBRANCH   1  11
TORSDOF 3
ENDMDL
