MODEL 1
REMARK VINA RESULT:       9.9      0.000      0.000
REMARK  3 active torsions:
REMARK  status: ('A' for Active; 'I' for Inactive)
REMARK    1  A    between atoms: C_7  and  C_2 
REMARK    2  A    between atoms: N_5  and  C_8 
REMARK    3  A    between atoms: C_9  and  C_7 
ROOT
ATOM      1  C   UNL d   1      45.572 -12.652  43.599  0.00  0.00     0.127 A 
ATOM      2  C   UNL d   1      45.443 -13.196  44.212  0.00  0.00     0.023 A 
ATOM      3  C   UNL d   1      45.919 -13.177  44.882  0.00  0.00     0.002 A 
ATOM      4  C   UNL d   1      46.170 -12.099  43.661  0.00  0.00     0.024 A 
ATOM      5  C   UNL d   1      46.524 -12.620  44.947  0.00  0.00     0.000 A 
ATOM      6  C   UNL d   1      46.646 -12.080  44.331  0.00  0.00     0.002 A 
ENDROOT
BRANCH   2   7
ATOM      7  C   UNL d   1      44.840 -13.751  44.145  0.00  0.00     0.013 C 
BRANCH   7   8
ATOM      8  C   UNL d   1      44.960 -14.524  44.410  0.00  0.00     0.092 A 
ATOM      9  C   UNL d   1      44.393 -15.013  44.759  0.00  0.00     0.288 A 
ATOM     10  N   UNL d   1      44.759 -15.733  44.934  0.00  0.00    -0.163 NA
ATOM     11  O   UNL d   1      43.607 -14.814  44.904  0.00  0.00    -0.265 OA
ATOM     12  C   UNL d   1      45.542 -15.692  44.697  0.00  0.00     0.313 A 
ATOM     13  S   UNL d   1      45.671 -14.946  44.372  0.00  0.00    -0.021 SA
ATOM     14  O   UNL d   1      46.104 -16.292  44.770  0.00  0.00    -0.258 OA
ENDBRANCH   7   8
ENDBRANCH   2   7
BRANCH   1  15
ATOM     15  N   UNL d   1      45.092 -12.672  42.925  0.00  0.00    -0.114 N 
ATOM     16  O   UNL d   1      45.389 -12.954  42.208  0.00  0.00    -0.532 OA
ATOM     17  O   UNL d   1      44.308 -12.408  42.972  0.00  0.00    -0.532 OA
ENDBRANCH   1  15
TORSDOF 3
ENDMDL
MODEL 2
REMARK VINA RESULT:      12.2      1.158      3.382
REMARK  3 active torsions:
REMARK  status: ('A' for Active; 'I' for Inactive)
REMARK    1  A    between atoms: C_7  and  C_2 
REMARK    2  A    between atoms: N_5  and  C_8 
REMARK    3  A    between atoms: C_9  and  C_7 
ROOT
ATOM      1  C   UNL d   1      45.233 -15.357  44.778  0.00  0.00     0.127 A 
ATOM      2  C   UNL d   1      45.100 -14.540  44.749  0.00  0.00     0.023 A 
ATOM      3  C   UNL d   1      44.336 -14.246  44.823  0.00  0.00     0.002 A 
ATOM      4  C   UNL d   1      44.606 -15.871  44.881  0.00  0.00     0.024 A 
ATOM      5  C   UNL d   1      43.700 -14.763  44.927  0.00  0.00     0.000 A 
ATOM      6  C   UNL d   1      43.841 -15.578  44.955  0.00  0.00     0.002 A 
ENDROOT
BRANCH   2   7
ATOM      7  C   UNL d   1      45.734 -14.026  44.646  0.00  0.00     0.013 C 
BRANCH   7   8
ATOM      8  C   UNL d   1      45.637 -13.335  44.205  0.00  0.00     0.092 A 
ATOM      9  C   UNL d   1      46.016 -12.614  44.341  0.00  0.00     0.288 A 
ATOM     10  N   UNL d   1      45.752 -12.081  43.767  0.00  0.00    -0.163 NA
ATOM     11  O   UNL d   1      46.559 -12.459  44.941  0.00  0.00    -0.265 OA
ATOM     12  C   UNL d   1      45.216 -12.466  43.281  0.00  0.00     0.313 A 
ATOM     13  S   UNL d   1      45.141 -13.241  43.548  0.00  0.00    -0.021 SA
ATOM     14  O   UNL d   1      44.819 -12.136  42.637  0.00  0.00    -0.258 OA
ENDBRANCH   7   8
ENDBRANCH   2   7
BRANCH   1  15
ATOM     15  N   UNL d   1      46.003 -15.651  44.703  0.00  0.00    -0.114 N 
ATOM     16  O   UNL d   1      46.136 -16.400  44.383  0.00  0.00    -0.532 OA
ATOM     17  O   UNL d   1      46.644 -15.188  44.952  0.00  0.00    -0.532 OA
ENDBRANCH   1  15
TORSDOF 3
ENDMDL
