MODEL 1
REMARK VINA RESULT:      -9.3      0.000      0.000
REMARK  4 active torsions:
REMARK  status: ('A' for Active; 'I' for Inactive)
REMARK    1  A    between atoms: N_2  and  S_1 
REMARK    2  A    between atoms: C_4  and  S_1 
REMARK    3  A    between atoms: C_3  and  C_9 
REMARK       I    between atoms: N_5  and  C_3 
REMARK    4  A    between atoms: C_6  and  N_5 
ROOT
ATOM      1  C   UNL d   1      52.519  33.144  53.118  0.00  0.00     0.104 A 
ATOM      2  C   UNL d   1      51.598  34.143  52.679  0.00  0.00     0.059 A 
ATOM      3  C   UNL d   1      51.823  33.353  52.718  0.00  0.00     0.018 A 
ATOM      4  C   UNL d   1      52.982  33.724  53.473  0.00  0.00     0.013 A 
ATOM      5  C   UNL d   1      52.061  34.724  53.034  0.00  0.00     0.005 A 
ATOM      6  C   UNL d   1      52.759  34.511  53.434  0.00  0.00     0.001 A 
ENDROOT
BRANCH   1   7
ATOM      7  S   UNL d   1      52.742  32.358  53.156  0.00  0.00     0.271 S 
ATOM      8  O   UNL d   1      52.587  32.533  53.926  0.00  0.00    -0.200 OA
ATOM      9  O   UNL d   1      52.912  32.134  52.377  0.00  0.00    -0.200 OA
BRANCH   7  10
ATOM     10  N   UNL d   1      52.950  31.576  53.292  0.00  0.00    -0.229 N 
ATOM     11  C   UNL d   1      53.721  31.431  53.591  0.00  0.00     0.092 A 
ATOM     12  C   UNL d   1      54.003  30.780  53.745  0.00  0.00     0.020 A 
ATOM     13  C   UNL d   1      53.720  29.968  53.700  0.00  0.00     0.002 A 
ATOM     14  C   UNL d   1      53.076  29.663  53.482  0.00  0.00     0.002 A 
ATOM     15  C   UNL d   1      52.401  30.081  53.199  0.00  0.00     0.020 A 
ATOM     16  C   UNL d   1      52.341  30.965  53.110  0.00  0.00     0.092 A 
ENDBRANCH   7  10
ENDBRANCH   1   7
BRANCH   2  17
ATOM     17  C   UNL d   1      50.902  34.353  52.279  0.00  0.00     0.281 C 
ATOM     18  N   UNL d   1      50.208  34.470  52.712  0.00  0.00    -0.187 NA
ATOM     19  O   UNL d   1      50.916  34.440  51.465  0.00  0.00    -0.265 OA
BRANCH  18  20
ATOM     20  C   UNL d   1      49.522  34.678  52.313  0.00  0.00     0.194 A 
ATOM     21  N   UNL d   1      49.275  34.387  51.580  0.00  0.00    -0.106 NA
ATOM     22  O   UNL d   1      48.560  34.746  51.393  0.00  0.00    -0.207 OA
ATOM     23  C   UNL d   1      48.362  35.261  52.010  0.00  0.00     0.153 A 
ATOM     24  C   UNL d   1      48.951  35.220  52.575  0.00  0.00     0.070 A 
ENDBRANCH  18  20
ENDBRANCH   2  17
TORSDOF 4
ENDMDL
MODEL 2
REMARK VINA RESULT:      -9.2      1.514      4.851
REMARK  4 active torsions:
REMARK  status: ('A' for Active; 'I' for Inactive)
REMARK    1  A    between atoms: N_2  and  S_1 
REMARK    2  A    between atoms: C_4  and  S_1 
REMARK    3  A    between atoms: C_3  and  C_9 
REMARK       I    between atoms: N_5  and  C_3 
REMARK    4  A    between atoms: C_6  and  N_5 
ROOT
ATOM      1  C   UNL d   1      52.966  32.847  53.301  0.00  0.00     0.104 A 
ATOM      2  C   UNL d   1      53.665  31.657  53.669  0.00  0.00     0.059 A 
ATOM      3  C   UNL d   1      52.989  32.021  53.375  0.00  0.00     0.018 A 
ATOM      4  C   UNL d   1      53.618  33.299  53.520  0.00  0.00     0.013 A 
ATOM      5  C   UNL d   1      54.317  32.110  53.889  0.00  0.00     0.005 A 
ATOM      6  C   UNL d   1      54.291  32.938  53.814  0.00  0.00     0.001 A 
ENDROOT
BRANCH   1   7
ATOM      7  S   UNL d   1      52.293  33.207  53.008  0.00  0.00     0.271 S 
ATOM      8  O   UNL d   1      52.377  33.554  53.730  0.00  0.00    -0.200 OA
ATOM      9  O   UNL d   1      52.169  32.876  52.259  0.00  0.00    -0.200 OA
BRANCH   7  10
ATOM     10  N   UNL d   1      51.615  33.619  52.799  0.00  0.00    -0.229 N 
ATOM     11  C   UNL d   1      51.603  33.976  52.039  0.00  0.00     0.092 A 
ATOM     12  C   UNL d   1      51.054  34.361  51.758  0.00  0.00     0.020 A 
ATOM     13  C   UNL d   1      50.273  34.598  52.032  0.00  0.00     0.002 A 
ATOM     14  C   UNL d   1      49.898  34.481  52.665  0.00  0.00     0.002 A 
ATOM     15  C   UNL d   1      50.173  34.045  53.332  0.00  0.00     0.020 A 
ATOM     16  C   UNL d   1      50.967  33.646  53.395  0.00  0.00     0.092 A 
ENDBRANCH   7  10
ENDBRANCH   1   7
BRANCH   2  17
ATOM     17  C   UNL d   1      53.688  30.831  53.744  0.00  0.00     0.281 C 
ATOM     18  N   UNL d   1      53.209  30.463  54.308  0.00  0.00    -0.187 NA
ATOM     19  O   UNL d   1      54.185  30.398  53.258  0.00  0.00    -0.265 OA
BRANCH  18  20
ATOM     20  C   UNL d   1      53.236  29.646  54.378  0.00  0.00     0.194 A 
ATOM     21  N   UNL d   1      52.966  29.098  53.823  0.00  0.00    -0.106 NA
ATOM     22  O   UNL d   1      53.103  28.345  54.122  0.00  0.00    -0.207 OA
ATOM     23  C   UNL d   1      53.459  28.425  54.865  0.00  0.00     0.153 A 
ATOM     24  C   UNL d   1      53.542  29.222  55.023  0.00  0.00     0.070 A 
ENDBRANCH  18  20
ENDBRANCH   2  17
TORSDOF 4
ENDMDL
MODEL 3
REMARK VINA RESULT:      -9.0      1.117      4.758
REMARK  4 active torsions:
REMARK  status: ('A' for Active; 'I' for Inactive)
REMARK    1  A    between atoms: N_2  and  S_1 
REMARK    2  A    between atoms: C_4  and  S_1 
REMARK    3  A    between atoms: C_3  and  C_9 
REMARK       I    between atoms: N_5  and  C_3 
REMARK    4  A    between atoms: C_6  and  N_5 
ROOT
ATOM      1  C   UNL d   1      51.587  33.817  52.875  0.00  0.00     0.104 A 
ATOM      2  C   UNL d   1      52.503  32.728  53.004  0.00  0.00     0.059 A 
ATOM      3  C   UNL d   1      51.750  33.005  52.825  0.00  0.00     0.018 A 
ATOM      4  C   UNL d   1      52.177  34.343  53.104  0.00  0.00     0.013 A 
ATOM      5  C   UNL d   1      53.094  33.255  53.233  0.00  0.00     0.005 A 
ATOM      6  C   UNL d   1      52.927  34.069  53.283  0.00  0.00     0.001 A 
ENDROOT
BRANCH   1   7
ATOM      7  S   UNL d   1      50.837  34.089  52.696  0.00  0.00     0.271 S 
ATOM      8  O   UNL d   1      51.289  34.432  52.125  0.00  0.00    -0.200 OA
ATOM      9  O   UNL d   1      50.335  33.758  53.266  0.00  0.00    -0.200 OA
BRANCH   7  10
ATOM     10  N   UNL d   1      50.127  34.412  52.441  0.00  0.00    -0.229 N 
ATOM     11  C   UNL d   1      49.699  34.879  52.992  0.00  0.00     0.092 A 
ATOM     12  C   UNL d   1      49.062  35.208  52.868  0.00  0.00     0.020 A 
ATOM     13  C   UNL d   1      48.527  35.265  52.196  0.00  0.00     0.002 A 
ATOM     14  C   UNL d   1      48.545  34.987  51.505  0.00  0.00     0.002 A 
ATOM     15  C   UNL d   1      49.152  34.501  51.181  0.00  0.00     0.020 A 
ATOM     16  C   UNL d   1      49.884  34.234  51.613  0.00  0.00     0.092 A 
ENDBRANCH   7  10
ENDBRANCH   1   7
BRANCH   2  17
ATOM     17  C   UNL d   1      52.667  31.917  52.954  0.00  0.00     0.281 C 
ATOM     18  N   UNL d   1      52.642  31.457  53.640  0.00  0.00    -0.187 NA
ATOM     19  O   UNL d   1      52.850  31.588  52.226  0.00  0.00    -0.265 OA
BRANCH  18  20
ATOM     20  C   UNL d   1      52.804  30.655  53.585  0.00  0.00     0.194 A 
ATOM     21  N   UNL d   1      52.282  30.065  53.339  0.00  0.00    -0.106 NA
ATOM     22  O   UNL d   1      52.678  29.346  53.370  0.00  0.00    -0.207 OA
ATOM     23  C   UNL d   1      53.449  29.489  53.636  0.00  0.00     0.153 A 
ATOM     24  C   UNL d   1      53.527  30.291  53.768  0.00  0.00     0.070 A 
ENDBRANCH  18  20
ENDBRANCH   2  17
TORSDOF 4
ENDMDL
MODEL 4
REMARK VINA RESULT:      -8.4      1.783      2.491
REMARK  4 active torsions:
REMARK  status: ('A' for Active; 'I' for Inactive)
REMARK    1  A    between atoms: N_2  and  S_1 
REMARK    2  A    between atoms: C_4  and  S_1 
REMARK    3  A    between atoms: C_3  and  C_9 
REMARK       I    between atoms: N_5  and  C_3 
REMARK    4  A    between atoms: C_6  and  N_5 
ROOT
ATOM      1  C   UNL d   1      51.602  34.040  52.935  0.00  0.00     0.104 A 
ATOM      2  C   UNL d   1      50.281  34.562  52.787  0.00  0.00     0.059 A 
ATOM      3  C   UNL d   1      50.918  34.369  53.269  0.00  0.00     0.018 A 
ATOM      4  C   UNL d   1      51.643  33.908  52.123  0.00  0.00     0.013 A 
ATOM      5  C   UNL d   1      50.322  34.430  51.974  0.00  0.00     0.005 A 
ATOM      6  C   UNL d   1      51.010  34.100  51.642  0.00  0.00     0.001 A 
ENDROOT
BRANCH   1   7
ATOM      7  S   UNL d   1      52.234  33.848  53.417  0.00  0.00     0.271 S 
ATOM      8  O   UNL d   1      52.505  34.496  53.023  0.00  0.00    -0.200 OA
ATOM      9  O   UNL d   1      51.997  33.179  53.844  0.00  0.00    -0.200 OA
BRANCH   7  10
ATOM     10  N   UNL d   1      52.916  33.733  53.860  0.00  0.00    -0.229 N 
ATOM     11  C   UNL d   1      53.099  34.316  54.436  0.00  0.00     0.092 A 
ATOM     12  C   UNL d   1      53.676  34.310  54.879  0.00  0.00     0.020 A 
ATOM     13  C   UNL d   1      54.343  33.780  55.002  0.00  0.00     0.002 A 
ATOM     14  C   UNL d   1      54.551  33.138  54.686  0.00  0.00     0.002 A 
ATOM     15  C   UNL d   1      54.142  32.735  54.069  0.00  0.00     0.020 A 
ATOM     16  C   UNL d   1      53.386  33.010  53.686  0.00  0.00     0.092 A 
ENDBRANCH   7  10
ENDBRANCH   1   7
BRANCH   2  17
ATOM     17  C   UNL d   1      49.597  34.891  53.120  0.00  0.00     0.281 C 
ATOM     18  N   UNL d   1      49.248  35.548  52.760  0.00  0.00    -0.187 NA
ATOM     19  O   UNL d   1      49.281  34.558  53.799  0.00  0.00    -0.265 OA
BRANCH  18  20
ATOM     20  C   UNL d   1      48.571  35.870  53.094  0.00  0.00     0.194 A 
ATOM     21  N   UNL d   1      48.533  36.324  53.783  0.00  0.00    -0.106 NA
ATOM     22  O   UNL d   1      47.747  36.527  53.910  0.00  0.00    -0.207 OA
ATOM     23  C   UNL d   1      47.296  36.200  53.298  0.00  0.00     0.153 A 
ATOM     24  C   UNL d   1      47.800  35.796  52.797  0.00  0.00     0.070 A 
ENDBRANCH  18  20
ENDBRANCH   2  17
TORSDOF 4
ENDMDL
MODEL 5
REMARK VINA RESULT:      -7.8      1.721      4.933
REMARK  4 active torsions:
REMARK  status: ('A' for Active; 'I' for Inactive)
REMARK    1  A    between atoms: N_2  and  S_1 
REMARK    2  A    between atoms: C_4  and  S_1 
REMARK    3  A    between atoms: C_3  and  C_9 
REMARK       I    between atoms: N_5  and  C_3 
REMARK    4  A    between atoms: C_6  and  N_5 
ROOT
ATOM      1  C   UNL d   1      51.172  33.502  52.871  0.00  0.00     0.104 A 
ATOM      2  C   UNL d   1      52.481  33.313  53.410  0.00  0.00     0.059 A 
ATOM      3  C   UNL d   1      51.863  33.815  53.207  0.00  0.00     0.018 A 
ATOM      4  C   UNL d   1      51.106  32.691  52.743  0.00  0.00     0.013 A 
ATOM      5  C   UNL d   1      52.415  32.502  53.282  0.00  0.00     0.005 A 
ATOM      6  C   UNL d   1      51.721  32.190  52.946  0.00  0.00     0.001 A 
ENDROOT
BRANCH   1   7
ATOM      7  S   UNL d   1      50.558  34.003  52.670  0.00  0.00     0.271 S 
ATOM      8  O   UNL d   1      50.250  33.590  53.288  0.00  0.00    -0.200 OA
ATOM      9  O   UNL d   1      50.835  34.451  52.030  0.00  0.00    -0.200 OA
BRANCH   7  10
ATOM     10  N   UNL d   1      49.891  34.463  52.541  0.00  0.00    -0.229 N 
ATOM     11  C   UNL d   1      49.532  34.413  51.784  0.00  0.00     0.092 A 
ATOM     12  C   UNL d   1      48.941  34.777  51.568  0.00  0.00     0.020 A 
ATOM     13  C   UNL d   1      48.410  35.348  51.934  0.00  0.00     0.002 A 
ATOM     14  C   UNL d   1      48.384  35.660  52.609  0.00  0.00     0.002 A 
ATOM     15  C   UNL d   1      48.922  35.518  53.242  0.00  0.00     0.020 A 
ATOM     16  C   UNL d   1      49.620  34.965  53.212  0.00  0.00     0.092 A 
ENDBRANCH   7  10
ENDBRANCH   1   7
BRANCH   2  17
ATOM     17  C   UNL d   1      53.172  33.626  53.746  0.00  0.00     0.281 C 
ATOM     18  N   UNL d   1      53.396  33.388  54.505  0.00  0.00    -0.187 NA
ATOM     19  O   UNL d   1      53.619  34.163  53.318  0.00  0.00    -0.265 OA
BRANCH  18  20
ATOM     20  C   UNL d   1      54.080  33.700  54.832  0.00  0.00     0.194 A 
ATOM     21  N   UNL d   1      54.164  34.449  55.171  0.00  0.00    -0.106 NA
ATOM     22  O   UNL d   1      54.941  34.527  55.426  0.00  0.00    -0.207 OA
ATOM     23  C   UNL d   1      55.341  33.824  55.246  0.00  0.00     0.153 A 
ATOM     24  C   UNL d   1      54.815  33.317  54.882  0.00  0.00     0.070 A 
ENDBRANCH  18  20
ENDBRANCH   2  17
TORSDOF 4
ENDMDL
