MODEL 1
REMARK VINA RESULT:      43.2      0.000      0.000
REMARK  5 active torsions:
REMARK  status: ('A' for Active; 'I' for Inactive)
REMARK    1  A    between atoms: N_2  and  C_1 
REMARK    2  A    between atoms: C_8  and  C_5 
REMARK    3  A    between atoms: C_6  and  C_9 
REMARK       I    between atoms: N_12  and  C_6 
REMARK    4  A    between atoms: C_9  and  C_8 
REMARK    5  A    between atoms: C_13  and  N_12 
ROOT
ATOM      1  C   UNL d   1     -49.193  27.801  34.262  0.00  0.00     0.279 C 
ATOM      2  N   UNL d   1     -49.552  27.633  33.544  0.00  0.00    -0.208 NA
ATOM      3  O   UNL d   1     -49.308  27.297  34.926  0.00  0.00    -0.265 OA
ENDROOT
BRANCH   1   4
ATOM      4  C   UNL d   1     -48.714  28.468  34.340  0.00  0.00     0.063 C 
BRANCH   4   5
ATOM      5  C   UNL d   1     -48.292  28.578  35.054  0.00  0.00     0.011 C 
BRANCH   5   6
ATOM      6  C   UNL d   1     -47.969  29.331  35.217  0.00  0.00     0.031 A 
ATOM      7  S   UNL d   1     -47.998  30.045  34.811  0.00  0.00    -0.064 SA
ATOM      8  C   UNL d   1     -47.580  30.578  35.246  0.00  0.00     0.156 A 
ATOM      9  C   UNL d   1     -47.286  30.209  35.924  0.00  0.00     0.031 A 
ATOM     10  C   UNL d   1     -47.519  29.440  35.917  0.00  0.00     0.009 A 
BRANCH   8  11
ATOM     11  N   UNL d   1     -47.458  31.383  35.047  0.00  0.00    -0.107 N 
ATOM     12  O   UNL d   1     -47.308  31.929  35.632  0.00  0.00    -0.531 OA
ATOM     13  O   UNL d   1     -47.491  31.619  34.250  0.00  0.00    -0.531 OA
ENDBRANCH   8  11
ENDBRANCH   5   6
ENDBRANCH   4   5
ENDBRANCH   1   4
BRANCH   2  14
ATOM     14  C   UNL d   1     -50.027  26.972  33.467  0.00  0.00     0.085 A 
ATOM     15  C   UNL d   1     -50.847  27.046  33.433  0.00  0.00     0.019 A 
ATOM     16  C   UNL d   1     -51.319  26.388  33.357  0.00  0.00     0.002 A 
ATOM     17  C   UNL d   1     -52.157  26.479  33.323  0.00  0.00     0.000 C 
ATOM     18  C   UNL d   1     -50.985  25.638  33.312  0.00  0.00     0.000 A 
ATOM     19  C   UNL d   1     -50.164  25.560  33.345  0.00  0.00     0.002 A 
ATOM     20  C   UNL d   1     -49.692  26.218  33.422  0.00  0.00     0.019 A 
ENDBRANCH   2  14
TORSDOF 5
ENDMDL
MODEL 2
REMARK VINA RESULT:      45.0      1.800      2.744
REMARK  5 active torsions:
REMARK  status: ('A' for Active; 'I' for Inactive)
REMARK    1  A    between atoms: N_2  and  C_1 
REMARK    2  A    between atoms: C_8  and  C_5 
REMARK    3  A    between atoms: C_6  and  C_9 
REMARK       I    between atoms: N_12  and  C_6 
REMARK    4  A    between atoms: C_9  and  C_8 
REMARK    5  A    between atoms: C_13  and  N_12 
ROOT
ATOM      1  C   UNL d   1     -51.359  26.777  33.340  0.00  0.00     0.279 C 
ATOM      2  N   UNL d   1     -51.202  25.972  33.319  0.00  0.00    -0.208 NA
ATOM      3  O   UNL d   1     -52.152  27.058  33.357  0.00  0.00    -0.265 OA
ENDROOT
BRANCH   1   4
ATOM      4  C   UNL d   1     -50.738  27.320  33.344  0.00  0.00     0.063 C 
BRANCH   4   5
ATOM      5  C   UNL d   1     -50.063  27.154  33.809  0.00  0.00     0.011 C 
BRANCH   5   6
ATOM      6  C   UNL d   1     -49.598  27.793  34.083  0.00  0.00     0.031 A 
ATOM      7  S   UNL d   1     -49.025  27.848  34.669  0.00  0.00    -0.064 SA
ATOM      8  C   UNL d   1     -48.772  28.613  34.676  0.00  0.00     0.156 A 
ATOM      9  C   UNL d   1     -49.179  29.042  34.101  0.00  0.00     0.031 A 
ATOM     10  C   UNL d   1     -49.692  28.548  33.728  0.00  0.00     0.009 A 
BRANCH   8  11
ATOM     11  N   UNL d   1     -48.187  28.928  35.187  0.00  0.00    -0.107 N 
ATOM     12  O   UNL d   1     -47.444  29.096  34.899  0.00  0.00    -0.531 OA
ATOM     13  O   UNL d   1     -48.370  29.068  35.985  0.00  0.00    -0.531 OA
ENDBRANCH   8  11
ENDBRANCH   5   6
ENDBRANCH   4   5
ENDBRANCH   1   4
BRANCH   2  14
ATOM     14  C   UNL d   1     -51.818  25.434  33.315  0.00  0.00     0.085 A 
ATOM     15  C   UNL d   1     -51.666  24.624  33.312  0.00  0.00     0.019 A 
ATOM     16  C   UNL d   1     -52.279  24.088  33.308  0.00  0.00     0.002 A 
ATOM     17  C   UNL d   1     -52.109  23.262  33.306  0.00  0.00     0.000 C 
ATOM     18  C   UNL d   1     -53.059  24.348  33.306  0.00  0.00     0.000 A 
ATOM     19  C   UNL d   1     -53.215  25.158  33.309  0.00  0.00     0.002 A 
ATOM     20  C   UNL d   1     -52.602  25.694  33.313  0.00  0.00     0.019 A 
ENDBRANCH   2  14
TORSDOF 5
ENDMDL
MODEL 3
REMARK VINA RESULT:      45.5      0.725      1.203
REMARK  5 active torsions:
REMARK  status: ('A' for Active; 'I' for Inactive)
REMARK    1  A    between atoms: N_2  and  C_1 
REMARK    2  A    between atoms: C_8  and  C_5 
REMARK    3  A    between atoms: C_6  and  C_9 
REMARK       I    between atoms: N_12  and  C_6 
REMARK    4  A    between atoms: C_9  and  C_8 
REMARK    5  A    between atoms: C_13  and  N_12 
ROOT
ATOM      1  C   UNL d   1     -49.269  27.432  34.241  0.00  0.00     0.279 C 
ATOM      2  N   UNL d   1     -49.608  27.281  33.510  0.00  0.00    -0.208 NA
ATOM      3  O   UNL d   1     -49.538  27.028  34.929  0.00  0.00    -0.265 OA
ENDROOT
BRANCH   1   4
ATOM      4  C   UNL d   1     -48.659  27.983  34.309  0.00  0.00     0.063 C 
BRANCH   4   5
ATOM      5  C   UNL d   1     -48.426  28.232  35.073  0.00  0.00     0.011 C 
BRANCH   5   6
ATOM      6  C   UNL d   1     -48.141  29.011  35.172  0.00  0.00     0.031 A 
ATOM      7  S   UNL d   1     -47.664  29.357  35.744  0.00  0.00    -0.064 SA
ATOM      8  C   UNL d   1     -47.581  30.132  35.541  0.00  0.00     0.156 A 
ATOM      9  C   UNL d   1     -48.001  30.281  34.846  0.00  0.00     0.031 A 
ATOM     10  C   UNL d   1     -48.352  29.597  34.608  0.00  0.00     0.009 A 
BRANCH   8  11
ATOM     11  N   UNL d   1     -47.138  30.704  35.965  0.00  0.00    -0.107 N 
ATOM     12  O   UNL d   1     -46.866  30.534  36.713  0.00  0.00    -0.531 OA
ATOM     13  O   UNL d   1     -46.979  31.442  35.617  0.00  0.00    -0.531 OA
ENDBRANCH   8  11
ENDBRANCH   5   6
ENDBRANCH   4   5
ENDBRANCH   1   4
BRANCH   2  14
ATOM     14  C   UNL d   1     -50.213  26.734  33.442  0.00  0.00     0.085 A 
ATOM     15  C   UNL d   1     -50.047  25.928  33.408  0.00  0.00     0.019 A 
ATOM     16  C   UNL d   1     -50.649  25.385  33.340  0.00  0.00     0.002 A 
ATOM     17  C   UNL d   1     -50.465  24.562  33.306  0.00  0.00     0.000 C 
ATOM     18  C   UNL d   1     -51.432  25.633  33.306  0.00  0.00     0.000 A 
ATOM     19  C   UNL d   1     -51.602  26.439  33.341  0.00  0.00     0.002 A 
ATOM     20  C   UNL d   1     -51.000  26.983  33.408  0.00  0.00     0.019 A 
ENDBRANCH   2  14
TORSDOF 5
ENDMDL
