MODEL 1
REMARK VINA RESULT:      -7.9      0.000      0.000
REMARK  6 active torsions:
REMARK  status: ('A' for Active; 'I' for Inactive)
REMARK    1  A    between atoms: C_18  and  N_5 
REMARK    2  A    between atoms: S_11  and  C_6 
REMARK    3  A    between atoms: C_10  and  C_12 
REMARK    4  A    between atoms: C_15  and  S_11 
REMARK    5  A    between atoms: C_12  and  C_15 
REMARK    6  A    between atoms: C_21  and  C_18 
ROOT
ATOM      1  C   UNL d   1      53.012  32.473  53.290  0.00  0.00     0.081 A 
ATOM      2  C   UNL d   1      52.264  32.268  53.037  0.00  0.00     0.117 A 
ATOM      3  N   UNL d   1      51.686  32.848  52.944  0.00  0.00    -0.215 NA
ATOM      4  C   UNL d   1      53.170  33.299  53.453  0.00  0.00     0.268 A 
ATOM      5  N   UNL d   1      52.582  33.847  53.352  0.00  0.00    -0.253 N 
ATOM      6  C   UNL d   1      51.880  33.633  53.111  0.00  0.00     0.182 A 
ATOM      7  S   UNL d   1      52.280  31.463  52.930  0.00  0.00    -0.068 SA
ATOM      8  C   UNL d   1      53.450  31.821  53.331  0.00  0.00     0.013 A 
ATOM      9  C   UNL d   1      52.975  31.164  53.097  0.00  0.00     0.031 A 
ATOM     10  O   UNL d   1      53.955  33.530  53.721  0.00  0.00    -0.267 OA
ATOM     11  C   UNL d   1      54.260  31.818  53.574  0.00  0.00     0.001 C 
ATOM     12  C   UNL d   1      53.213  30.355  53.056  0.00  0.00     0.007 C 
ENDROOT
BRANCH   6  13
ATOM     13  S   UNL d   1      51.282  34.208  53.011  0.00  0.00    -0.046 SA
BRANCH  13  14
ATOM     14  C   UNL d   1      50.628  34.055  52.502  0.00  0.00     0.081 C 
BRANCH  14  15
ATOM     15  C   UNL d   1      49.964  34.532  52.507  0.00  0.00     0.208 C 
ATOM     16  O   UNL d   1      49.782  35.004  53.169  0.00  0.00    -0.285 OA
BRANCH  15  17
ATOM     17  C   UNL d   1      49.477  34.562  51.891  0.00  0.00     0.069 A 
ATOM     18  S   UNL d   1      48.697  34.890  51.943  0.00  0.00    -0.083 SA
ATOM     19  C   UNL d   1      48.347  34.831  51.199  0.00  0.00     0.035 A 
ATOM     20  C   UNL d   1      48.865  34.482  50.673  0.00  0.00     0.008 A 
ATOM     21  C   UNL d   1      49.538  34.315  51.059  0.00  0.00     0.010 A 
ENDBRANCH  15  17
ENDBRANCH  14  15
ENDBRANCH  13  14
ENDBRANCH   6  13
BRANCH   5  22
ATOM     22  C   UNL d   1      52.710  34.636  53.500  0.00  0.00     0.085 C 
BRANCH  22  23
ATOM     23  C   UNL d   1      52.953  34.897  54.245  0.00  0.00     0.019 C 
ATOM     24  C   UNL d   1      53.070  35.699  54.415  0.00  0.00     0.002 C 
ENDBRANCH  22  23
ENDBRANCH   5  22
TORSDOF 6
ENDMDL
MODEL 2
REMARK VINA RESULT:      -7.3      1.522      4.506
REMARK  6 active torsions:
REMARK  status: ('A' for Active; 'I' for Inactive)
REMARK    1  A    between atoms: C_18  and  N_5 
REMARK    2  A    between atoms: S_11  and  C_6 
REMARK    3  A    between atoms: C_10  and  C_12 
REMARK    4  A    between atoms: C_15  and  S_11 
REMARK    5  A    between atoms: C_12  and  C_15 
REMARK    6  A    between atoms: C_21  and  C_18 
ROOT
ATOM      1  C   UNL d   1      52.211  33.911  53.404  0.00  0.00     0.081 A 
ATOM      2  C   UNL d   1      51.930  33.200  53.120  0.00  0.00     0.117 A 
ATOM      3  N   UNL d   1      52.394  32.521  53.172  0.00  0.00    -0.215 NA
ATOM      4  C   UNL d   1      52.993  33.925  53.752  0.00  0.00     0.268 A 
ATOM      5  N   UNL d   1      53.427  33.242  53.790  0.00  0.00    -0.253 N 
ATOM      6  C   UNL d   1      53.143  32.578  53.515  0.00  0.00     0.182 A 
ATOM      7  S   UNL d   1      51.188  33.356  52.827  0.00  0.00    -0.068 SA
ATOM      8  C   UNL d   1      51.662  34.462  53.286  0.00  0.00     0.013 A 
ATOM      9  C   UNL d   1      50.997  34.102  52.911  0.00  0.00     0.031 A 
ATOM     10  O   UNL d   1      53.303  34.669  54.056  0.00  0.00    -0.267 OA
ATOM     11  C   UNL d   1      51.759  35.271  53.511  0.00  0.00     0.001 C 
ATOM     12  C   UNL d   1      50.279  34.481  52.680  0.00  0.00     0.007 C 
ENDROOT
BRANCH   6  13
ATOM     13  S   UNL d   1      53.601  31.880  53.560  0.00  0.00    -0.046 SA
BRANCH  13  14
ATOM     14  C   UNL d   1      53.225  31.126  53.560  0.00  0.00     0.081 C 
BRANCH  14  15
ATOM     15  C   UNL d   1      53.658  30.434  53.524  0.00  0.00     0.208 C 
ATOM     16  O   UNL d   1      54.339  30.381  53.046  0.00  0.00    -0.285 OA
BRANCH  15  17
ATOM     17  C   UNL d   1      53.451  29.799  53.937  0.00  0.00     0.069 A 
ATOM     18  S   UNL d   1      52.905  29.221  53.639  0.00  0.00    -0.083 SA
ATOM     19  C   UNL d   1      52.817  28.636  54.214  0.00  0.00     0.035 A 
ATOM     20  C   UNL d   1      53.280  28.812  54.864  0.00  0.00     0.008 A 
ATOM     21  C   UNL d   1      53.662  29.493  54.723  0.00  0.00     0.010 A 
ENDBRANCH  15  17
ENDBRANCH  14  15
ENDBRANCH  13  14
ENDBRANCH   6  13
BRANCH   5  22
ATOM     22  C   UNL d   1      54.172  33.232  54.116  0.00  0.00     0.085 C 
BRANCH  22  23
ATOM     23  C   UNL d   1      54.300  33.475  54.894  0.00  0.00     0.019 C 
ATOM     24  C   UNL d   1      55.060  33.555  55.212  0.00  0.00     0.002 C 
ENDBRANCH  22  23
ENDBRANCH   5  22
TORSDOF 6
ENDMDL
MODEL 3
REMARK VINA RESULT:      -6.3      1.592      4.327
REMARK  6 active torsions:
REMARK  status: ('A' for Active; 'I' for Inactive)
REMARK    1  A    between atoms: C_18  and  N_5 
REMARK    2  A    between atoms: S_11  and  C_6 
REMARK    3  A    between atoms: C_10  and  C_12 
REMARK    4  A    between atoms: C_15  and  S_11 
REMARK    5  A    between atoms: C_12  and  C_15 
REMARK    6  A    between atoms: C_21  and  C_18 
ROOT
ATOM      1  C   UNL d   1      52.959  34.490  54.130  0.00  0.00     0.081 A 
ATOM      2  C   UNL d   1      53.387  33.830  54.345  0.00  0.00     0.117 A 
ATOM      3  N   UNL d   1      53.263  33.112  53.960  0.00  0.00    -0.215 NA
ATOM      4  C   UNL d   1      52.385  34.409  53.499  0.00  0.00     0.268 A 
ATOM      5  N   UNL d   1      52.284  33.691  53.138  0.00  0.00    -0.253 N 
ATOM      6  C   UNL d   1      52.700  33.078  53.357  0.00  0.00     0.182 A 
ATOM      7  S   UNL d   1      53.878  34.072  54.946  0.00  0.00    -0.068 SA
ATOM      8  C   UNL d   1      53.185  35.094  54.581  0.00  0.00     0.013 A 
ATOM      9  C   UNL d   1      53.782  34.822  55.112  0.00  0.00     0.031 A 
ATOM     10  O   UNL d   1      51.926  35.098  53.260  0.00  0.00    -0.267 OA
ATOM     11  C   UNL d   1      52.860  35.871  54.515  0.00  0.00     0.001 C 
ATOM     12  C   UNL d   1      54.186  35.278  55.697  0.00  0.00     0.007 C 
ENDROOT
BRANCH   6  13
ATOM     13  S   UNL d   1      52.586  32.342  52.977  0.00  0.00    -0.046 SA
BRANCH  13  14
ATOM     14  C   UNL d   1      52.970  31.650  53.268  0.00  0.00     0.081 C 
BRANCH  14  15
ATOM     15  C   UNL d   1      52.871  30.924  52.907  0.00  0.00     0.208 C 
ATOM     16  O   UNL d   1      52.655  30.874  52.104  0.00  0.00    -0.285 OA
BRANCH  15  17
ATOM     17  C   UNL d   1      52.976  30.253  53.301  0.00  0.00     0.069 A 
ATOM     18  S   UNL d   1      52.412  29.619  53.278  0.00  0.00    -0.083 SA
ATOM     19  C   UNL d   1      52.700  29.008  53.752  0.00  0.00     0.035 A 
ATOM     20  C   UNL d   1      53.419  29.220  54.076  0.00  0.00     0.008 A 
ATOM     21  C   UNL d   1      53.602  29.950  53.824  0.00  0.00     0.010 A 
ENDBRANCH  15  17
ENDBRANCH  14  15
ENDBRANCH  13  14
ENDBRANCH   6  13
BRANCH   5  22
ATOM     22  C   UNL d   1      51.745  33.592  52.537  0.00  0.00     0.085 C 
BRANCH  22  23
ATOM     23  C   UNL d   1      50.990  33.922  52.583  0.00  0.00     0.019 C 
ATOM     24  C   UNL d   1      50.463  33.905  51.945  0.00  0.00     0.002 C 
ENDBRANCH  22  23
ENDBRANCH   5  22
TORSDOF 6
ENDMDL
MODEL 4
REMARK VINA RESULT:      -6.1      1.313      2.515
REMARK  6 active torsions:
REMARK  status: ('A' for Active; 'I' for Inactive)
REMARK    1  A    between atoms: C_18  and  N_5 
REMARK    2  A    between atoms: S_11  and  C_6 
REMARK    3  A    between atoms: C_10  and  C_12 
REMARK    4  A    between atoms: C_15  and  S_11 
REMARK    5  A    between atoms: C_12  and  C_15 
REMARK    6  A    between atoms: C_21  and  C_18 
ROOT
ATOM      1  C   UNL d   1      53.666  33.349  54.364  0.00  0.00     0.081 A 
ATOM      2  C   UNL d   1      53.190  34.007  54.290  0.00  0.00     0.117 A 
ATOM      3  N   UNL d   1      52.558  34.003  53.761  0.00  0.00    -0.215 NA
ATOM      4  C   UNL d   1      53.487  32.665  53.880  0.00  0.00     0.268 A 
ATOM      5  N   UNL d   1      52.859  32.690  53.369  0.00  0.00    -0.253 N 
ATOM      6  C   UNL d   1      52.420  33.323  53.313  0.00  0.00     0.182 A 
ATOM      7  S   UNL d   1      53.490  34.556  54.808  0.00  0.00    -0.068 SA
ATOM      8  C   UNL d   1      54.221  33.500  54.901  0.00  0.00     0.013 A 
ATOM      9  C   UNL d   1      54.107  34.285  55.190  0.00  0.00     0.031 A 
ATOM     10  O   UNL d   1      53.981  31.963  53.948  0.00  0.00    -0.267 OA
ATOM     11  C   UNL d   1      54.817  32.944  55.125  0.00  0.00     0.001 C 
ATOM     12  C   UNL d   1      54.571  34.684  55.772  0.00  0.00     0.007 C 
ENDROOT
BRANCH   6  13
ATOM     13  S   UNL d   1      51.775  33.336  52.782  0.00  0.00    -0.046 SA
BRANCH  13  14
ATOM     14  C   UNL d   1      51.178  33.926  52.853  0.00  0.00     0.081 C 
BRANCH  14  15
ATOM     15  C   UNL d   1      50.736  34.165  52.209  0.00  0.00     0.208 C 
ATOM     16  O   UNL d   1      51.026  34.071  51.433  0.00  0.00    -0.285 OA
BRANCH  15  17
ATOM     17  C   UNL d   1      50.025  34.488  52.297  0.00  0.00     0.069 A 
ATOM     18  S   UNL d   1      49.454  34.512  51.670  0.00  0.00    -0.083 SA
ATOM     19  C   UNL d   1      48.779  34.888  51.956  0.00  0.00     0.035 A 
ATOM     20  C   UNL d   1      48.890  35.107  52.736  0.00  0.00     0.008 A 
ATOM     21  C   UNL d   1      49.617  34.881  52.958  0.00  0.00     0.010 A 
ENDBRANCH  15  17
ENDBRANCH  14  15
ENDBRANCH  13  14
ENDBRANCH   6  13
BRANCH   5  22
ATOM     22  C   UNL d   1      52.671  32.052  52.900  0.00  0.00     0.085 C 
BRANCH  22  23
ATOM     23  C   UNL d   1      52.623  31.291  53.215  0.00  0.00     0.019 C 
ATOM     24  C   UNL d   1      52.544  30.620  52.735  0.00  0.00     0.002 C 
ENDBRANCH  22  23
ENDBRANCH   5  22
TORSDOF 6
ENDMDL
MODEL 5
REMARK VINA RESULT:      -6.1      9.826     10.511
REMARK  6 active torsions:
REMARK  status: ('A' for Active; 'I' for Inactive)
REMARK    1  A    between atoms: C_18  and  N_5 
REMARK    2  A    between atoms: S_11  and  C_6 
REMARK    3  A    between atoms: C_10  and  C_12 
REMARK    4  A    between atoms: C_15  and  S_11 
REMARK    5  A    between atoms: C_12  and  C_15 
REMARK    6  A    between atoms: C_21  and  C_18 
ROOT
ATOM      1  C   UNL d   1      44.941  29.022  57.538  0.00  0.00     0.081 A 
ATOM      2  C   UNL d   1      45.140  28.770  58.288  0.00  0.00     0.117 A 
ATOM      3  N   UNL d   1      45.080  29.286  58.927  0.00  0.00    -0.215 NA
ATOM      4  C   UNL d   1      44.673  29.830  57.442  0.00  0.00     0.268 A 
ATOM      5  N   UNL d   1      44.624  30.315  58.089  0.00  0.00    -0.253 N 
ATOM      6  C   UNL d   1      44.817  30.057  58.791  0.00  0.00     0.182 A 
ATOM      7  S   UNL d   1      45.370  27.995  58.207  0.00  0.00    -0.068 SA
ATOM      8  C   UNL d   1      45.048  28.425  57.037  0.00  0.00     0.013 A 
ATOM      9  C   UNL d   1      45.327  27.757  57.472  0.00  0.00     0.031 A 
ATOM     10  O   UNL d   1      44.460  30.109  56.656  0.00  0.00    -0.267 OA
ATOM     11  C   UNL d   1      44.898  28.481  56.207  0.00  0.00     0.001 C 
ATOM     12  C   UNL d   1      45.516  26.995  57.163  0.00  0.00     0.007 C 
ENDROOT
BRANCH   6  13
ATOM     13  S   UNL d   1      44.762  30.568  59.451  0.00  0.00    -0.046 SA
BRANCH  13  14
ATOM     14  C   UNL d   1      44.743  30.252  60.232  0.00  0.00     0.081 C 
BRANCH  14  15
ATOM     15  C   UNL d   1      44.648  30.734  60.884  0.00  0.00     0.208 C 
ATOM     16  O   UNL d   1      44.636  31.564  60.803  0.00  0.00    -0.285 OA
BRANCH  15  17
ATOM     17  C   UNL d   1      44.564  30.436  61.606  0.00  0.00     0.069 A 
ATOM     18  S   UNL d   1      44.352  30.913  62.275  0.00  0.00    -0.083 SA
ATOM     19  C   UNL d   1      44.315  30.421  62.935  0.00  0.00     0.035 A 
ATOM     20  C   UNL d   1      44.493  29.652  62.722  0.00  0.00     0.008 A 
ATOM     21  C   UNL d   1      44.643  29.637  61.942  0.00  0.00     0.010 A 
ENDBRANCH  15  17
ENDBRANCH  14  15
ENDBRANCH  13  14
ENDBRANCH   6  13
BRANCH   5  22
ATOM     22  C   UNL d   1      44.372  31.085  58.021  0.00  0.00     0.085 C 
BRANCH  22  23
ATOM     23  C   UNL d   1      44.711  31.598  57.470  0.00  0.00     0.019 C 
ATOM     24  C   UNL d   1      44.415  32.360  57.337  0.00  0.00     0.002 C 
ENDBRANCH  22  23
ENDBRANCH   5  22
TORSDOF 6
ENDMDL
MODEL 6
REMARK VINA RESULT:      -5.0     10.432     11.095
REMARK  6 active torsions:
REMARK  status: ('A' for Active; 'I' for Inactive)
REMARK    1  A    between atoms: C_18  and  N_5 
REMARK    2  A    between atoms: S_11  and  C_6 
REMARK    3  A    between atoms: C_10  and  C_12 
REMARK    4  A    between atoms: C_15  and  S_11 
REMARK    5  A    between atoms: C_12  and  C_15 
REMARK    6  A    between atoms: C_21  and  C_18 
ROOT
ATOM      1  C   UNL d   1      44.662  26.603  57.709  0.00  0.00     0.081 A 
ATOM      2  C   UNL d   1      44.652  26.685  58.520  0.00  0.00     0.117 A 
ATOM      3  N   UNL d   1      44.746  27.429  58.862  0.00  0.00    -0.215 NA
ATOM      4  C   UNL d   1      44.771  27.307  57.234  0.00  0.00     0.268 A 
ATOM      5  N   UNL d   1      44.860  28.026  57.597  0.00  0.00    -0.253 N 
ATOM      6  C   UNL d   1      44.848  28.083  58.368  0.00  0.00     0.182 A 
ATOM      7  S   UNL d   1      44.541  25.936  58.817  0.00  0.00    -0.068 SA
ATOM      8  C   UNL d   1      44.562  25.843  57.533  0.00  0.00     0.013 A 
ATOM      9  C   UNL d   1      44.483  25.409  58.253  0.00  0.00     0.031 A 
ATOM     10  O   UNL d   1      44.783  27.236  56.376  0.00  0.00    -0.267 OA
ATOM     11  C   UNL d   1      44.541  25.546  56.741  0.00  0.00     0.001 C 
ATOM     12  C   UNL d   1      44.367  24.577  58.334  0.00  0.00     0.007 C 
ENDROOT
BRANCH   6  13
ATOM     13  S   UNL d   1      44.942  28.830  58.730  0.00  0.00    -0.046 SA
BRANCH  13  14
ATOM     14  C   UNL d   1      44.813  28.918  59.559  0.00  0.00     0.081 C 
BRANCH  14  15
ATOM     15  C   UNL d   1      44.873  29.646  59.923  0.00  0.00     0.208 C 
ATOM     16  O   UNL d   1      45.105  30.322  59.493  0.00  0.00    -0.285 OA
BRANCH  15  17
ATOM     17  C   UNL d   1      44.716  29.736  60.688  0.00  0.00     0.069 A 
ATOM     18  S   UNL d   1      44.937  30.432  61.120  0.00  0.00    -0.083 SA
ATOM     19  C   UNL d   1      44.687  30.336  61.900  0.00  0.00     0.035 A 
ATOM     20  C   UNL d   1      44.316  29.613  61.987  0.00  0.00     0.008 A 
ATOM     21  C   UNL d   1      44.322  29.242  61.286  0.00  0.00     0.010 A 
ENDBRANCH  15  17
ENDBRANCH  14  15
ENDBRANCH  13  14
ENDBRANCH   6  13
BRANCH   5  22
ATOM     22  C   UNL d   1      44.965  28.707  57.166  0.00  0.00     0.085 C 
BRANCH  22  23
ATOM     23  C   UNL d   1      44.453  28.905  56.550  0.00  0.00     0.019 C 
ATOM     24  C   UNL d   1      44.512  29.623  56.141  0.00  0.00     0.002 C 
ENDBRANCH  22  23
ENDBRANCH   5  22
TORSDOF 6
ENDMDL
