MODEL 1
REMARK VINA RESULT:      94.4      0.000      0.000
REMARK  7 active torsions:
REMARK  status: ('A' for Active; 'I' for Inactive)
REMARK    1  A    between atoms: C_7  and  C_1 
REMARK    2  A    between atoms: C_9  and  N_2 
REMARK    3  A    between atoms: C_6  and  C_3 
REMARK    4  A    between atoms: C_8  and  C_7 
REMARK    5  A    between atoms: C_20  and  C_9 
REMARK    6  A    between atoms: O_24  and  C_10 
REMARK    7  A    between atoms: O_26  and  C_22 
ROOT
ATOM      1  C   UNL d   1     -52.264  25.650  34.724  0.00  0.00     0.101 A 
ATOM      2  N   UNL d   1     -51.678  26.377  35.672  0.00  0.00    -0.270 N 
ATOM      3  C   UNL d   1     -51.611  26.118  34.902  0.00  0.00     0.075 A 
ATOM      4  C   UNL d   1     -52.746  25.620  35.401  0.00  0.00     0.256 A 
ATOM      5  C   UNL d   1     -52.383  26.070  35.987  0.00  0.00     0.304 A 
ATOM      6  O   UNL d   1     -52.671  26.192  36.752  0.00  0.00    -0.263 OA
ATOM      7  O   UNL d   1     -53.460  25.213  35.475  0.00  0.00    -0.281 OA
ENDROOT
BRANCH   3   8
ATOM      8  C   UNL d   1     -50.994  26.288  34.372  0.00  0.00     0.041 A 
ATOM      9  C   UNL d   1     -51.037  26.971  33.916  0.00  0.00     0.096 A 
ATOM     10  C   UNL d   1     -50.426  27.151  33.382  0.00  0.00     0.026 A 
ATOM     11  C   UNL d   1     -49.777  26.638  33.316  0.00  0.00     0.026 A 
ATOM     12  C   UNL d   1     -49.738  25.951  33.778  0.00  0.00     0.094 A 
ATOM     13  C   UNL d   1     -50.347  25.779  34.305  0.00  0.00     0.028 A 
BRANCH   9  14
ATOM     14  O   UNL d   1     -51.678  27.478  33.980  0.00  0.00    -0.328 OA
ATOM     15  C   UNL d   1     -52.053  27.773  33.307  0.00  0.00     0.181 C 
ENDBRANCH   9  14
BRANCH  12  16
ATOM     16  O   UNL d   1     -49.090  25.440  33.712  0.00  0.00    -0.328 OA
ATOM     17  C   UNL d   1     -49.177  24.720  33.306  0.00  0.00     0.181 C 
ENDBRANCH  12  16
ENDBRANCH   3   8
BRANCH   2  18
ATOM     18  C   UNL d   1     -51.138  26.865  36.078  0.00  0.00     0.085 C 
BRANCH  18  19
ATOM     19  C   UNL d   1     -51.019  26.758  36.889  0.00  0.00     0.037 A 
ATOM     20  C   UNL d   1     -51.541  26.271  37.319  0.00  0.00     0.100 A 
ATOM     21  N   UNL d   1     -51.422  26.165  38.124  0.00  0.00    -0.242 NA
ATOM     22  C   UNL d   1     -50.794  26.535  38.509  0.00  0.00     0.099 A 
ATOM     23  C   UNL d   1     -50.280  27.016  38.080  0.00  0.00     0.021 A 
ATOM     24  C   UNL d   1     -50.394  27.127  37.268  0.00  0.00     0.005 A 
ENDBRANCH  18  19
ENDBRANCH   2  18
BRANCH   1  25
ATOM     25  C   UNL d   1     -52.421  25.272  34.002  0.00  0.00     0.223 C 
ATOM     26  O   UNL d   1     -52.430  25.708  33.306  0.00  0.00    -0.284 OA
BRANCH  25  27
ATOM     27  C   UNL d   1     -52.566  24.469  33.988  0.00  0.00     0.139 A 
ATOM     28  O   UNL d   1     -52.931  23.940  34.504  0.00  0.00    -0.302 OA
ATOM     29  C   UNL d   1     -52.900  23.189  34.168  0.00  0.00     0.123 A 
ATOM     30  C   UNL d   1     -52.518  23.252  33.449  0.00  0.00     0.029 A 
ATOM     31  C   UNL d   1     -52.311  24.041  33.337  0.00  0.00     0.030 A 
ENDBRANCH  25  27
ENDBRANCH   1  25
TORSDOF 7
ENDMDL
MODEL 2
REMARK VINA RESULT:      95.9      1.060      2.607
REMARK  7 active torsions:
REMARK  status: ('A' for Active; 'I' for Inactive)
REMARK    1  A    between atoms: C_7  and  C_1 
REMARK    2  A    between atoms: C_9  and  N_2 
REMARK    3  A    between atoms: C_6  and  C_3 
REMARK    4  A    between atoms: C_8  and  C_7 
REMARK    5  A    between atoms: C_20  and  C_9 
REMARK    6  A    between atoms: O_24  and  C_10 
REMARK    7  A    between atoms: O_26  and  C_22 
ROOT
ATOM      1  C   UNL d   1     -51.051  26.439  34.741  0.00  0.00     0.101 A 
ATOM      2  N   UNL d   1     -51.775  25.968  35.753  0.00  0.00    -0.270 N 
ATOM      3  C   UNL d   1     -51.680  25.950  34.944  0.00  0.00     0.075 A 
ATOM      4  C   UNL d   1     -50.750  26.768  35.443  0.00  0.00     0.256 A 
ATOM      5  C   UNL d   1     -51.198  26.477  36.069  0.00  0.00     0.304 A 
ATOM      6  O   UNL d   1     -51.091  26.659  36.868  0.00  0.00    -0.263 OA
ATOM      7  O   UNL d   1     -50.116  27.293  35.504  0.00  0.00    -0.281 OA
ENDROOT
BRANCH   3   8
ATOM      8  C   UNL d   1     -52.134  25.515  34.400  0.00  0.00     0.041 A 
ATOM      9  C   UNL d   1     -52.705  25.905  33.955  0.00  0.00     0.096 A 
ATOM     10  C   UNL d   1     -53.165  25.481  33.408  0.00  0.00     0.026 A 
ATOM     11  C   UNL d   1     -53.041  24.664  33.317  0.00  0.00     0.026 A 
ATOM     12  C   UNL d   1     -52.465  24.276  33.768  0.00  0.00     0.094 A 
ATOM     13  C   UNL d   1     -52.013  24.703  34.308  0.00  0.00     0.028 A 
BRANCH   9  14
ATOM     14  O   UNL d   1     -52.828  26.711  34.044  0.00  0.00    -0.328 OA
ATOM     15  C   UNL d   1     -53.073  27.173  33.408  0.00  0.00     0.181 C 
ENDBRANCH   9  14
BRANCH  12  16
ATOM     16  O   UNL d   1     -52.342  23.462  33.677  0.00  0.00    -0.328 OA
ATOM     17  C   UNL d   1     -51.629  23.190  33.349  0.00  0.00     0.181 C 
ENDBRANCH  12  16
ENDBRANCH   3   8
BRANCH   2  18
ATOM     18  C   UNL d   1     -52.347  25.552  36.193  0.00  0.00     0.085 C 
BRANCH  18  19
ATOM     19  C   UNL d   1     -52.400  25.669  37.011  0.00  0.00     0.037 A 
ATOM     20  C   UNL d   1     -53.033  26.115  37.320  0.00  0.00     0.100 A 
ATOM     21  N   UNL d   1     -53.086  26.231  38.130  0.00  0.00    -0.242 NA
ATOM     22  C   UNL d   1     -52.521  25.911  38.638  0.00  0.00     0.099 A 
ATOM     23  C   UNL d   1     -51.897  25.471  38.329  0.00  0.00     0.021 A 
ATOM     24  C   UNL d   1     -51.838  25.350  37.512  0.00  0.00     0.005 A 
ENDBRANCH  18  19
ENDBRANCH   2  18
BRANCH   1  25
ATOM     25  C   UNL d   1     -50.763  26.585  33.976  0.00  0.00     0.223 C 
ATOM     26  O   UNL d   1     -51.158  27.109  33.483  0.00  0.00    -0.284 OA
BRANCH  25  27
ATOM     27  C   UNL d   1     -50.088  26.205  33.720  0.00  0.00     0.139 A 
ATOM     28  O   UNL d   1     -49.898  25.423  33.539  0.00  0.00    -0.302 OA
ATOM     29  C   UNL d   1     -49.109  25.396  33.306  0.00  0.00     0.123 A 
ATOM     30  C   UNL d   1     -48.811  26.155  33.343  0.00  0.00     0.029 A 
ATOM     31  C   UNL d   1     -49.413  26.655  33.598  0.00  0.00     0.030 A 
ENDBRANCH  25  27
ENDBRANCH   1  25
TORSDOF 7
ENDMDL
