MODEL 1
REMARK VINA RESULT:      -3.2      0.000      0.000
REMARK  5 active torsions:
REMARK  status: ('A' for Active; 'I' for Inactive)
REMARK    1  A    between atoms: C_2  and  S_1 
REMARK    2  A    between atoms: N_5  and  S_1 
REMARK    3  A    between atoms: O_18  and  C_4 
REMARK    4  A    between atoms: C_13  and  N_5 
REMARK    5  A    between atoms: C_11  and  C_13 
ROOT
ATOM      1  C   UNL d   1      58.826  -0.582  29.823  0.00  0.00     0.128 A 
ATOM      2  C   UNL d   1      59.370   0.019  29.973  0.00  0.00     0.026 A 
ATOM      3  C   UNL d   1      58.969  -1.125  29.219  0.00  0.00     0.106 A 
ATOM      4  C   UNL d   1      60.058   0.078  29.517  0.00  0.00     0.059 A 
ATOM      5  C   UNL d   1      59.656  -1.066  28.763  0.00  0.00     0.026 A 
ATOM      6  C   UNL d   1      60.200  -0.464  28.912  0.00  0.00     0.013 A 
ATOM      7 CL   UNL d   1      60.602   0.680  29.666  0.00  0.00    -0.082 Cl
ATOM      8  C   UNL d   1      60.888  -0.405  28.456  0.00  0.00     0.001 C 
ENDROOT
BRANCH   1   9
ATOM      9  S   UNL d   1      58.139  -0.641  30.279  0.00  0.00     0.287 S 
ATOM     10  O   UNL d   1      57.784  -0.052  29.820  0.00  0.00    -0.198 OA
ATOM     11  O   UNL d   1      58.493  -1.230  30.738  0.00  0.00    -0.198 OA
BRANCH   9  12
ATOM     12  N   UNL d   1      57.451  -0.700  30.735  0.00  0.00    -0.155 NA
BRANCH  12  13
ATOM     13  C   UNL d   1      57.375  -0.258  31.427  0.00  0.00     0.137 C 
BRANCH  13  14
ATOM     14  C   UNL d   1      56.762  -0.421  31.958  0.00  0.00     0.120 A 
ATOM     15  O   UNL d   1      56.386  -1.150  32.060  0.00  0.00    -0.304 OA
ATOM     16  C   UNL d   1      55.812  -1.062  32.641  0.00  0.00     0.123 A 
ATOM     17  C   UNL d   1      55.830  -0.278  32.902  0.00  0.00     0.029 A 
ATOM     18  C   UNL d   1      56.414   0.113  32.480  0.00  0.00     0.028 A 
ENDBRANCH  13  14
ENDBRANCH  12  13
ENDBRANCH   9  12
ENDBRANCH   1   9
BRANCH   3  19
ATOM     19  O   UNL d   1      58.423  -1.730  29.067  0.00  0.00    -0.327 OA
ATOM     20  C   UNL d   1      58.560  -2.265  28.455  0.00  0.00     0.181 C 
ENDBRANCH   3  19
TORSDOF 5
ENDMDL
MODEL 2
REMARK VINA RESULT:      -3.1      2.055      4.687
REMARK  5 active torsions:
REMARK  status: ('A' for Active; 'I' for Inactive)
REMARK    1  A    between atoms: C_2  and  S_1 
REMARK    2  A    between atoms: N_5  and  S_1 
REMARK    3  A    between atoms: O_18  and  C_4 
REMARK    4  A    between atoms: C_13  and  N_5 
REMARK    5  A    between atoms: C_11  and  C_13 
ROOT
ATOM      1  C   UNL d   1      56.616   0.035  32.521  0.00  0.00     0.128 A 
ATOM      2  C   UNL d   1      55.812  -0.130  32.603  0.00  0.00     0.026 A 
ATOM      3  C   UNL d   1      57.025   0.401  33.136  0.00  0.00     0.106 A 
ATOM      4  C   UNL d   1      55.416   0.072  33.301  0.00  0.00     0.059 A 
ATOM      5  C   UNL d   1      56.630   0.603  33.834  0.00  0.00     0.026 A 
ATOM      6  C   UNL d   1      55.826   0.438  33.916  0.00  0.00     0.013 A 
ATOM      7 CL   UNL d   1      54.612  -0.093  33.382  0.00  0.00    -0.082 Cl
ATOM      8  C   UNL d   1      55.431   0.640  34.614  0.00  0.00     0.001 C 
ENDROOT
BRANCH   1   9
ATOM      9  S   UNL d   1      57.011  -0.167  31.823  0.00  0.00     0.287 S 
ATOM     10  O   UNL d   1      56.994   0.625  31.585  0.00  0.00    -0.198 OA
ATOM     11  O   UNL d   1      57.027  -0.958  32.061  0.00  0.00    -0.198 OA
BRANCH   9  12
ATOM     12  N   UNL d   1      57.406  -0.369  31.125  0.00  0.00    -0.155 NA
BRANCH  12  13
ATOM     13  C   UNL d   1      57.570   0.210  30.561  0.00  0.00     0.137 C 
BRANCH  13  14
ATOM     14  C   UNL d   1      58.040   0.028  29.906  0.00  0.00     0.120 A 
ATOM     15  O   UNL d   1      58.010  -0.669  29.461  0.00  0.00    -0.304 OA
ATOM     16  C   UNL d   1      58.572  -0.615  28.864  0.00  0.00     0.123 A 
ATOM     17  C   UNL d   1      58.953   0.115  28.935  0.00  0.00     0.029 A 
ATOM     18  C   UNL d   1      58.624   0.507  29.576  0.00  0.00     0.028 A 
ENDBRANCH  13  14
ENDBRANCH  12  13
ENDBRANCH   9  12
ENDBRANCH   1   9
BRANCH   3  19
ATOM     19  O   UNL d   1      57.832   0.568  33.056  0.00  0.00    -0.327 OA
ATOM     20  C   UNL d   1      58.299   0.682  33.726  0.00  0.00     0.181 C 
ENDBRANCH   3  19
TORSDOF 5
ENDMDL
MODEL 3
REMARK VINA RESULT:      -2.3      1.270      1.697
REMARK  5 active torsions:
REMARK  status: ('A' for Active; 'I' for Inactive)
REMARK    1  A    between atoms: C_2  and  S_1 
REMARK    2  A    between atoms: N_5  and  S_1 
REMARK    3  A    between atoms: O_18  and  C_4 
REMARK    4  A    between atoms: C_13  and  N_5 
REMARK    5  A    between atoms: C_11  and  C_13 
ROOT
ATOM      1  C   UNL d   1      58.747  -1.085  29.746  0.00  0.00     0.128 A 
ATOM      2  C   UNL d   1      58.703  -1.909  29.733  0.00  0.00     0.026 A 
ATOM      3  C   UNL d   1      59.345  -0.699  29.328  0.00  0.00     0.106 A 
ATOM      4  C   UNL d   1      59.257  -2.347  29.303  0.00  0.00     0.059 A 
ATOM      5  C   UNL d   1      59.899  -1.137  28.898  0.00  0.00     0.026 A 
ATOM      6  C   UNL d   1      59.855  -1.961  28.886  0.00  0.00     0.013 A 
ATOM      7 CL   UNL d   1      59.213  -3.170  29.291  0.00  0.00    -0.082 Cl
ATOM      8  C   UNL d   1      60.409  -2.399  28.455  0.00  0.00     0.001 C 
ENDROOT
BRANCH   1   9
ATOM      9  S   UNL d   1      58.193  -0.647  30.176  0.00  0.00     0.287 S 
ATOM     10  O   UNL d   1      57.684  -0.652  29.525  0.00  0.00    -0.198 OA
ATOM     11  O   UNL d   1      58.702  -0.643  30.827  0.00  0.00    -0.198 OA
BRANCH   9  12
ATOM     12  N   UNL d   1      57.639  -0.209  30.606  0.00  0.00    -0.155 NA
BRANCH  12  13
ATOM     13  C   UNL d   1      57.604  -0.281  31.427  0.00  0.00     0.137 C 
BRANCH  13  14
ATOM     14  C   UNL d   1      56.913  -0.075  31.832  0.00  0.00     0.120 A 
ATOM     15  O   UNL d   1      56.583   0.682  31.881  0.00  0.00    -0.304 OA
ATOM     16  C   UNL d   1      55.900   0.633  32.335  0.00  0.00     0.123 A 
ATOM     17  C   UNL d   1      55.803  -0.154  32.569  0.00  0.00     0.029 A 
ATOM     18  C   UNL d   1      56.427  -0.586  32.258  0.00  0.00     0.028 A 
ENDBRANCH  13  14
ENDBRANCH  12  13
ENDBRANCH   9  12
ENDBRANCH   1   9
BRANCH   3  19
ATOM     19  O   UNL d   1      59.391   0.128  29.339  0.00  0.00    -0.327 OA
ATOM     20  C   UNL d   1      59.934   0.518  28.857  0.00  0.00     0.181 C 
ENDBRANCH   3  19
TORSDOF 5
ENDMDL
MODEL 4
REMARK VINA RESULT:      -2.2      1.194      1.705
REMARK  5 active torsions:
REMARK  status: ('A' for Active; 'I' for Inactive)
REMARK    1  A    between atoms: C_2  and  S_1 
REMARK    2  A    between atoms: N_5  and  S_1 
REMARK    3  A    between atoms: O_18  and  C_4 
REMARK    4  A    between atoms: C_13  and  N_5 
REMARK    5  A    between atoms: C_11  and  C_13 
ROOT
ATOM      1  C   UNL d   1      58.293  -0.374  30.272  0.00  0.00     0.128 A 
ATOM      2  C   UNL d   1      58.084  -0.932  29.701  0.00  0.00     0.026 A 
ATOM      3  C   UNL d   1      59.031  -0.007  30.237  0.00  0.00     0.106 A 
ATOM      4  C   UNL d   1      58.614  -1.123  29.095  0.00  0.00     0.059 A 
ATOM      5  C   UNL d   1      59.561  -0.198  29.631  0.00  0.00     0.026 A 
ATOM      6  C   UNL d   1      59.352  -0.756  29.061  0.00  0.00     0.013 A 
ATOM      7 CL   UNL d   1      58.405  -1.681  28.525  0.00  0.00    -0.082 Cl
ATOM      8  C   UNL d   1      59.881  -0.947  28.455  0.00  0.00     0.001 C 
ENDROOT
BRANCH   1   9
ATOM      9  S   UNL d   1      57.763  -0.182  30.877  0.00  0.00     0.287 S 
ATOM     10  O   UNL d   1      57.690   0.583  30.572  0.00  0.00    -0.198 OA
ATOM     11  O   UNL d   1      57.837  -0.946  31.183  0.00  0.00    -0.198 OA
BRANCH   9  12
ATOM     12  N   UNL d   1      57.234   0.009  31.483  0.00  0.00    -0.155 NA
BRANCH  12  13
ATOM     13  C   UNL d   1      56.872  -0.590  31.920  0.00  0.00     0.137 C 
BRANCH  13  14
ATOM     14  C   UNL d   1      56.270  -0.406  32.456  0.00  0.00     0.120 A 
ATOM     15  O   UNL d   1      55.686  -0.923  32.731  0.00  0.00    -0.304 OA
ATOM     16  C   UNL d   1      55.206  -0.510  33.254  0.00  0.00     0.123 A 
ATOM     17  C   UNL d   1      55.490   0.265  33.306  0.00  0.00     0.029 A 
ATOM     18  C   UNL d   1      56.144   0.325  32.815  0.00  0.00     0.028 A 
ENDBRANCH  13  14
ENDBRANCH  12  13
ENDBRANCH   9  12
ENDBRANCH   1   9
BRANCH   3  19
ATOM     19  O   UNL d   1      59.243   0.554  30.809  0.00  0.00    -0.327 OA
ATOM     20  C   UNL d   1      60.038   0.682  30.988  0.00  0.00     0.181 C 
ENDBRANCH   3  19
TORSDOF 5
ENDMDL
MODEL 5
REMARK VINA RESULT:      -1.9      1.355      1.467
REMARK  5 active torsions:
REMARK  status: ('A' for Active; 'I' for Inactive)
REMARK    1  A    between atoms: C_2  and  S_1 
REMARK    2  A    between atoms: N_5  and  S_1 
REMARK    3  A    between atoms: O_18  and  C_4 
REMARK    4  A    between atoms: C_13  and  N_5 
REMARK    5  A    between atoms: C_11  and  C_13 
ROOT
ATOM      1  C   UNL d   1      58.590   0.371  30.427  0.00  0.00     0.128 A 
ATOM      2  C   UNL d   1      59.336   0.371  30.779  0.00  0.00     0.026 A 
ATOM      3  C   UNL d   1      58.520   0.474  29.611  0.00  0.00     0.106 A 
ATOM      4  C   UNL d   1      60.013   0.474  30.315  0.00  0.00     0.059 A 
ATOM      5  C   UNL d   1      59.196   0.577  29.147  0.00  0.00     0.026 A 
ATOM      6  C   UNL d   1      59.942   0.577  29.499  0.00  0.00     0.013 A 
ATOM      7 CL   UNL d   1      60.759   0.474  30.666  0.00  0.00    -0.082 Cl
ATOM      8  C   UNL d   1      60.619   0.680  29.035  0.00  0.00     0.001 C 
ENDROOT
BRANCH   1   9
ATOM      9  S   UNL d   1      57.913   0.268  30.891  0.00  0.00     0.287 S 
ATOM     10  O   UNL d   1      57.552  -0.147  30.273  0.00  0.00    -0.198 OA
ATOM     11  O   UNL d   1      58.274   0.682  31.508  0.00  0.00    -0.198 OA
BRANCH   9  12
ATOM     12  N   UNL d   1      57.236   0.165  31.355  0.00  0.00    -0.155 NA
BRANCH  12  13
ATOM     13  C   UNL d   1      57.306   0.073  32.172  0.00  0.00     0.137 C 
BRANCH  13  14
ATOM     14  C   UNL d   1      56.630  -0.042  32.635  0.00  0.00     0.120 A 
ATOM     15  O   UNL d   1      56.372   0.446  33.251  0.00  0.00    -0.304 OA
ATOM     16  C   UNL d   1      55.680   0.125  33.557  0.00  0.00     0.123 A 
ATOM     17  C   UNL d   1      55.506  -0.563  33.132  0.00  0.00     0.029 A 
ATOM     18  C   UNL d   1      56.092  -0.662  32.567  0.00  0.00     0.028 A 
ENDBRANCH  13  14
ENDBRANCH  12  13
ENDBRANCH   9  12
ENDBRANCH   1   9
BRANCH   3  19
ATOM     19  O   UNL d   1      57.771   0.474  29.256  0.00  0.00    -0.327 OA
ATOM     20  C   UNL d   1      57.694   0.655  28.455  0.00  0.00     0.181 C 
ENDBRANCH   3  19
TORSDOF 5
ENDMDL
MODEL 6
REMARK VINA RESULT:      -1.0      1.998      4.098
REMARK  5 active torsions:
REMARK  status: ('A' for Active; 'I' for Inactive)
REMARK    1  A    between atoms: C_2  and  S_1 
REMARK    2  A    between atoms: N_5  and  S_1 
REMARK    3  A    between atoms: O_18  and  C_4 
REMARK    4  A    between atoms: C_13  and  N_5 
REMARK    5  A    between atoms: C_11  and  C_13 
ROOT
ATOM      1  C   UNL d   1      58.429  -1.133  29.722  0.00  0.00     0.128 A 
ATOM      2  C   UNL d   1      57.920  -1.366  30.328  0.00  0.00     0.026 A 
ATOM      3  C   UNL d   1      58.580  -0.332  29.598  0.00  0.00     0.106 A 
ATOM      4  C   UNL d   1      57.562  -0.797  30.810  0.00  0.00     0.059 A 
ATOM      5  C   UNL d   1      58.223   0.237  30.080  0.00  0.00     0.026 A 
ATOM      6  C   UNL d   1      57.714   0.004  30.686  0.00  0.00     0.013 A 
ATOM      7 CL   UNL d   1      57.053  -1.030  31.416  0.00  0.00    -0.082 Cl
ATOM      8  C   UNL d   1      57.356   0.573  31.168  0.00  0.00     0.001 C 
ENDROOT
BRANCH   1   9
ATOM      9  S   UNL d   1      58.786  -1.702  29.240  0.00  0.00     0.287 S 
ATOM     10  O   UNL d   1      58.145  -1.665  28.720  0.00  0.00    -0.198 OA
ATOM     11  O   UNL d   1      59.427  -1.740  29.760  0.00  0.00    -0.198 OA
BRANCH   9  12
ATOM     12  N   UNL d   1      59.144  -2.271  28.759  0.00  0.00    -0.155 NA
BRANCH  12  13
ATOM     13  C   UNL d   1      59.109  -3.069  28.966  0.00  0.00     0.137 C 
BRANCH  13  14
ATOM     14  C   UNL d   1      59.743  -3.570  28.791  0.00  0.00     0.120 A 
ATOM     15  O   UNL d   1      60.507  -3.335  28.579  0.00  0.00    -0.304 OA
ATOM     16  C   UNL d   1      60.957  -4.011  28.455  0.00  0.00     0.123 A 
ATOM     17  C   UNL d   1      60.474  -4.668  28.589  0.00  0.00     0.029 A 
ATOM     18  C   UNL d   1      59.730  -4.394  28.795  0.00  0.00     0.028 A 
ENDBRANCH  13  14
ENDBRANCH  12  13
ENDBRANCH   9  12
ENDBRANCH   1   9
BRANCH   3  19
ATOM     19  O   UNL d   1      59.091  -0.096  28.990  0.00  0.00    -0.327 OA
ATOM     20  C   UNL d   1      59.364   0.682  28.958  0.00  0.00     0.181 C 
ENDBRANCH   3  19
TORSDOF 5
ENDMDL
