MODEL 1
REMARK VINA RESULT:      -6.1      0.000      0.000
REMARK  2 active torsions:
REMARK  status: ('A' for Active; 'I' for Inactive)
REMARK    1  A    between atoms: C_7  and  C_2 
REMARK    2  A    between atoms: C_6  and  N_3 
ROOT
ATOM      1  C   UNL d   1      57.321  -0.132  31.256  0.00  0.00     0.085 A 
ATOM      2  C   UNL d   1      57.068  -0.800  31.645  0.00  0.00     0.019 A 
ATOM      3  C   UNL d   1      56.498  -0.747  32.238  0.00  0.00     0.002 A 
ATOM      4  C   UNL d   1      56.990   0.619  31.468  0.00  0.00     0.019 A 
ATOM      5  C   UNL d   1      56.176  -0.015  32.445  0.00  0.00     0.000 A 
ATOM      6  C   UNL d   1      56.418   0.679  32.063  0.00  0.00     0.002 A 
ATOM      7  C   UNL d   1      56.263  -1.428  32.610  0.00  0.00     0.000 A 
ATOM      8  C   UNL d   1      55.613   0.051  33.028  0.00  0.00     0.000 A 
ATOM      9  C   UNL d   1      55.702  -1.394  33.198  0.00  0.00     0.000 A 
ATOM     10  C   UNL d   1      55.371  -0.642  33.410  0.00  0.00     0.000 A 
ENDROOT
BRANCH   1  11
ATOM     11  N   UNL d   1      57.889  -0.161  30.661  0.00  0.00    -0.210 N 
ATOM     12  C   UNL d   1      58.625   0.189  30.609  0.00  0.00     0.191 A 
ATOM     13  C   UNL d   1      58.948  -0.022  29.907  0.00  0.00     0.118 A 
ATOM     14  N   UNL d   1      58.962   0.671  31.181  0.00  0.00    -0.127 N 
ATOM     15  C   UNL d   1      58.418  -0.511  29.505  0.00  0.00     0.129 A 
ATOM     16  N   UNL d   1      57.777  -0.591  29.969  0.00  0.00    -0.162 NA
BRANCH  13  17
ATOM     17  C   UNL d   1      59.693   0.216  29.639  0.00  0.00     0.301 C 
ATOM     18  O   UNL d   1      60.332  -0.033  30.047  0.00  0.00    -0.263 OA
ATOM     19  N   UNL d   1      59.763   0.680  28.994  0.00  0.00    -0.102 N 
ENDBRANCH  13  17
ENDBRANCH   1  11
TORSDOF 2
ENDMDL
MODEL 2
REMARK VINA RESULT:      -4.5      1.874      3.911
REMARK  2 active torsions:
REMARK  status: ('A' for Active; 'I' for Inactive)
REMARK    1  A    between atoms: C_7  and  C_2 
REMARK    2  A    between atoms: C_6  and  N_3 
ROOT
ATOM      1  C   UNL d   1      57.440  -0.361  30.971  0.00  0.00     0.085 A 
ATOM      2  C   UNL d   1      57.867  -0.935  30.584  0.00  0.00     0.019 A 
ATOM      3  C   UNL d   1      58.339  -0.738  29.937  0.00  0.00     0.002 A 
ATOM      4  C   UNL d   1      57.485   0.441  30.700  0.00  0.00     0.019 A 
ATOM      5  C   UNL d   1      58.384   0.043  29.673  0.00  0.00     0.000 A 
ATOM      6  C   UNL d   1      57.957   0.644  30.051  0.00  0.00     0.002 A 
ATOM      7  C   UNL d   1      58.756  -1.328  29.569  0.00  0.00     0.000 A 
ATOM      8  C   UNL d   1      58.845   0.251  29.036  0.00  0.00     0.000 A 
ATOM      9  C   UNL d   1      59.226  -1.152  28.930  0.00  0.00     0.000 A 
ATOM     10  C   UNL d   1      59.271  -0.349  28.659  0.00  0.00     0.000 A 
ENDROOT
BRANCH   1  11
ATOM     11  N   UNL d   1      56.962  -0.534  31.619  0.00  0.00    -0.210 N 
ATOM     12  C   UNL d   1      56.768  -0.085  32.273  0.00  0.00     0.191 A 
ATOM     13  C   UNL d   1      56.283  -0.523  32.735  0.00  0.00     0.118 A 
ATOM     14  N   UNL d   1      57.032   0.678  32.419  0.00  0.00    -0.127 N 
ATOM     15  C   UNL d   1      56.162  -1.257  32.378  0.00  0.00     0.129 A 
ATOM     16  N   UNL d   1      56.578  -1.257  31.700  0.00  0.00    -0.162 NA
BRANCH  13  17
ATOM     17  C   UNL d   1      55.959  -0.270  33.453  0.00  0.00     0.301 C 
ATOM     18  O   UNL d   1      56.449  -0.209  34.080  0.00  0.00    -0.263 OA
ATOM     19  N   UNL d   1      55.182  -0.094  33.509  0.00  0.00    -0.102 N 
ENDBRANCH  13  17
ENDBRANCH   1  11
TORSDOF 2
ENDMDL
