MODEL 1
REMARK VINA RESULT:      17.8      0.000      0.000
REMARK  4 active torsions:
REMARK  status: ('A' for Active; 'I' for Inactive)
REMARK    1  A    between atoms: C_6  and  C_1 
REMARK    2  A    between atoms: C_9  and  N_3 
REMARK    3  A    between atoms: C_17  and  C_9 
REMARK    4  A    between atoms: O_15  and  C_10 
ROOT
ATOM      1  C   UNL d   1      46.074 -17.683  44.311  0.00  0.00     0.148 A 
ATOM      2  N   UNL d   1      46.177 -18.233  44.955  0.00  0.00    -0.227 NA
ATOM      3  N   UNL d   1      46.183 -18.110  43.607  0.00  0.00    -0.289 N 
ATOM      4  C   UNL d   1      46.347 -18.883  43.786  0.00  0.00     0.083 A 
ATOM      5  C   UNL d   1      46.343 -18.960  44.636  0.00  0.00     0.099 A 
ATOM      6  C   UNL d   1      46.501 -19.544  43.314  0.00  0.00     0.019 A 
ATOM      7  C   UNL d   1      46.500 -19.723  44.955  0.00  0.00     0.021 A 
ATOM      8  C   UNL d   1      46.647 -20.255  43.662  0.00  0.00     0.002 A 
ATOM      9  C   UNL d   1      46.643 -20.330  44.483  0.00  0.00     0.002 A 
ENDROOT
BRANCH   1  10
ATOM     10  C   UNL d   1      45.897 -16.877  44.408  0.00  0.00     0.035 A 
ATOM     11  C   UNL d   1      46.388 -16.300  44.106  0.00  0.00     0.005 A 
ATOM     12  C   UNL d   1      46.231 -15.490  44.191  0.00  0.00     0.024 A 
ATOM     13  C   UNL d   1      45.584 -15.256  44.577  0.00  0.00     0.094 A 
ATOM     14  C   UNL d   1      45.066 -15.842  44.894  0.00  0.00     0.024 A 
ATOM     15  C   UNL d   1      45.222 -16.652  44.810  0.00  0.00     0.005 A 
BRANCH  13  16
ATOM     16  O   UNL d   1      45.101 -14.643  44.860  0.00  0.00    -0.328 OA
ATOM     17  C   UNL d   1      45.122 -13.897  44.496  0.00  0.00     0.181 C 
ENDBRANCH  13  16
ENDBRANCH   1  10
BRANCH   3  18
ATOM     18  C   UNL d   1      46.103 -17.668  42.955  0.00  0.00     0.082 C 
BRANCH  18  19
ATOM     19  C   UNL d   1      45.977 -18.000  42.219  0.00  0.00     0.019 C 
ATOM     20  C   UNL d   1      46.464 -17.860  41.572  0.00  0.00     0.002 C 
ENDBRANCH  18  19
ENDBRANCH   3  18
TORSDOF 4
ENDMDL
MODEL 2
REMARK VINA RESULT:      19.9      0.906      2.068
REMARK  4 active torsions:
REMARK  status: ('A' for Active; 'I' for Inactive)
REMARK    1  A    between atoms: C_6  and  C_1 
REMARK    2  A    between atoms: C_9  and  N_3 
REMARK    3  A    between atoms: C_17  and  C_9 
REMARK    4  A    between atoms: O_15  and  C_10 
ROOT
ATOM      1  C   UNL d   1      46.151 -18.011  43.209  0.00  0.00     0.148 A 
ATOM      2  N   UNL d   1      46.064 -17.985  42.360  0.00  0.00    -0.227 NA
ATOM      3  N   UNL d   1      46.381 -18.784  43.405  0.00  0.00    -0.289 N 
ATOM      4  C   UNL d   1      46.437 -19.227  42.729  0.00  0.00     0.083 A 
ATOM      5  C   UNL d   1      46.237 -18.722  42.070  0.00  0.00     0.099 A 
ATOM      6  C   UNL d   1      46.640 -20.017  42.595  0.00  0.00     0.019 A 
ATOM      7  C   UNL d   1      46.257 -19.065  41.302  0.00  0.00     0.021 A 
ATOM      8  C   UNL d   1      46.647 -20.303  41.843  0.00  0.00     0.002 A 
ATOM      9  C   UNL d   1      46.453 -19.816  41.206  0.00  0.00     0.002 A 
ENDROOT
BRANCH   1  10
ATOM     10  C   UNL d   1      46.023 -17.363  43.712  0.00  0.00     0.035 A 
ATOM     11  C   UNL d   1      45.660 -17.459  44.435  0.00  0.00     0.005 A 
ATOM     12  C   UNL d   1      45.521 -16.826  44.954  0.00  0.00     0.024 A 
ATOM     13  C   UNL d   1      45.745 -16.098  44.750  0.00  0.00     0.094 A 
ATOM     14  C   UNL d   1      46.122 -15.983  44.004  0.00  0.00     0.024 A 
ATOM     15  C   UNL d   1      46.261 -16.615  43.485  0.00  0.00     0.005 A 
BRANCH  13  16
ATOM     16  O   UNL d   1      45.800 -15.289  44.929  0.00  0.00    -0.328 OA
ATOM     17  C   UNL d   1      45.323 -14.741  44.525  0.00  0.00     0.181 C 
ENDBRANCH  13  16
ENDBRANCH   1  10
BRANCH   3  18
ATOM     18  C   UNL d   1      46.485 -18.894  44.183  0.00  0.00     0.082 C 
BRANCH  18  19
ATOM     19  C   UNL d   1      46.054 -19.446  44.604  0.00  0.00     0.019 C 
ATOM     20  C   UNL d   1      46.377 -20.144  44.893  0.00  0.00     0.002 C 
ENDBRANCH  18  19
ENDBRANCH   3  18
TORSDOF 4
ENDMDL
