MODEL 1
REMARK VINA RESULT:      29.5      0.000      0.000
REMARK  4 active torsions:
REMARK  status: ('A' for Active; 'I' for Inactive)
REMARK    1  A    between atoms: C_4  and  C_10 
REMARK    2  A    between atoms: C_18  and  C_7 
REMARK       I    between atoms: C_10  and  N_17 
REMARK    3  A    between atoms: N_17  and  C_20 
REMARK    4  A    between atoms: C_20  and  C_18 
ROOT
ATOM      1  C   UNL d   1     -56.184 -98.888 -44.909  0.00  0.00     0.042 C 
ENDROOT
BRANCH   1   2
ATOM      2  C   UNL d   1     -56.964 -98.859 -44.626  0.00  0.00     0.102 A 
ATOM      3  N   UNL d   1     -57.640 -98.852 -45.089  0.00  0.00    -0.227 NA
ATOM      4  C   UNL d   1     -58.292 -98.820 -44.598  0.00  0.00     0.148 A 
ATOM      5  N   UNL d   1     -58.025 -98.808 -43.816  0.00  0.00    -0.288 N 
ATOM      6  C   UNL d   1     -59.104 -98.801 -44.746  0.00  0.00     0.035 A 
ATOM      7  C   UNL d   1     -57.197 -98.832 -43.837  0.00  0.00     0.101 A 
ATOM      8  C   UNL d   1     -58.559 -98.777 -43.191  0.00  0.00     0.082 A 
ATOM      9  C   UNL d   1     -59.363 -98.758 -43.344  0.00  0.00     0.019 A 
ATOM     10  C   UNL d   1     -59.643 -98.770 -44.128  0.00  0.00     0.004 A 
ATOM     11  C   UNL d   1     -59.385 -98.813 -45.533  0.00  0.00     0.003 C 
ENDBRANCH   1   2
BRANCH   1  12
ATOM     12  C   UNL d   1     -55.690 -99.520 -44.698  0.00  0.00     0.104 C 
BRANCH  12  13
ATOM     13  N   UNL d   1     -55.396-100.021 -45.276  0.00  0.00    -0.205 NA
ATOM     14  C   UNL d   1     -55.045-100.740 -45.062  0.00  0.00     0.302 C 
ATOM     15  O   UNL d   1     -54.754-101.233 -45.640  0.00  0.00    -0.263 OA
BRANCH  14  16
ATOM     16  C   UNL d   1     -54.993-100.946 -44.263  0.00  0.00     0.158 A 
ATOM     17  O   UNL d   1     -54.818-101.652 -43.883  0.00  0.00    -0.296 OA
ATOM     18  C   UNL d   1     -54.849-101.525 -43.068  0.00  0.00     0.134 A 
ATOM     19 BR   UNL d   1     -54.713-102.070 -42.462  0.00  0.00    -0.022 Br
ATOM     20  C   UNL d   1     -55.045-100.739 -42.963  0.00  0.00     0.034 A 
ATOM     21  C   UNL d   1     -55.136-100.373 -43.688  0.00  0.00     0.032 A 
ENDBRANCH  14  16
ENDBRANCH  12  13
ENDBRANCH   1  12
TORSDOF 4
ENDMDL
MODEL 2
REMARK VINA RESULT:      31.3      2.172      4.446
REMARK  4 active torsions:
REMARK  status: ('A' for Active; 'I' for Inactive)
REMARK    1  A    between atoms: C_4  and  C_10 
REMARK    2  A    between atoms: C_18  and  C_7 
REMARK       I    between atoms: C_10  and  N_17 
REMARK    3  A    between atoms: N_17  and  C_20 
REMARK    4  A    between atoms: C_20  and  C_18 
ROOT
ATOM      1  C   UNL d   1     -56.260 -98.847 -43.872  0.00  0.00     0.042 C 
ENDROOT
BRANCH   1   2
ATOM      2  C   UNL d   1     -55.904 -99.560 -44.106  0.00  0.00     0.102 A 
ATOM      3  N   UNL d   1     -55.760-100.204 -43.621  0.00  0.00    -0.227 NA
ATOM      4  C   UNL d   1     -55.404-100.790 -44.064  0.00  0.00     0.148 A 
ATOM      5  N   UNL d   1     -55.321-100.513 -44.838  0.00  0.00    -0.288 N 
ATOM      6  C   UNL d   1     -55.136-101.548 -43.878  0.00  0.00     0.035 A 
ATOM      7  C   UNL d   1     -55.633 -99.746 -44.861  0.00  0.00     0.101 A 
ATOM      8  C   UNL d   1     -54.977-100.985 -45.418  0.00  0.00     0.082 A 
ATOM      9  C   UNL d   1     -54.713-101.736 -45.227  0.00  0.00     0.019 A 
ATOM     10  C   UNL d   1     -54.792-102.025 -44.450  0.00  0.00     0.004 A 
ATOM     11  C   UNL d   1     -55.215-101.839 -43.098  0.00  0.00     0.003 C 
ENDBRANCH   1   2
BRANCH   1  12
ATOM     12  C   UNL d   1     -57.082 -98.758 -43.923  0.00  0.00     0.104 C 
BRANCH  12  13
ATOM     13  N   UNL d   1     -57.538 -98.760 -43.243  0.00  0.00    -0.205 NA
ATOM     14  C   UNL d   1     -58.364 -98.766 -43.297  0.00  0.00     0.302 C 
ATOM     15  O   UNL d   1     -58.812 -98.768 -42.618  0.00  0.00    -0.263 OA
BRANCH  14  16
ATOM     16  C   UNL d   1     -58.724 -98.768 -44.041  0.00  0.00     0.158 A 
ATOM     17  O   UNL d   1     -58.420 -98.781 -44.803  0.00  0.00    -0.296 OA
ATOM     18  C   UNL d   1     -59.051 -98.777 -45.336  0.00  0.00     0.134 A 
ATOM     19 BR   UNL d   1     -59.020 -98.787 -46.162  0.00  0.00    -0.022 Br
ATOM     20  C   UNL d   1     -59.733 -98.762 -44.888  0.00  0.00     0.034 A 
ATOM     21  C   UNL d   1     -59.546 -98.756 -44.092  0.00  0.00     0.032 A 
ENDBRANCH  14  16
ENDBRANCH  12  13
ENDBRANCH   1  12
TORSDOF 4
ENDMDL
