MODEL 1
REMARK VINA RESULT:      48.8      0.000      0.000
REMARK  2 active torsions:
REMARK  status: ('A' for Active; 'I' for Inactive)
REMARK    1  A    between atoms: C_7  and  C_1 
REMARK    2  A    between atoms: C_9  and  C_1 
ROOT
ATOM      1  C   UNL d   1      58.900  49.626  51.739  0.00  0.00     0.240 A 
ATOM      2  S   UNL d   1      59.717  49.645  51.805  0.00  0.00    -0.043 SA
ATOM      3  N   UNL d   1      58.552  49.626  50.991  0.00  0.00    -0.199 NA
ATOM      4  C   UNL d   1      60.188  49.665  51.131  0.00  0.00     0.181 A 
ATOM      5  N   UNL d   1      59.841  49.665  50.383  0.00  0.00    -0.237 N 
ATOM      6  C   UNL d   1      59.021  49.646  50.309  0.00  0.00     0.352 A 
ATOM      7  N   UNL d   1      61.008  49.684  51.204  0.00  0.00    -0.221 NA
ATOM      8  O   UNL d   1      58.666  49.646  49.564  0.00  0.00    -0.244 OA
ATOM      9  C   UNL d   1      60.313  49.684  49.708  0.00  0.00     0.088 A 
ATOM     10  C   UNL d   1      61.473  49.703  50.534  0.00  0.00     0.103 A 
ATOM     11  C   UNL d   1      61.125  49.703  49.786  0.00  0.00     0.040 A 
ENDROOT
BRANCH   1  12
ATOM     12  C   UNL d   1      59.248  49.626  52.487  0.00  0.00     0.429 C 
ATOM     13  F   UNL d   1      59.576  49.625  53.162  0.00  0.00    -0.167 F 
ATOM     14  F   UNL d   1      60.082  49.593  52.683  0.00  0.00    -0.167 F 
ATOM     15  F   UNL d   1      58.880  49.658  53.255  0.00  0.00    -0.167 F 
ENDBRANCH   1  12
BRANCH   1  16
ATOM     16  C   UNL d   1      58.077  49.607  51.657  0.00  0.00     0.016 A 
ATOM     17  C   UNL d   1      57.596  49.708  52.327  0.00  0.00    -0.001 A 
ATOM     18  C   UNL d   1      56.775  49.689  52.249  0.00  0.00    -0.000 A 
ATOM     19  C   UNL d   1      56.433  49.569  51.499  0.00  0.00    -0.000 A 
ATOM     20  C   UNL d   1      56.923  49.470  50.839  0.00  0.00    -0.000 A 
ATOM     21  C   UNL d   1      57.743  49.488  50.912  0.00  0.00    -0.001 A 
ENDBRANCH   1  16
TORSDOF 2
ENDMDL
