MODEL 1
REMARK VINA RESULT:      -6.4      0.000      0.000
REMARK  2 active torsions:
REMARK  status: ('A' for Active; 'I' for Inactive)
REMARK    1  A    between atoms: C_6  and  C_1 
REMARK    2  A    between atoms: C_7  and  C_5 
ROOT
ATOM      1  C   UNL d   1     -41.942-122.057 -54.679  0.00  0.00     0.169 A 
ATOM      2  C   UNL d   1     -42.296-121.793 -54.067  0.00  0.00     0.048 A 
ATOM      3  N   UNL d   1     -41.123-122.739 -53.912  0.00  0.00    -0.148 NA
ATOM      4  N   UNL d   1     -41.354-122.531 -54.609  0.00  0.00    -0.142 NA
ATOM      5  C   UNL d   1     -41.476-122.476 -53.300  0.00  0.00     0.105 A 
ENDROOT
BRANCH   5   6
ATOM      6  C   UNL d   1     -41.388-122.573 -52.487  0.00  0.00     0.019 A 
ATOM      7  C   UNL d   1     -41.221-123.321 -52.170  0.00  0.00     0.002 A 
ATOM      8  C   UNL d   1     -41.132-123.419 -51.352  0.00  0.00     0.000 A 
ATOM      9  C   UNL d   1     -41.211-122.766 -50.846  0.00  0.00     0.000 A 
ATOM     10  C   UNL d   1     -41.380-122.012 -51.168  0.00  0.00     0.000 A 
ATOM     11  C   UNL d   1     -41.124-122.858 -50.039  0.00  0.00     0.000 C 
ATOM     12  C   UNL d   1     -41.467-121.923 -51.985  0.00  0.00     0.002 A 
ENDBRANCH   5   6
BRANCH   1  13
ATOM     13  C   UNL d   1     -42.174-121.848 -55.376  0.00  0.00     0.231 C 
ATOM     14  O   UNL d   1     -42.890-121.965 -55.590  0.00  0.00    -0.643 OA
ATOM     15  O   UNL d   1     -41.680-121.523 -55.852  0.00  0.00    -0.643 OA
ENDBRANCH   1  13
TORSDOF 2
ENDMDL
MODEL 2
REMARK VINA RESULT:      -5.5      2.264      3.851
REMARK  2 active torsions:
REMARK  status: ('A' for Active; 'I' for Inactive)
REMARK    1  A    between atoms: C_6  and  C_1 
REMARK    2  A    between atoms: C_7  and  C_5 
ROOT
ATOM      1  C   UNL d   1     -41.296-123.030 -51.444  0.00  0.00     0.169 A 
ATOM      2  C   UNL d   1     -41.426-122.351 -51.748  0.00  0.00     0.048 A 
ATOM      3  N   UNL d   1     -41.395-123.582 -52.632  0.00  0.00    -0.148 NA
ATOM      4  N   UNL d   1     -41.279-123.650 -51.882  0.00  0.00    -0.142 NA
ATOM      5  C   UNL d   1     -41.525-122.903 -52.937  0.00  0.00     0.105 A 
ENDROOT
BRANCH   5   6
ATOM      6  C   UNL d   1     -41.669-122.622 -53.697  0.00  0.00     0.019 A 
ATOM      7  C   UNL d   1     -42.205-122.000 -53.819  0.00  0.00     0.002 A 
ATOM      8  C   UNL d   1     -42.350-121.717 -54.585  0.00  0.00     0.000 A 
ATOM      9  C   UNL d   1     -41.958-122.056 -55.232  0.00  0.00     0.000 A 
ATOM     10  C   UNL d   1     -41.417-122.683 -55.107  0.00  0.00     0.000 A 
ATOM     11  C   UNL d   1     -42.098-121.780 -55.989  0.00  0.00     0.000 C 
ATOM     12  C   UNL d   1     -41.279-122.959 -54.340  0.00  0.00     0.002 A 
ENDBRANCH   5   6
BRANCH   1  13
ATOM     13  C   UNL d   1     -41.180-123.098 -50.692  0.00  0.00     0.231 C 
ATOM     14  O   UNL d   1     -41.123-123.782 -50.377  0.00  0.00    -0.643 OA
ATOM     15  O   UNL d   1     -41.123-122.472 -50.266  0.00  0.00    -0.643 OA
ENDBRANCH   1  13
TORSDOF 2
ENDMDL
MODEL 3
REMARK VINA RESULT:      -5.3      2.014      2.985
REMARK  2 active torsions:
REMARK  status: ('A' for Active; 'I' for Inactive)
REMARK    1  A    between atoms: C_6  and  C_1 
REMARK    2  A    between atoms: C_7  and  C_5 
ROOT
ATOM      1  C   UNL d   1     -41.409-122.565 -51.908  0.00  0.00     0.169 A 
ATOM      2  C   UNL d   1     -41.297-122.107 -51.319  0.00  0.00     0.048 A 
ATOM      3  N   UNL d   1     -41.883-123.488 -51.101  0.00  0.00    -0.148 NA
ATOM      4  N   UNL d   1     -41.702-123.258 -51.806  0.00  0.00    -0.142 NA
ATOM      5  C   UNL d   1     -41.770-123.029 -50.512  0.00  0.00     0.105 A 
ENDROOT
BRANCH   5   6
ATOM      6  C   UNL d   1     -41.893-123.082 -49.699  0.00  0.00     0.019 A 
ATOM      7  C   UNL d   1     -41.273-123.305 -49.195  0.00  0.00     0.002 A 
ATOM      8  C   UNL d   1     -41.396-123.358 -48.377  0.00  0.00     0.000 A 
ATOM      9  C   UNL d   1     -42.142-123.187 -48.060  0.00  0.00     0.000 A 
ATOM     10  C   UNL d   1     -42.767-122.962 -48.570  0.00  0.00     0.000 A 
ATOM     11  C   UNL d   1     -42.269-123.238 -47.254  0.00  0.00     0.000 C 
ATOM     12  C   UNL d   1     -42.636-122.912 -49.384  0.00  0.00     0.002 A 
ENDBRANCH   5   6
BRANCH   1  13
ATOM     13  C   UNL d   1     -41.228-122.335 -52.614  0.00  0.00     0.231 C 
ATOM     14  O   UNL d   1     -41.156-122.841 -53.171  0.00  0.00    -0.643 OA
ATOM     15  O   UNL d   1     -41.123-121.596 -52.749  0.00  0.00    -0.643 OA
ENDBRANCH   1  13
TORSDOF 2
ENDMDL
MODEL 4
REMARK VINA RESULT:      -4.6      3.470      4.663
REMARK  2 active torsions:
REMARK  status: ('A' for Active; 'I' for Inactive)
REMARK    1  A    between atoms: C_6  and  C_1 
REMARK    2  A    between atoms: C_7  and  C_5 
ROOT
ATOM      1  C   UNL d   1     -42.172-123.159 -48.929  0.00  0.00     0.169 A 
ATOM      2  C   UNL d   1     -42.624-123.055 -49.524  0.00  0.00     0.048 A 
ATOM      3  N   UNL d   1     -41.124-123.132 -49.721  0.00  0.00    -0.148 NA
ATOM      4  N   UNL d   1     -41.419-123.198 -49.021  0.00  0.00    -0.142 NA
ATOM      5  C   UNL d   1     -41.576-123.028 -50.316  0.00  0.00     0.105 A 
ENDROOT
BRANCH   5   6
ATOM      6  C   UNL d   1     -41.463-122.936 -51.126  0.00  0.00     0.019 A 
ATOM      7  C   UNL d   1     -41.532-122.187 -51.477  0.00  0.00     0.002 A 
ATOM      8  C   UNL d   1     -41.418-122.094 -52.293  0.00  0.00     0.000 A 
ATOM      9  C   UNL d   1     -41.235-122.752 -52.762  0.00  0.00     0.000 A 
ATOM     10  C   UNL d   1     -41.167-123.507 -52.407  0.00  0.00     0.000 A 
ATOM     11  C   UNL d   1     -41.123-122.666 -53.567  0.00  0.00     0.000 C 
ATOM     12  C   UNL d   1     -41.281-123.591 -51.593  0.00  0.00     0.002 A 
ENDBRANCH   5   6
BRANCH   1  13
ATOM     13  C   UNL d   1     -42.468-123.225 -48.228  0.00  0.00     0.231 C 
ATOM     14  O   UNL d   1     -42.919-123.809 -48.060  0.00  0.00    -0.643 OA
ATOM     15  O   UNL d   1     -42.306-122.701 -47.704  0.00  0.00    -0.643 OA
ENDBRANCH   1  13
TORSDOF 2
ENDMDL
