MODEL 1
REMARK VINA RESULT:      28.1      0.000      0.000
REMARK  7 active torsions:
REMARK  status: ('A' for Active; 'I' for Inactive)
REMARK    1  A    between atoms: C_2  and  S_1 
REMARK    2  A    between atoms: N_11  and  S_1 
REMARK    3  A    between atoms: O_14  and  C_4 
REMARK    4  A    between atoms: N_10  and  C_15 
REMARK    5  A    between atoms: C_19  and  N_11 
REMARK    6  A    between atoms: C_15  and  C_16 
REMARK    7  A    between atoms: C_16  and  C_19 
ROOT
ATOM      1  S   UNL d   1     -57.510 -98.956 -44.515  0.00  0.00     0.287 S 
ATOM      2  O   UNL d   1     -58.051 -99.154 -45.100  0.00  0.00    -0.198 OA
ATOM      3  O   UNL d   1     -56.965 -98.756 -43.924  0.00  0.00    -0.198 OA
ENDROOT
BRANCH   1   4
ATOM      4  C   UNL d   1     -58.121 -98.906 -43.968  0.00  0.00     0.128 A 
ATOM      5  C   UNL d   1     -57.946 -98.910 -43.157  0.00  0.00     0.026 A 
ATOM      6  C   UNL d   1     -58.565 -98.860 -42.602  0.00  0.00     0.059 A 
ATOM      7 CL   UNL d   1     -58.393 -98.863 -41.806  0.00  0.00    -0.082 Cl
ATOM      8  C   UNL d   1     -59.350 -98.807 -42.867  0.00  0.00     0.013 A 
ATOM      9  C   UNL d   1     -59.516 -98.804 -43.669  0.00  0.00     0.026 A 
ATOM     10  C   UNL d   1     -59.960 -98.757 -42.320  0.00  0.00     0.001 C 
ATOM     11  C   UNL d   1     -58.897 -98.854 -44.224  0.00  0.00     0.106 A 
BRANCH  11  12
ATOM     12  O   UNL d   1     -59.067 -98.851 -45.029  0.00  0.00    -0.327 OA
ATOM     13  C   UNL d   1     -59.848 -98.802 -45.278  0.00  0.00     0.181 C 
ENDBRANCH  11  12
ENDBRANCH   1   4
BRANCH   1  14
ATOM     14  N   UNL d   1     -56.894 -99.005 -45.067  0.00  0.00    -0.157 NA
BRANCH  14  15
ATOM     15  C   UNL d   1     -56.109 -98.907 -44.817  0.00  0.00     0.114 C 
BRANCH  15  16
ATOM     16  C   UNL d   1     -55.525 -99.420 -45.092  0.00  0.00     0.041 C 
BRANCH  16  17
ATOM     17  C   UNL d   1     -54.990 -99.752 -44.568  0.00  0.00     0.082 C 
BRANCH  17  18
ATOM     18  N   UNL d   1     -54.974-100.565 -44.456  0.00  0.00    -0.299 N 
ATOM     19  C   UNL d   1     -55.181-100.891 -43.718  0.00  0.00     0.107 A 
ATOM     20  C   UNL d   1     -55.165-101.704 -43.606  0.00  0.00     0.142 A 
ATOM     21  O   UNL d   1     -54.945-102.202 -44.221  0.00  0.00    -0.300 OA
ATOM     22  C   UNL d   1     -54.737-101.885 -44.959  0.00  0.00     0.142 A 
ATOM     23  C   UNL d   1     -54.754-101.059 -45.072  0.00  0.00     0.107 A 
ENDBRANCH  17  18
ENDBRANCH  16  17
ENDBRANCH  15  16
ENDBRANCH  14  15
ENDBRANCH   1  14
TORSDOF 7
ENDMDL
