MODEL 1
REMARK VINA RESULT:      -7.8      0.000      0.000
REMARK  3 active torsions:
REMARK  status: ('A' for Active; 'I' for Inactive)
REMARK    1  A    between atoms: S_3  and  C_1 
REMARK    2  A    between atoms: C_7  and  N_2 
REMARK    3  A    between atoms: C_13  and  C_7 
ROOT
ATOM      1  C   UNL d   1     -46.946  13.595  22.866  0.00  0.00     0.255 A 
ATOM      2  N   UNL d   1     -47.669  13.279  23.117  0.00  0.00    -0.278 N 
ATOM      3  N   UNL d   1     -47.044  14.353  22.613  0.00  0.00    -0.215 NA
ATOM      4  C   UNL d   1     -48.249  13.870  23.016  0.00  0.00     0.084 A 
ATOM      5  C   UNL d   1     -47.864  14.533  22.705  0.00  0.00     0.100 A 
ATOM      6  C   UNL d   1     -49.062  13.900  23.160  0.00  0.00     0.019 A 
ATOM      7  C   UNL d   1     -48.294  15.220  22.540  0.00  0.00     0.021 A 
ATOM      8  C   UNL d   1     -49.492  14.584  22.997  0.00  0.00     0.002 A 
ATOM      9  C   UNL d   1     -49.107  15.246  22.686  0.00  0.00     0.002 A 
ENDROOT
BRANCH   1  10
ATOM     10  S   UNL d   1     -46.229  13.183  22.877  0.00  0.00     0.174 S 
ATOM     11  O   UNL d   1     -46.188  13.276  23.698  0.00  0.00    -0.589 OA
ATOM     12  O   UNL d   1     -45.513  12.772  22.888  0.00  0.00    -0.589 OA
ATOM     13  O   UNL d   1     -46.270  13.090  22.058  0.00  0.00    -0.589 OA
ENDBRANCH   1  10
BRANCH   2  14
ATOM     14  C   UNL d   1     -47.815  12.534  23.413  0.00  0.00     0.082 C 
BRANCH  14  15
ATOM     15  C   UNL d   1     -48.401  12.098  23.046  0.00  0.00     0.018 C 
ATOM     16  C   UNL d   1     -49.074  11.854  23.456  0.00  0.00     0.002 C 
ATOM     17  C   UNL d   1     -48.349  11.883  22.256  0.00  0.00     0.002 C 
ENDBRANCH  14  15
ENDBRANCH   2  14
TORSDOF 3
ENDMDL
MODEL 2
REMARK VINA RESULT:      -7.7      2.048      2.590
REMARK  3 active torsions:
REMARK  status: ('A' for Active; 'I' for Inactive)
REMARK    1  A    between atoms: S_3  and  C_1 
REMARK    2  A    between atoms: C_7  and  N_2 
REMARK    3  A    between atoms: C_13  and  C_7 
ROOT
ATOM      1  C   UNL d   1     -48.626  14.639  22.765  0.00  0.00     0.255 A 
ATOM      2  N   UNL d   1     -48.684  13.822  22.886  0.00  0.00    -0.278 N 
ATOM      3  N   UNL d   1     -47.854  14.866  22.743  0.00  0.00    -0.215 NA
ATOM      4  C   UNL d   1     -47.907  13.522  22.944  0.00  0.00     0.084 A 
ATOM      5  C   UNL d   1     -47.395  14.166  22.856  0.00  0.00     0.100 A 
ATOM      6  C   UNL d   1     -47.597  12.766  23.062  0.00  0.00     0.019 A 
ATOM      7  C   UNL d   1     -46.577  14.050  22.887  0.00  0.00     0.021 A 
ATOM      8  C   UNL d   1     -46.782  12.648  23.094  0.00  0.00     0.002 A 
ATOM      9  C   UNL d   1     -46.270  13.291  23.006  0.00  0.00     0.002 A 
ENDROOT
BRANCH   1  10
ATOM     10  S   UNL d   1     -49.276  15.144  22.678  0.00  0.00     0.174 S 
ATOM     11  O   UNL d   1     -49.429  15.085  23.489  0.00  0.00    -0.589 OA
ATOM     12  O   UNL d   1     -49.924  15.648  22.592  0.00  0.00    -0.589 OA
ATOM     13  O   UNL d   1     -49.123  15.202  21.870  0.00  0.00    -0.589 OA
ENDBRANCH   1  10
BRANCH   2  14
ATOM     14  C   UNL d   1     -49.359  13.370  22.943  0.00  0.00     0.082 C 
BRANCH  14  15
ATOM     15  C   UNL d   1     -49.443  12.759  22.405  0.00  0.00     0.018 C 
ATOM     16  C   UNL d   1     -49.482  11.973  22.653  0.00  0.00     0.002 C 
ATOM     17  C   UNL d   1     -49.492  12.898  21.599  0.00  0.00     0.002 C 
ENDBRANCH  14  15
ENDBRANCH   2  14
TORSDOF 3
ENDMDL
MODEL 3
REMARK VINA RESULT:      -7.5      1.553      2.176
REMARK  3 active torsions:
REMARK  status: ('A' for Active; 'I' for Inactive)
REMARK    1  A    between atoms: S_3  and  C_1 
REMARK    2  A    between atoms: C_7  and  N_2 
REMARK    3  A    between atoms: C_13  and  C_7 
ROOT
ATOM      1  C   UNL d   1     -48.700  12.619  22.860  0.00  0.00     0.255 A 
ATOM      2  N   UNL d   1     -48.110  13.148  22.620  0.00  0.00    -0.278 N 
ATOM      3  N   UNL d   1     -49.365  13.020  23.077  0.00  0.00    -0.215 NA
ATOM      4  C   UNL d   1     -48.421  13.919  22.690  0.00  0.00     0.084 A 
ATOM      5  C   UNL d   1     -49.195  13.840  22.972  0.00  0.00     0.100 A 
ATOM      6  C   UNL d   1     -48.115  14.671  22.539  0.00  0.00     0.019 A 
ATOM      7  C   UNL d   1     -49.658  14.514  23.102  0.00  0.00     0.021 A 
ATOM      8  C   UNL d   1     -48.575  15.344  22.668  0.00  0.00     0.002 A 
ATOM      9  C   UNL d   1     -49.348  15.265  22.950  0.00  0.00     0.002 A 
ENDROOT
BRANCH   1  10
ATOM     10  S   UNL d   1     -48.612  11.797  22.873  0.00  0.00     0.174 S 
ATOM     11  O   UNL d   1     -48.552  11.816  23.698  0.00  0.00    -0.589 OA
ATOM     12  O   UNL d   1     -48.523  10.976  22.886  0.00  0.00    -0.589 OA
ATOM     13  O   UNL d   1     -48.671  11.778  22.050  0.00  0.00    -0.589 OA
ENDBRANCH   1  10
BRANCH   2  14
ATOM     14  C   UNL d   1     -47.358  12.974  22.359  0.00  0.00     0.082 C 
BRANCH  14  15
ATOM     15  C   UNL d   1     -46.735  13.270  22.799  0.00  0.00     0.018 C 
ATOM     16  C   UNL d   1     -46.211  13.822  22.483  0.00  0.00     0.002 C 
ATOM     17  C   UNL d   1     -46.604  13.033  23.573  0.00  0.00     0.002 C 
ENDBRANCH  14  15
ENDBRANCH   2  14
TORSDOF 3
ENDMDL
MODEL 4
REMARK VINA RESULT:      -7.5      0.796      2.207
REMARK  3 active torsions:
REMARK  status: ('A' for Active; 'I' for Inactive)
REMARK    1  A    between atoms: S_3  and  C_1 
REMARK    2  A    between atoms: C_7  and  N_2 
REMARK    3  A    between atoms: C_13  and  C_7 
ROOT
ATOM      1  C   UNL d   1     -46.877  12.915  22.874  0.00  0.00     0.255 A 
ATOM      2  N   UNL d   1     -47.612  13.118  22.553  0.00  0.00    -0.278 N 
ATOM      3  N   UNL d   1     -46.947  12.265  23.345  0.00  0.00    -0.215 NA
ATOM      4  C   UNL d   1     -48.171  12.568  22.837  0.00  0.00     0.084 A 
ATOM      5  C   UNL d   1     -47.761  12.042  23.326  0.00  0.00     0.100 A 
ATOM      6  C   UNL d   1     -48.983  12.472  22.723  0.00  0.00     0.019 A 
ATOM      7  C   UNL d   1     -48.165  11.423  23.698  0.00  0.00     0.021 A 
ATOM      8  C   UNL d   1     -49.388  11.856  23.092  0.00  0.00     0.002 A 
ATOM      9  C   UNL d   1     -48.978  11.330  23.581  0.00  0.00     0.002 A 
ENDROOT
BRANCH   1  10
ATOM     10  S   UNL d   1     -46.174  13.326  22.727  0.00  0.00     0.174 S 
ATOM     11  O   UNL d   1     -46.191  13.630  23.496  0.00  0.00    -0.589 OA
ATOM     12  O   UNL d   1     -45.473  13.736  22.580  0.00  0.00    -0.589 OA
ATOM     13  O   UNL d   1     -46.157  13.022  21.960  0.00  0.00    -0.589 OA
ENDBRANCH   1  10
BRANCH   2  14
ATOM     14  C   UNL d   1     -47.785  13.736  22.050  0.00  0.00     0.082 C 
BRANCH  14  15
ATOM     15  C   UNL d   1     -48.360  14.264  22.295  0.00  0.00     0.018 C 
ATOM     16  C   UNL d   1     -49.079  14.330  21.895  0.00  0.00     0.002 C 
ATOM     17  C   UNL d   1     -48.250  14.750  22.945  0.00  0.00     0.002 C 
ENDBRANCH  14  15
ENDBRANCH   2  14
TORSDOF 3
ENDMDL
MODEL 5
REMARK VINA RESULT:      -7.4      1.915      2.842
REMARK  3 active torsions:
REMARK  status: ('A' for Active; 'I' for Inactive)
REMARK    1  A    between atoms: S_3  and  C_1 
REMARK    2  A    between atoms: C_7  and  N_2 
REMARK    3  A    between atoms: C_13  and  C_7 
ROOT
ATOM      1  C   UNL d   1     -48.611  12.289  22.956  0.00  0.00     0.255 A 
ATOM      2  N   UNL d   1     -48.572  13.115  22.915  0.00  0.00    -0.278 N 
ATOM      3  N   UNL d   1     -47.871  11.975  23.003  0.00  0.00    -0.215 NA
ATOM      4  C   UNL d   1     -47.766  13.329  22.938  0.00  0.00     0.084 A 
ATOM      5  C   UNL d   1     -47.334  12.626  22.992  0.00  0.00     0.100 A 
ATOM      6  C   UNL d   1     -47.370  14.053  22.917  0.00  0.00     0.019 A 
ATOM      7  C   UNL d   1     -46.507  12.652  23.025  0.00  0.00     0.021 A 
ATOM      8  C   UNL d   1     -46.546  14.081  22.949  0.00  0.00     0.002 A 
ATOM      9  C   UNL d   1     -46.114  13.378  23.004  0.00  0.00     0.002 A 
ENDROOT
BRANCH   1  10
ATOM     10  S   UNL d   1     -49.315  11.855  22.949  0.00  0.00     0.174 S 
ATOM     11  O   UNL d   1     -49.125  11.559  22.201  0.00  0.00    -0.589 OA
ATOM     12  O   UNL d   1     -50.019  11.422  22.943  0.00  0.00    -0.589 OA
ATOM     13  O   UNL d   1     -49.505  12.151  23.696  0.00  0.00    -0.589 OA
ENDBRANCH   1  10
BRANCH   2  14
ATOM     14  C   UNL d   1     -49.190  13.644  22.862  0.00  0.00     0.082 C 
BRANCH  14  15
ATOM     15  C   UNL d   1     -49.205  14.132  22.206  0.00  0.00     0.018 C 
ATOM     16  C   UNL d   1     -49.154  14.952  22.281  0.00  0.00     0.002 C 
ATOM     17  C   UNL d   1     -49.271  13.831  21.447  0.00  0.00     0.002 C 
ENDBRANCH  14  15
ENDBRANCH   2  14
TORSDOF 3
ENDMDL
