MODEL 1
REMARK VINA RESULT:      37.7      0.000      0.000
REMARK  7 active torsions:
REMARK  status: ('A' for Active; 'I' for Inactive)
REMARK    1  A    between atoms: C_10  and  C_3 
REMARK    2  A    between atoms: N_11  and  C_4 
REMARK    3  A    between atoms: C_21  and  N_11 
REMARK    4  A    between atoms: O_20  and  C_23 
REMARK    5  A    between atoms: C_24  and  O_20 
REMARK    6  A    between atoms: C_23  and  C_21 
REMARK    7  A    between atoms: C_22  and  C_24 
ROOT
ATOM      1  C   UNL d   1      45.870 -18.866  41.314  0.00  0.00     0.167 A 
ATOM      2  N   UNL d   1      45.851 -18.776  40.468  0.00  0.00    -0.195 N 
ATOM      3  C   UNL d   1      46.262 -19.493  41.648  0.00  0.00     0.057 A 
ATOM      4  C   UNL d   1      45.456 -18.145  40.154  0.00  0.00     0.167 A 
ATOM      5  N   UNL d   1      46.628 -19.961  40.338  0.00  0.00    -0.161 NA
ATOM      6  N   UNL d   1      45.492 -18.320  41.790  0.00  0.00    -0.227 NA
ATOM      7  C   UNL d   1      45.072 -17.589  40.625  0.00  0.00     0.058 A 
ATOM      8  C   UNL d   1      46.646 -20.048  41.158  0.00  0.00     0.124 A 
ATOM      9  C   UNL d   1      45.090 -17.678  41.458  0.00  0.00     0.086 A 
ATOM     10  C   UNL d   1      44.692 -17.103  41.958  0.00  0.00     0.021 C 
ENDROOT
BRANCH   3  11
ATOM     11  C   UNL d   1      46.280 -19.580  42.468  0.00  0.00     0.005 A 
ATOM     12  C   UNL d   1      46.629 -19.006  42.929  0.00  0.00     0.001 A 
ATOM     13  C   UNL d   1      46.646 -19.092  43.736  0.00  0.00     0.011 A 
ATOM     14  C   UNL d   1      46.315 -19.754  44.095  0.00  0.00     0.058 A 
ATOM     15  C   UNL d   1      45.966 -20.328  43.633  0.00  0.00     0.011 A 
ATOM     16 CL   UNL d   1      46.334 -19.845  44.955  0.00  0.00    -0.082 Cl
ATOM     17  C   UNL d   1      45.948 -20.240  42.812  0.00  0.00     0.001 A 
ENDBRANCH   3  11
BRANCH   4  18
ATOM     18  N   UNL d   1      45.435 -18.051  39.299  0.00  0.00    -0.223 NA
BRANCH  18  19
ATOM     19  C   UNL d   1      45.088 -17.772  38.571  0.00  0.00     0.127 C 
BRANCH  19  20
ATOM     20  C   UNL d   1      45.046 -16.919  38.436  0.00  0.00     0.143 C 
BRANCH  20  21
ATOM     21  O   UNL d   1      44.834 -16.612  37.664  0.00  0.00    -0.298 OA
BRANCH  21  22
ATOM     22  C   UNL d   1      44.801 -15.761  37.522  0.00  0.00     0.168 C 
BRANCH  22  23
ATOM     23  C   UNL d   1      44.233 -15.439  36.966  0.00  0.00     0.261 C 
ATOM     24  O   UNL d   1      44.454 -14.781  36.455  0.00  0.00    -0.281 OA
ENDBRANCH  22  23
ENDBRANCH  21  22
ENDBRANCH  20  21
ENDBRANCH  19  20
ENDBRANCH  18  19
ENDBRANCH   4  18
TORSDOF 7
ENDMDL
