MODEL 1
REMARK VINA RESULT:     -10.1      0.000      0.000
REMARK  3 active torsions:
REMARK  status: ('A' for Active; 'I' for Inactive)
REMARK    1  A    between atoms: S_2  and  N_1 
REMARK    2  A    between atoms: C_6  and  S_2 
REMARK    3  A    between atoms: O_17  and  C_11 
ROOT
ATOM      1  S   UNL d   1      53.400  32.418  53.910  0.00  0.00     0.273 S 
ATOM      2  O   UNL d   1      54.092  32.489  53.468  0.00  0.00    -0.200 OA
ATOM      3  O   UNL d   1      52.703  32.347  54.354  0.00  0.00    -0.200 OA
ENDROOT
BRANCH   1   4
ATOM      4  N   UNL d   1      53.523  33.168  54.230  0.00  0.00    -0.214 N 
ATOM      5  C   UNL d   1      54.019  33.350  54.869  0.00  0.00     0.157 A 
ATOM      6  N   UNL d   1      53.977  34.169  55.006  0.00  0.00    -0.226 NA
ATOM      7  C   UNL d   1      54.472  32.815  55.291  0.00  0.00     0.041 C 
ATOM      8  C   UNL d   1      53.451  34.488  54.446  0.00  0.00     0.100 A 
ATOM      9  C   UNL d   1      53.174  33.877  53.972  0.00  0.00     0.094 A 
ATOM     10  C   UNL d   1      53.197  35.262  54.317  0.00  0.00     0.021 A 
ATOM     11  C   UNL d   1      52.635  34.039  53.361  0.00  0.00     0.020 A 
ATOM     12  C   UNL d   1      52.381  34.809  53.232  0.00  0.00     0.002 A 
ATOM     13  C   UNL d   1      52.658  35.424  53.706  0.00  0.00     0.002 A 
ENDBRANCH   1   4
BRANCH   1  14
ATOM     14  C   UNL d   1      53.273  31.668  53.592  0.00  0.00     0.106 A 
ATOM     15  C   UNL d   1      53.559  30.995  53.987  0.00  0.00     0.039 A 
ATOM     16  C   UNL d   1      53.433  30.244  53.669  0.00  0.00     0.122 A 
ATOM     17  C   UNL d   1      53.018  30.159  52.955  0.00  0.00     0.162 A 
ATOM     18  C   UNL d   1      52.733  30.827  52.562  0.00  0.00     0.032 A 
ATOM     19  F   UNL d   1      52.896  29.414  52.645  0.00  0.00    -0.202 F 
ATOM     20  C   UNL d   1      52.860  31.577  52.880  0.00  0.00     0.015 A 
BRANCH  16  21
ATOM     21  O   UNL d   1      53.716  29.585  54.060  0.00  0.00    -0.326 OA
ATOM     22  C   UNL d   1      53.291  29.263  54.674  0.00  0.00     0.181 C 
ENDBRANCH  16  21
ENDBRANCH   1  14
TORSDOF 3
ENDMDL
MODEL 2
REMARK VINA RESULT:     -10.0      2.295      3.760
REMARK  3 active torsions:
REMARK  status: ('A' for Active; 'I' for Inactive)
REMARK    1  A    between atoms: S_2  and  N_1 
REMARK    2  A    between atoms: C_6  and  S_2 
REMARK    3  A    between atoms: O_17  and  C_11 
ROOT
ATOM      1  S   UNL d   1      52.257  34.318  53.509  0.00  0.00     0.273 S 
ATOM      2  O   UNL d   1      51.781  33.923  54.054  0.00  0.00    -0.200 OA
ATOM      3  O   UNL d   1      52.735  34.715  52.961  0.00  0.00    -0.200 OA
ENDROOT
BRANCH   1   4
ATOM      4  N   UNL d   1      52.880  34.321  54.050  0.00  0.00    -0.214 N 
ATOM      5  C   UNL d   1      53.125  34.966  54.508  0.00  0.00     0.157 A 
ATOM      6  N   UNL d   1      53.769  34.724  54.974  0.00  0.00    -0.226 NA
ATOM      7  C   UNL d   1      52.790  35.712  54.501  0.00  0.00     0.041 C 
ATOM      8  C   UNL d   1      53.918  33.925  54.799  0.00  0.00     0.100 A 
ATOM      9  C   UNL d   1      53.374  33.678  54.234  0.00  0.00     0.094 A 
ATOM     10  C   UNL d   1      54.483  33.400  55.089  0.00  0.00     0.021 A 
ATOM     11  C   UNL d   1      53.394  32.895  53.955  0.00  0.00     0.020 A 
ATOM     12  C   UNL d   1      53.957  32.372  54.243  0.00  0.00     0.002 A 
ATOM     13  C   UNL d   1      54.503  32.618  54.810  0.00  0.00     0.002 A 
ENDBRANCH   1   4
BRANCH   1  14
ATOM     14  C   UNL d   1      51.637  34.317  52.966  0.00  0.00     0.106 A 
ATOM     15  C   UNL d   1      50.856  34.433  53.226  0.00  0.00     0.039 A 
ATOM     16  C   UNL d   1      50.234  34.432  52.683  0.00  0.00     0.122 A 
ATOM     17  C   UNL d   1      50.388  34.315  51.876  0.00  0.00     0.162 A 
ATOM     18  C   UNL d   1      51.163  34.200  51.617  0.00  0.00     0.032 A 
ATOM     19  F   UNL d   1      49.770  34.315  51.343  0.00  0.00    -0.202 F 
ATOM     20  C   UNL d   1      51.784  34.201  52.159  0.00  0.00     0.015 A 
BRANCH  16  21
ATOM     21  O   UNL d   1      49.468  34.547  52.943  0.00  0.00    -0.326 OA
ATOM     22  C   UNL d   1      49.195  35.300  53.083  0.00  0.00     0.181 C 
ENDBRANCH  16  21
ENDBRANCH   1  14
TORSDOF 3
ENDMDL
MODEL 3
REMARK VINA RESULT:     -10.0      1.844      4.052
REMARK  3 active torsions:
REMARK  status: ('A' for Active; 'I' for Inactive)
REMARK    1  A    between atoms: S_2  and  N_1 
REMARK    2  A    between atoms: C_6  and  S_2 
REMARK    3  A    between atoms: O_17  and  C_11 
ROOT
ATOM      1  S   UNL d   1      53.554  32.492  53.833  0.00  0.00     0.273 S 
ATOM      2  O   UNL d   1      54.138  32.528  53.252  0.00  0.00    -0.200 OA
ATOM      3  O   UNL d   1      52.966  32.457  54.417  0.00  0.00    -0.200 OA
ENDROOT
BRANCH   1   4
ATOM      4  N   UNL d   1      53.144  31.930  53.391  0.00  0.00    -0.214 N 
ATOM      5  C   UNL d   1      52.610  32.086  52.777  0.00  0.00     0.157 A 
ATOM      6  N   UNL d   1      52.327  31.360  52.486  0.00  0.00    -0.226 NA
ATOM      7  C   UNL d   1      52.398  32.828  52.505  0.00  0.00     0.041 C 
ATOM      8  C   UNL d   1      52.693  30.757  52.927  0.00  0.00     0.100 A 
ATOM      9  C   UNL d   1      53.192  31.104  53.479  0.00  0.00     0.094 A 
ATOM     10  C   UNL d   1      52.626  29.936  52.885  0.00  0.00     0.021 A 
ATOM     11  C   UNL d   1      53.631  30.626  53.999  0.00  0.00     0.020 A 
ATOM     12  C   UNL d   1      53.565  29.809  53.958  0.00  0.00     0.002 A 
ATOM     13  C   UNL d   1      53.065  29.459  53.405  0.00  0.00     0.002 A 
ENDBRANCH   1   4
BRANCH   1  14
ATOM     14  C   UNL d   1      53.961  33.055  54.278  0.00  0.00     0.106 A 
ATOM     15  C   UNL d   1      53.556  33.710  54.590  0.00  0.00     0.039 A 
ATOM     16  C   UNL d   1      53.962  34.273  55.036  0.00  0.00     0.122 A 
ATOM     17  C   UNL d   1      54.776  34.187  55.173  0.00  0.00     0.162 A 
ATOM     18  C   UNL d   1      55.179  33.536  54.863  0.00  0.00     0.032 A 
ATOM     19  F   UNL d   1      55.174  34.747  55.614  0.00  0.00    -0.202 F 
ATOM     20  C   UNL d   1      54.773  32.974  54.418  0.00  0.00     0.015 A 
BRANCH  16  21
ATOM     21  O   UNL d   1      53.561  34.916  55.342  0.00  0.00    -0.326 OA
ATOM     22  C   UNL d   1      53.171  35.426  54.842  0.00  0.00     0.181 C 
ENDBRANCH  16  21
ENDBRANCH   1  14
TORSDOF 3
ENDMDL
MODEL 4
REMARK VINA RESULT:      -9.3      1.850      3.882
REMARK  3 active torsions:
REMARK  status: ('A' for Active; 'I' for Inactive)
REMARK    1  A    between atoms: S_2  and  N_1 
REMARK    2  A    between atoms: C_6  and  S_2 
REMARK    3  A    between atoms: O_17  and  C_11 
ROOT
ATOM      1  S   UNL d   1      52.847  32.646  53.305  0.00  0.00     0.273 S 
ATOM      2  O   UNL d   1      52.959  32.631  52.488  0.00  0.00    -0.200 OA
ATOM      3  O   UNL d   1      52.734  32.661  54.126  0.00  0.00    -0.200 OA
ENDROOT
BRANCH   1   4
ATOM      4  N   UNL d   1      53.335  31.986  53.387  0.00  0.00    -0.214 N 
ATOM      5  C   UNL d   1      54.156  31.998  53.493  0.00  0.00     0.157 A 
ATOM      6  N   UNL d   1      54.422  31.212  53.550  0.00  0.00    -0.226 NA
ATOM      7  C   UNL d   1      54.624  32.667  53.534  0.00  0.00     0.041 C 
ATOM      8  C   UNL d   1      53.757  30.718  53.478  0.00  0.00     0.100 A 
ATOM      9  C   UNL d   1      53.092  31.190  53.378  0.00  0.00     0.094 A 
ATOM     10  C   UNL d   1      53.685  29.897  53.492  0.00  0.00     0.021 A 
ATOM     11  C   UNL d   1      52.344  30.840  53.291  0.00  0.00     0.020 A 
ATOM     12  C   UNL d   1      52.271  30.022  53.305  0.00  0.00     0.002 A 
ATOM     13  C   UNL d   1      52.936  29.547  53.405  0.00  0.00     0.002 A 
ENDBRANCH   1   4
BRANCH   1  14
ATOM     14  C   UNL d   1      52.358  33.306  53.227  0.00  0.00     0.106 A 
ATOM     15  C   UNL d   1      52.490  33.978  53.696  0.00  0.00     0.039 A 
ATOM     16  C   UNL d   1      52.002  34.639  53.619  0.00  0.00     0.122 A 
ATOM     17  C   UNL d   1      51.377  34.633  53.072  0.00  0.00     0.162 A 
ATOM     18  C   UNL d   1      51.245  33.965  52.606  0.00  0.00     0.032 A 
ATOM     19  F   UNL d   1      50.897  35.289  52.999  0.00  0.00    -0.202 F 
ATOM     20  C   UNL d   1      51.733  33.305  52.683  0.00  0.00     0.015 A 
BRANCH  16  21
ATOM     21  O   UNL d   1      52.135  35.299  54.082  0.00  0.00    -0.326 OA
ATOM     22  C   UNL d   1      52.896  35.540  54.237  0.00  0.00     0.181 C 
ENDBRANCH  16  21
ENDBRANCH   1  14
TORSDOF 3
ENDMDL
