MODEL 1
REMARK VINA RESULT:      -6.5      0.000      0.000
REMARK  6 active torsions:
REMARK  status: ('A' for Active; 'I' for Inactive)
REMARK    1  A    between atoms: C_7  and  N_1 
REMARK    2  A    between atoms: C_9  and  C_7 
REMARK    3  A    between atoms: C_10  and  C_9 
REMARK       I    between atoms: N_13  and  C_10 
REMARK    4  A    between atoms: C_15  and  N_13 
REMARK    5  A    between atoms: C_18  and  C_15 
REMARK    6  A    between atoms: C_17  and  C_18 
ROOT
ATOM      1  C   UNL d   1     -48.037  13.141  22.718  0.00  0.00     0.090 C 
ENDROOT
BRANCH   1   2
ATOM      2  N   UNL d   1     -48.780  13.482  22.871  0.00  0.00    -0.249 N 
ATOM      3  C   UNL d   1     -49.448  13.012  22.899  0.00  0.00     0.208 A 
ATOM      4  N   UNL d   1     -50.189  13.340  23.050  0.00  0.00    -0.218 NA
ATOM      5  S   UNL d   1     -49.388  12.197  22.775  0.00  0.00    -0.038 SA
ATOM      6  C   UNL d   1     -50.246  14.158  23.174  0.00  0.00     0.088 A 
ATOM      7  C   UNL d   1     -49.574  14.632  23.146  0.00  0.00     0.074 A 
ATOM      8  C   UNL d   1     -50.983  14.496  23.326  0.00  0.00     0.019 A 
ATOM      9  C   UNL d   1     -48.837  14.293  22.994  0.00  0.00     0.268 A 
ATOM     10  C   UNL d   1     -49.636  15.446  23.270  0.00  0.00     0.006 A 
ATOM     11  O   UNL d   1     -48.163  14.767  22.966  0.00  0.00    -0.267 OA
ATOM     12  C   UNL d   1     -50.373  15.784  23.422  0.00  0.00     0.000 A 
ATOM     13  C   UNL d   1     -51.045  15.315  23.451  0.00  0.00     0.002 A 
ENDBRANCH   1   2
BRANCH   1  14
ATOM     14  C   UNL d   1     -47.564  12.901  23.344  0.00  0.00     0.082 C 
BRANCH  14  15
ATOM     15  C   UNL d   1     -46.802  12.610  23.202  0.00  0.00     0.281 C 
ATOM     16  O   UNL d   1     -46.266  13.072  22.784  0.00  0.00    -0.265 OA
ATOM     17  N   UNL d   1     -46.594  11.866  23.479  0.00  0.00    -0.206 NA
BRANCH  17  18
ATOM     18  C   UNL d   1     -45.824  11.572  23.336  0.00  0.00     0.102 C 
BRANCH  18  19
ATOM     19  C   UNL d   1     -45.570  10.877  23.684  0.00  0.00     0.021 C 
BRANCH  19  20
ATOM     20  C   UNL d   1     -44.822  10.603  23.562  0.00  0.00     0.002 A 
ATOM     21  C   UNL d   1     -44.632   9.804  23.690  0.00  0.00     0.000 A 
ATOM     22  C   UNL d   1     -43.864   9.523  23.564  0.00  0.00     0.000 A 
ATOM     23  C   UNL d   1     -43.263  10.023  23.308  0.00  0.00     0.000 A 
ATOM     24  C   UNL d   1     -43.455  10.823  23.180  0.00  0.00     0.000 A 
ATOM     25  C   UNL d   1     -44.222  11.116  23.303  0.00  0.00     0.000 A 
ENDBRANCH  19  20
ENDBRANCH  18  19
ENDBRANCH  17  18
ENDBRANCH  14  15
ENDBRANCH   1  14
TORSDOF 6
ENDMDL
MODEL 2
REMARK VINA RESULT:      -6.4      2.036      2.589
REMARK  6 active torsions:
REMARK  status: ('A' for Active; 'I' for Inactive)
REMARK    1  A    between atoms: C_7  and  N_1 
REMARK    2  A    between atoms: C_9  and  C_7 
REMARK    3  A    between atoms: C_10  and  C_9 
REMARK       I    between atoms: N_13  and  C_10 
REMARK    4  A    between atoms: C_15  and  N_13 
REMARK    5  A    between atoms: C_18  and  C_15 
REMARK    6  A    between atoms: C_17  and  C_18 
ROOT
ATOM      1  C   UNL d   1     -47.458  13.541  23.208  0.00  0.00     0.090 C 
ENDROOT
BRANCH   1   2
ATOM      2  N   UNL d   1     -48.283  13.436  23.176  0.00  0.00    -0.249 N 
ATOM      3  C   UNL d   1     -48.760  14.041  22.903  0.00  0.00     0.208 A 
ATOM      4  N   UNL d   1     -49.579  13.947  22.868  0.00  0.00    -0.218 NA
ATOM      5  S   UNL d   1     -48.426  14.756  22.658  0.00  0.00    -0.038 SA
ATOM      6  C   UNL d   1     -49.910  13.229  23.114  0.00  0.00     0.088 A 
ATOM      7  C   UNL d   1     -49.429  12.620  23.390  0.00  0.00     0.074 A 
ATOM      8  C   UNL d   1     -50.728  13.126  23.083  0.00  0.00     0.019 A 
ATOM      9  C   UNL d   1     -48.612  12.724  23.421  0.00  0.00     0.268 A 
ATOM     10  C   UNL d   1     -49.764  11.906  23.634  0.00  0.00     0.006 A 
ATOM     11  O   UNL d   1     -48.129  12.115  23.697  0.00  0.00    -0.267 OA
ATOM     12  C   UNL d   1     -50.582  11.803  23.603  0.00  0.00     0.000 A 
ATOM     13  C   UNL d   1     -51.064  12.407  23.329  0.00  0.00     0.002 A 
ENDBRANCH   1   2
BRANCH   1  14
ATOM     14  C   UNL d   1     -46.999  13.343  22.557  0.00  0.00     0.082 C 
BRANCH  14  15
ATOM     15  C   UNL d   1     -46.172  13.338  22.616  0.00  0.00     0.281 C 
ATOM     16  O   UNL d   1     -45.820  13.526  23.334  0.00  0.00    -0.265 OA
ATOM     17  N   UNL d   1     -45.720  13.147  21.959  0.00  0.00    -0.206 NA
BRANCH  17  18
ATOM     18  C   UNL d   1     -44.885  13.142  22.019  0.00  0.00     0.102 C 
BRANCH  18  19
ATOM     19  C   UNL d   1     -44.425  12.818  21.426  0.00  0.00     0.021 C 
BRANCH  19  20
ATOM     20  C   UNL d   1     -43.626  12.924  21.419  0.00  0.00     0.002 A 
ATOM     21  C   UNL d   1     -43.119  12.381  21.792  0.00  0.00     0.000 A 
ATOM     22  C   UNL d   1     -42.300  12.490  21.785  0.00  0.00     0.000 A 
ATOM     23  C   UNL d   1     -41.957  13.138  21.410  0.00  0.00     0.000 A 
ATOM     24  C   UNL d   1     -42.466  13.681  21.037  0.00  0.00     0.000 A 
ATOM     25  C   UNL d   1     -43.290  13.581  21.038  0.00  0.00     0.000 A 
ENDBRANCH  19  20
ENDBRANCH  18  19
ENDBRANCH  17  18
ENDBRANCH  14  15
ENDBRANCH   1  14
TORSDOF 6
ENDMDL
MODEL 3
REMARK VINA RESULT:      -6.2      2.440      3.227
REMARK  6 active torsions:
REMARK  status: ('A' for Active; 'I' for Inactive)
REMARK    1  A    between atoms: C_7  and  N_1 
REMARK    2  A    between atoms: C_9  and  C_7 
REMARK    3  A    between atoms: C_10  and  C_9 
REMARK       I    between atoms: N_13  and  C_10 
REMARK    4  A    between atoms: C_15  and  N_13 
REMARK    5  A    between atoms: C_18  and  C_15 
REMARK    6  A    between atoms: C_17  and  C_18 
ROOT
ATOM      1  C   UNL d   1     -46.477  13.156  22.788  0.00  0.00     0.090 C 
ENDROOT
BRANCH   1   2
ATOM      2  N   UNL d   1     -47.240  12.824  22.819  0.00  0.00    -0.249 N 
ATOM      3  C   UNL d   1     -47.376  12.157  23.271  0.00  0.00     0.208 A 
ATOM      4  N   UNL d   1     -48.128  11.820  23.309  0.00  0.00    -0.218 NA
ATOM      5  S   UNL d   1     -46.759  11.811  23.698  0.00  0.00    -0.038 SA
ATOM      6  C   UNL d   1     -48.745  12.171  22.880  0.00  0.00     0.088 A 
ATOM      7  C   UNL d   1     -48.607  12.842  22.424  0.00  0.00     0.074 A 
ATOM      8  C   UNL d   1     -49.500  11.841  22.911  0.00  0.00     0.019 A 
ATOM      9  C   UNL d   1     -47.851  13.171  22.393  0.00  0.00     0.268 A 
ATOM     10  C   UNL d   1     -49.225  13.187  21.999  0.00  0.00     0.006 A 
ATOM     11  O   UNL d   1     -47.712  13.844  21.938  0.00  0.00    -0.267 OA
ATOM     12  C   UNL d   1     -49.981  12.858  22.030  0.00  0.00     0.000 A 
ATOM     13  C   UNL d   1     -50.122  12.189  22.482  0.00  0.00     0.002 A 
ENDBRANCH   1   2
BRANCH   1  14
ATOM     14  C   UNL d   1     -45.938  12.880  22.234  0.00  0.00     0.082 C 
BRANCH  14  15
ATOM     15  C   UNL d   1     -45.193  13.238  22.165  0.00  0.00     0.281 C 
ATOM     16  O   UNL d   1     -45.063  13.967  22.521  0.00  0.00    -0.265 OA
ATOM     17  N   UNL d   1     -44.600  12.860  21.743  0.00  0.00    -0.206 NA
BRANCH  17  18
ATOM     18  C   UNL d   1     -43.848  13.221  21.673  0.00  0.00     0.102 C 
BRANCH  18  19
ATOM     19  C   UNL d   1     -43.258  12.875  21.225  0.00  0.00     0.021 C 
BRANCH  19  20
ATOM     20  C   UNL d   1     -42.548  13.243  21.123  0.00  0.00     0.002 A 
ATOM     21  C   UNL d   1     -42.392  13.691  20.441  0.00  0.00     0.000 A 
ATOM     22  C   UNL d   1     -41.663  14.068  20.337  0.00  0.00     0.000 A 
ATOM     23  C   UNL d   1     -41.069  14.014  20.904  0.00  0.00     0.000 A 
ATOM     24  C   UNL d   1     -41.227  13.565  21.587  0.00  0.00     0.000 A 
ATOM     25  C   UNL d   1     -41.954  13.182  21.701  0.00  0.00     0.000 A 
ENDBRANCH  19  20
ENDBRANCH  18  19
ENDBRANCH  17  18
ENDBRANCH  14  15
ENDBRANCH   1  14
TORSDOF 6
ENDMDL
MODEL 4
REMARK VINA RESULT:      -5.6      1.174      5.916
REMARK  6 active torsions:
REMARK  status: ('A' for Active; 'I' for Inactive)
REMARK    1  A    between atoms: C_7  and  N_1 
REMARK    2  A    between atoms: C_9  and  C_7 
REMARK    3  A    between atoms: C_10  and  C_9 
REMARK       I    between atoms: N_13  and  C_10 
REMARK    4  A    between atoms: C_15  and  N_13 
REMARK    5  A    between atoms: C_18  and  C_15 
REMARK    6  A    between atoms: C_17  and  C_18 
ROOT
ATOM      1  C   UNL d   1     -46.355  12.695  22.746  0.00  0.00     0.090 C 
ENDROOT
BRANCH   1   2
ATOM      2  N   UNL d   1     -45.850  12.079  22.984  0.00  0.00    -0.249 N 
ATOM      3  C   UNL d   1     -46.137  11.476  23.456  0.00  0.00     0.208 A 
ATOM      4  N   UNL d   1     -45.645  10.860  23.698  0.00  0.00    -0.218 NA
ATOM      5  S   UNL d   1     -46.928  11.477  23.696  0.00  0.00    -0.038 SA
ATOM      6  C   UNL d   1     -44.852  10.862  23.455  0.00  0.00     0.088 A 
ATOM      7  C   UNL d   1     -44.563  11.469  22.980  0.00  0.00     0.074 A 
ATOM      8  C   UNL d   1     -44.353  10.250  23.692  0.00  0.00     0.019 A 
ATOM      9  C   UNL d   1     -45.064  12.081  22.743  0.00  0.00     0.268 A 
ATOM     10  C   UNL d   1     -43.774  11.467  22.741  0.00  0.00     0.006 A 
ATOM     11  O   UNL d   1     -44.776  12.689  22.268  0.00  0.00    -0.267 OA
ATOM     12  C   UNL d   1     -43.273  10.855  22.977  0.00  0.00     0.000 A 
ATOM     13  C   UNL d   1     -43.557  10.249  23.450  0.00  0.00     0.002 A 
ENDBRANCH   1   2
BRANCH   1  14
ATOM     14  C   UNL d   1     -46.384  13.388  23.185  0.00  0.00     0.082 C 
BRANCH  14  15
ATOM     15  C   UNL d   1     -46.901  13.998  22.966  0.00  0.00     0.281 C 
ATOM     16  O   UNL d   1     -46.596  14.682  22.627  0.00  0.00    -0.265 OA
ATOM     17  N   UNL d   1     -47.706  13.911  23.092  0.00  0.00    -0.206 NA
BRANCH  17  18
ATOM     18  C   UNL d   1     -48.229  14.526  22.872  0.00  0.00     0.102 C 
BRANCH  18  19
ATOM     19  C   UNL d   1     -48.944  14.625  23.256  0.00  0.00     0.021 C 
BRANCH  19  20
ATOM     20  C   UNL d   1     -49.626  14.719  22.837  0.00  0.00     0.002 A 
ATOM     21  C   UNL d   1     -49.964  15.472  22.733  0.00  0.00     0.000 A 
ATOM     22  C   UNL d   1     -50.664  15.568  22.303  0.00  0.00     0.000 A 
ATOM     23  C   UNL d   1     -51.051  14.925  21.965  0.00  0.00     0.000 A 
ATOM     24  C   UNL d   1     -50.712  14.172  22.071  0.00  0.00     0.000 A 
ATOM     25  C   UNL d   1     -50.009  14.064  22.500  0.00  0.00     0.000 A 
ENDBRANCH  19  20
ENDBRANCH  18  19
ENDBRANCH  17  18
ENDBRANCH  14  15
ENDBRANCH   1  14
TORSDOF 6
ENDMDL
MODEL 5
REMARK VINA RESULT:      -5.6      8.738     10.276
REMARK  6 active torsions:
REMARK  status: ('A' for Active; 'I' for Inactive)
REMARK    1  A    between atoms: C_7  and  N_1 
REMARK    2  A    between atoms: C_9  and  C_7 
REMARK    3  A    between atoms: C_10  and  C_9 
REMARK       I    between atoms: N_13  and  C_10 
REMARK    4  A    between atoms: C_15  and  N_13 
REMARK    5  A    between atoms: C_18  and  C_15 
REMARK    6  A    between atoms: C_17  and  C_18 
ROOT
ATOM      1  C   UNL d   1     -40.143  14.414  18.462  0.00  0.00     0.090 C 
ENDROOT
BRANCH   1   2
ATOM      2  N   UNL d   1     -39.733  14.484  17.741  0.00  0.00    -0.249 N 
ATOM      3  C   UNL d   1     -39.817  15.158  17.287  0.00  0.00     0.208 A 
ATOM      4  N   UNL d   1     -39.415  15.236  16.571  0.00  0.00    -0.218 NA
ATOM      5  S   UNL d   1     -40.309  15.772  17.541  0.00  0.00    -0.038 SA
ATOM      6  C   UNL d   1     -38.923  14.619  16.319  0.00  0.00     0.088 A 
ATOM      7  C   UNL d   1     -38.838  13.940  16.777  0.00  0.00     0.074 A 
ATOM      8  C   UNL d   1     -38.516  14.688  15.605  0.00  0.00     0.019 A 
ATOM      9  C   UNL d   1     -39.244  13.871  17.491  0.00  0.00     0.268 A 
ATOM     10  C   UNL d   1     -38.346  13.328  16.522  0.00  0.00     0.006 A 
ATOM     11  O   UNL d   1     -39.160  13.192  17.951  0.00  0.00    -0.267 OA
ATOM     12  C   UNL d   1     -37.940  13.397  15.807  0.00  0.00     0.000 A 
ATOM     13  C   UNL d   1     -38.022  14.071  15.349  0.00  0.00     0.002 A 
ENDBRANCH   1   2
BRANCH   1  14
ATOM     14  C   UNL d   1     -39.899  14.853  19.111  0.00  0.00     0.082 C 
BRANCH  14  15
ATOM     15  C   UNL d   1     -40.072  14.593  19.879  0.00  0.00     0.281 C 
ATOM     16  O   UNL d   1     -40.799  14.240  20.029  0.00  0.00    -0.265 OA
ATOM     17  N   UNL d   1     -39.516  14.690  20.474  0.00  0.00    -0.206 NA
BRANCH  17  18
ATOM     18  C   UNL d   1     -39.691  14.426  21.249  0.00  0.00     0.102 C 
BRANCH  18  19
ATOM     19  C   UNL d   1     -39.403  14.827  21.902  0.00  0.00     0.021 C 
BRANCH  19  20
ATOM     20  C   UNL d   1     -39.005  14.435  22.483  0.00  0.00     0.002 A 
ATOM     21  C   UNL d   1     -38.373  14.794  22.886  0.00  0.00     0.000 A 
ATOM     22  C   UNL d   1     -37.965  14.392  23.483  0.00  0.00     0.000 A 
ATOM     23  C   UNL d   1     -38.169  13.624  23.698  0.00  0.00     0.000 A 
ATOM     24  C   UNL d   1     -38.802  13.265  23.292  0.00  0.00     0.000 A 
ATOM     25  C   UNL d   1     -39.218  13.660  22.692  0.00  0.00     0.000 A 
ENDBRANCH  19  20
ENDBRANCH  18  19
ENDBRANCH  17  18
ENDBRANCH  14  15
ENDBRANCH   1  14
TORSDOF 6
ENDMDL
MODEL 6
REMARK VINA RESULT:      -5.2      5.204      7.716
REMARK  6 active torsions:
REMARK  status: ('A' for Active; 'I' for Inactive)
REMARK    1  A    between atoms: C_7  and  N_1 
REMARK    2  A    between atoms: C_9  and  C_7 
REMARK    3  A    between atoms: C_10  and  C_9 
REMARK       I    between atoms: N_13  and  C_10 
REMARK    4  A    between atoms: C_15  and  N_13 
REMARK    5  A    between atoms: C_18  and  C_15 
REMARK    6  A    between atoms: C_17  and  C_18 
ROOT
ATOM      1  C   UNL d   1     -41.554  13.522  20.805  0.00  0.00     0.090 C 
ENDROOT
BRANCH   1   2
ATOM      2  N   UNL d   1     -41.031  14.018  20.389  0.00  0.00    -0.249 N 
ATOM      3  C   UNL d   1     -40.485  14.469  20.797  0.00  0.00     0.208 A 
ATOM      4  N   UNL d   1     -39.962  14.964  20.394  0.00  0.00    -0.218 NA
ATOM      5  S   UNL d   1     -40.451  14.435  21.622  0.00  0.00    -0.038 SA
ATOM      6  C   UNL d   1     -39.999  14.995  19.566  0.00  0.00     0.088 A 
ATOM      7  C   UNL d   1     -40.548  14.540  19.156  0.00  0.00     0.074 A 
ATOM      8  C   UNL d   1     -39.480  15.487  19.155  0.00  0.00     0.019 A 
ATOM      9  C   UNL d   1     -41.067  14.049  19.568  0.00  0.00     0.268 A 
ATOM     10  C   UNL d   1     -40.581  14.575  18.332  0.00  0.00     0.006 A 
ATOM     11  O   UNL d   1     -41.618  13.593  19.159  0.00  0.00    -0.267 OA
ATOM     12  C   UNL d   1     -40.063  15.067  17.919  0.00  0.00     0.000 A 
ATOM     13  C   UNL d   1     -39.514  15.521  18.325  0.00  0.00     0.002 A 
ENDBRANCH   1   2
BRANCH   1  14
ATOM     14  C   UNL d   1     -42.310  13.788  20.981  0.00  0.00     0.082 C 
BRANCH  14  15
ATOM     15  C   UNL d   1     -42.853  13.283  21.351  0.00  0.00     0.281 C 
ATOM     16  O   UNL d   1     -42.608  12.535  21.590  0.00  0.00    -0.265 OA
ATOM     17  N   UNL d   1     -43.624  13.535  21.472  0.00  0.00    -0.206 NA
BRANCH  17  18
ATOM     18  C   UNL d   1     -44.172  13.025  21.846  0.00  0.00     0.102 C 
BRANCH  18  19
ATOM     19  C   UNL d   1     -44.970  13.070  21.673  0.00  0.00     0.021 C 
BRANCH  19  20
ATOM     20  C   UNL d   1     -45.521  13.058  22.262  0.00  0.00     0.002 A 
ATOM     21  C   UNL d   1     -45.914  13.752  22.495  0.00  0.00     0.000 A 
ATOM     22  C   UNL d   1     -46.479  13.739  23.099  0.00  0.00     0.000 A 
ATOM     23  C   UNL d   1     -46.671  13.040  23.490  0.00  0.00     0.000 A 
ATOM     24  C   UNL d   1     -46.276  12.346  23.255  0.00  0.00     0.000 A 
ATOM     25  C   UNL d   1     -45.708  12.347  22.650  0.00  0.00     0.000 A 
ENDBRANCH  19  20
ENDBRANCH  18  19
ENDBRANCH  17  18
ENDBRANCH  14  15
ENDBRANCH   1  14
TORSDOF 6
ENDMDL
MODEL 7
REMARK VINA RESULT:      -5.1      8.684     10.365
REMARK  6 active torsions:
REMARK  status: ('A' for Active; 'I' for Inactive)
REMARK    1  A    between atoms: C_7  and  N_1 
REMARK    2  A    between atoms: C_9  and  C_7 
REMARK    3  A    between atoms: C_10  and  C_9 
REMARK       I    between atoms: N_13  and  C_10 
REMARK    4  A    between atoms: C_15  and  N_13 
REMARK    5  A    between atoms: C_18  and  C_15 
REMARK    6  A    between atoms: C_17  and  C_18 
ROOT
ATOM      1  C   UNL d   1     -40.047  14.653  19.437  0.00  0.00     0.090 C 
ENDROOT
BRANCH   1   2
ATOM      2  N   UNL d   1     -39.954  14.967  20.202  0.00  0.00    -0.249 N 
ATOM      3  C   UNL d   1     -40.468  15.541  20.473  0.00  0.00     0.208 A 
ATOM      4  N   UNL d   1     -40.384  15.860  21.229  0.00  0.00    -0.218 NA
ATOM      5  S   UNL d   1     -41.082  15.811  19.990  0.00  0.00    -0.038 SA
ATOM      6  C   UNL d   1     -39.767  15.587  21.711  0.00  0.00     0.088 A 
ATOM      7  C   UNL d   1     -39.248  15.009  21.438  0.00  0.00     0.074 A 
ATOM      8  C   UNL d   1     -39.674  15.900  22.469  0.00  0.00     0.019 A 
ATOM      9  C   UNL d   1     -39.342  14.697  20.680  0.00  0.00     0.268 A 
ATOM     10  C   UNL d   1     -38.636  14.741  21.922  0.00  0.00     0.006 A 
ATOM     11  O   UNL d   1     -38.823  14.118  20.405  0.00  0.00    -0.267 OA
ATOM     12  C   UNL d   1     -38.543  15.053  22.680  0.00  0.00     0.000 A 
ATOM     13  C   UNL d   1     -39.057  15.629  22.955  0.00  0.00     0.002 A 
ENDBRANCH   1   2
BRANCH   1  14
ATOM     14  C   UNL d   1     -39.871  15.117  18.784  0.00  0.00     0.082 C 
BRANCH  14  15
ATOM     15  C   UNL d   1     -39.754  14.765  18.043  0.00  0.00     0.281 C 
ATOM     16  O   UNL d   1     -40.251  14.155  17.804  0.00  0.00    -0.265 OA
ATOM     17  N   UNL d   1     -39.146  15.029  17.560  0.00  0.00    -0.206 NA
BRANCH  17  18
ATOM     18  C   UNL d   1     -39.028  14.673  16.812  0.00  0.00     0.102 C 
BRANCH  18  19
ATOM     19  C   UNL d   1     -38.281  14.633  16.481  0.00  0.00     0.021 C 
BRANCH  19  20
ATOM     20  C   UNL d   1     -38.171  14.312  15.750  0.00  0.00     0.002 A 
ATOM     21  C   UNL d   1     -38.070  14.795  15.081  0.00  0.00     0.000 A 
ATOM     22  C   UNL d   1     -37.957  14.466  14.331  0.00  0.00     0.000 A 
ATOM     23  C   UNL d   1     -37.940  13.651  14.220  0.00  0.00     0.000 A 
ATOM     24  C   UNL d   1     -38.040  13.168  14.891  0.00  0.00     0.000 A 
ATOM     25  C   UNL d   1     -38.155  13.488  15.648  0.00  0.00     0.000 A 
ENDBRANCH  19  20
ENDBRANCH  18  19
ENDBRANCH  17  18
ENDBRANCH  14  15
ENDBRANCH   1  14
TORSDOF 6
ENDMDL
MODEL 8
REMARK VINA RESULT:      -4.8      5.829      8.556
REMARK  6 active torsions:
REMARK  status: ('A' for Active; 'I' for Inactive)
REMARK    1  A    between atoms: C_7  and  N_1 
REMARK    2  A    between atoms: C_9  and  C_7 
REMARK    3  A    between atoms: C_10  and  C_9 
REMARK       I    between atoms: N_13  and  C_10 
REMARK    4  A    between atoms: C_15  and  N_13 
REMARK    5  A    between atoms: C_18  and  C_15 
REMARK    6  A    between atoms: C_17  and  C_18 
ROOT
ATOM      1  C   UNL d   1     -40.951  14.414  20.207  0.00  0.00     0.090 C 
ENDROOT
BRANCH   1   2
ATOM      2  N   UNL d   1     -40.261  14.297  19.758  0.00  0.00    -0.249 N 
ATOM      3  C   UNL d   1     -39.527  14.371  20.111  0.00  0.00     0.208 A 
ATOM      4  N   UNL d   1     -38.836  14.257  19.675  0.00  0.00    -0.218 NA
ATOM      5  S   UNL d   1     -39.469  14.562  20.913  0.00  0.00    -0.038 SA
ATOM      6  C   UNL d   1     -38.899  14.065  18.871  0.00  0.00     0.088 A 
ATOM      7  C   UNL d   1     -39.637  13.991  18.515  0.00  0.00     0.074 A 
ATOM      8  C   UNL d   1     -38.213  13.949  18.426  0.00  0.00     0.019 A 
ATOM      9  C   UNL d   1     -40.322  14.107  18.961  0.00  0.00     0.268 A 
ATOM     10  C   UNL d   1     -39.694  13.800  17.714  0.00  0.00     0.006 A 
ATOM     11  O   UNL d   1     -41.062  14.033  18.606  0.00  0.00    -0.267 OA
ATOM     12  C   UNL d   1     -39.009  13.684  17.269  0.00  0.00     0.000 A 
ATOM     13  C   UNL d   1     -38.272  13.757  17.619  0.00  0.00     0.002 A 
ENDBRANCH   1   2
BRANCH   1  14
ATOM     14  C   UNL d   1     -41.291  13.779  20.601  0.00  0.00     0.082 C 
BRANCH  14  15
ATOM     15  C   UNL d   1     -42.019  13.871  20.988  0.00  0.00     0.281 C 
ATOM     16  O   UNL d   1     -42.225  14.608  21.286  0.00  0.00    -0.265 OA
ATOM     17  N   UNL d   1     -42.520  13.226  21.066  0.00  0.00    -0.206 NA
BRANCH  17  18
ATOM     18  C   UNL d   1     -43.254  13.318  21.456  0.00  0.00     0.102 C 
BRANCH  18  19
ATOM     19  C   UNL d   1     -43.811  12.719  21.446  0.00  0.00     0.021 C 
BRANCH  19  20
ATOM     20  C   UNL d   1     -44.480  12.771  21.893  0.00  0.00     0.002 A 
ATOM     21  C   UNL d   1     -45.012  13.402  21.794  0.00  0.00     0.000 A 
ATOM     22  C   UNL d   1     -45.699  13.455  22.252  0.00  0.00     0.000 A 
ATOM     23  C   UNL d   1     -45.879  12.888  22.820  0.00  0.00     0.000 A 
ATOM     24  C   UNL d   1     -45.345  12.257  22.918  0.00  0.00     0.000 A 
ATOM     25  C   UNL d   1     -44.653  12.193  22.464  0.00  0.00     0.000 A 
ENDBRANCH  19  20
ENDBRANCH  18  19
ENDBRANCH  17  18
ENDBRANCH  14  15
ENDBRANCH   1  14
TORSDOF 6
ENDMDL
MODEL 9
REMARK VINA RESULT:      -3.8      9.424     11.656
REMARK  6 active torsions:
REMARK  status: ('A' for Active; 'I' for Inactive)
REMARK    1  A    between atoms: C_7  and  N_1 
REMARK    2  A    between atoms: C_9  and  C_7 
REMARK    3  A    between atoms: C_10  and  C_9 
REMARK       I    between atoms: N_13  and  C_10 
REMARK    4  A    between atoms: C_15  and  N_13 
REMARK    5  A    between atoms: C_18  and  C_15 
REMARK    6  A    between atoms: C_17  and  C_18 
ROOT
ATOM      1  C   UNL d   1     -38.017  14.485  17.209  0.00  0.00     0.090 C 
ENDROOT
BRANCH   1   2
ATOM      2  N   UNL d   1     -37.998  14.271  16.405  0.00  0.00    -0.249 N 
ATOM      3  C   UNL d   1     -37.980  13.482  16.193  0.00  0.00     0.208 A 
ATOM      4  N   UNL d   1     -37.961  13.260  15.399  0.00  0.00    -0.218 NA
ATOM      5  S   UNL d   1     -37.981  12.895  16.775  0.00  0.00    -0.038 SA
ATOM      6  C   UNL d   1     -37.960  13.852  14.818  0.00  0.00     0.088 A 
ATOM      7  C   UNL d   1     -37.978  14.646  15.032  0.00  0.00     0.074 A 
ATOM      8  C   UNL d   1     -37.941  13.639  14.021  0.00  0.00     0.019 A 
ATOM      9  C   UNL d   1     -37.997  14.858  15.829  0.00  0.00     0.268 A 
ATOM     10  C   UNL d   1     -37.976  15.231  14.450  0.00  0.00     0.006 A 
ATOM     11  O   UNL d   1     -38.014  15.653  16.045  0.00  0.00    -0.267 OA
ATOM     12  C   UNL d   1     -37.957  15.020  13.653  0.00  0.00     0.000 A 
ATOM     13  C   UNL d   1     -37.940  14.229  13.436  0.00  0.00     0.002 A 
ENDBRANCH   1   2
BRANCH   1  14
ATOM     14  C   UNL d   1     -38.735  14.663  17.564  0.00  0.00     0.082 C 
BRANCH  14  15
ATOM     15  C   UNL d   1     -38.753  15.031  18.307  0.00  0.00     0.281 C 
ATOM     16  O   UNL d   1     -38.259  15.673  18.450  0.00  0.00    -0.265 OA
ATOM     17  N   UNL d   1     -39.260  14.749  18.886  0.00  0.00    -0.206 NA
BRANCH  17  18
ATOM     18  C   UNL d   1     -39.277  15.120  19.636  0.00  0.00     0.102 C 
BRANCH  18  19
ATOM     19  C   UNL d   1     -39.614  14.745  20.281  0.00  0.00     0.021 C 
BRANCH  19  20
ATOM     20  C   UNL d   1     -39.378  14.923  21.030  0.00  0.00     0.002 A 
ATOM     21  C   UNL d   1     -38.792  14.474  21.412  0.00  0.00     0.000 A 
ATOM     22  C   UNL d   1     -38.549  14.657  22.182  0.00  0.00     0.000 A 
ATOM     23  C   UNL d   1     -38.879  15.287  22.596  0.00  0.00     0.000 A 
ATOM     24  C   UNL d   1     -39.466  15.735  22.212  0.00  0.00     0.000 A 
ATOM     25  C   UNL d   1     -39.717  15.561  21.440  0.00  0.00     0.000 A 
ENDBRANCH  19  20
ENDBRANCH  18  19
ENDBRANCH  17  18
ENDBRANCH  14  15
ENDBRANCH   1  14
TORSDOF 6
ENDMDL
