MODEL 1
REMARK VINA RESULT:      -3.7      0.000      0.000
REMARK  3 active torsions:
REMARK  status: ('A' for Active; 'I' for Inactive)
REMARK    1  A    between atoms: C_8  and  C_1 
REMARK    2  A    between atoms: N_5  and  C_2 
REMARK       I    between atoms: C_7  and  N_5 
REMARK    3  A    between atoms: C_9  and  C_7 
ROOT
ATOM      1  C   UNL d   1      32.942  22.897 -18.949  0.00  0.00     0.229 A 
ATOM      2  C   UNL d   1      33.090  22.290 -20.127  0.00  0.00     0.297 A 
ATOM      3  O   UNL d   1      33.134  22.179 -19.313  0.00  0.00    -0.252 OA
ATOM      4  N   UNL d   1      32.782  23.439 -19.540  0.00  0.00    -0.117 NA
ATOM      5  N   UNL d   1      32.874  23.064 -20.267  0.00  0.00    -0.101 NA
ENDROOT
BRANCH   2   6
ATOM      6  N   UNL d   1      33.241  21.711 -20.694  0.00  0.00    -0.165 NA
ATOM      7  C   UNL d   1      32.626  21.301 -21.036  0.00  0.00     0.282 C 
ATOM      8  O   UNL d   1      31.841  21.456 -20.821  0.00  0.00    -0.265 OA
BRANCH   7   9
ATOM      9  C   UNL d   1      32.777  20.723 -21.603  0.00  0.00     0.058 A 
ATOM     10  C   UNL d   1      32.958  19.957 -21.361  0.00  0.00     0.005 A 
ATOM     11  C   UNL d   1      33.112  19.368 -21.924  0.00  0.00     0.000 A 
ATOM     12  C   UNL d   1      33.083  19.556 -22.730  0.00  0.00     0.000 A 
ATOM     13  C   UNL d   1      32.901  20.327 -22.966  0.00  0.00     0.000 A 
ATOM     14  C   UNL d   1      33.233  18.985 -23.303  0.00  0.00     0.000 C 
ATOM     15  C   UNL d   1      32.748  20.912 -22.403  0.00  0.00     0.005 A 
ENDBRANCH   7   9
ENDBRANCH   2   6
BRANCH   1  16
ATOM     16  C   UNL d   1      32.918  23.031 -18.133  0.00  0.00     0.143 A 
ATOM     17  O   UNL d   1      33.236  22.547 -17.553  0.00  0.00    -0.301 OA
ATOM     18  C   UNL d   1      33.085  22.893 -16.822  0.00  0.00     0.123 A 
ATOM     19  C   UNL d   1      32.670  23.597 -16.951  0.00  0.00     0.029 A 
ATOM     20  C   UNL d   1      32.566  23.684 -17.760  0.00  0.00     0.030 A 
ENDBRANCH   1  16
TORSDOF 3
ENDMDL
MODEL 2
REMARK VINA RESULT:      -3.1      2.990      6.019
REMARK  3 active torsions:
REMARK  status: ('A' for Active; 'I' for Inactive)
REMARK    1  A    between atoms: C_8  and  C_1 
REMARK    2  A    between atoms: N_5  and  C_2 
REMARK       I    between atoms: C_7  and  N_5 
REMARK    3  A    between atoms: C_9  and  C_7 
ROOT
ATOM      1  C   UNL d   1      32.178  17.501 -23.650  0.00  0.00     0.229 A 
ATOM      2  C   UNL d   1      32.585  18.717 -23.285  0.00  0.00     0.297 A 
ATOM      3  O   UNL d   1      31.934  18.216 -23.313  0.00  0.00    -0.252 OA
ATOM      4  N   UNL d   1      32.973  17.569 -23.826  0.00  0.00    -0.117 NA
ATOM      5  N   UNL d   1      33.225  18.320 -23.601  0.00  0.00    -0.101 NA
ENDROOT
BRANCH   2   6
ATOM      6  N   UNL d   1      32.582  19.485 -22.989  0.00  0.00    -0.165 NA
ATOM      7  C   UNL d   1      32.897  19.644 -22.254  0.00  0.00     0.282 C 
ATOM      8  O   UNL d   1      33.225  19.038 -21.794  0.00  0.00    -0.265 OA
BRANCH   7   9
ATOM      9  C   UNL d   1      32.894  20.412 -21.958  0.00  0.00     0.058 A 
ATOM     10  C   UNL d   1      33.238  21.017 -22.398  0.00  0.00     0.005 A 
ATOM     11  C   UNL d   1      33.239  21.793 -22.109  0.00  0.00     0.000 A 
ATOM     12  C   UNL d   1      32.892  21.957 -21.375  0.00  0.00     0.000 A 
ATOM     13  C   UNL d   1      32.548  21.346 -20.938  0.00  0.00     0.000 A 
ATOM     14  C   UNL d   1      32.884  22.722 -21.072  0.00  0.00     0.000 C 
ATOM     15  C   UNL d   1      32.548  20.572 -21.228  0.00  0.00     0.005 A 
ENDBRANCH   7   9
ENDBRANCH   2   6
BRANCH   1  16
ATOM     16  C   UNL d   1      31.696  16.841 -23.781  0.00  0.00     0.143 A 
ATOM     17  O   UNL d   1      30.933  16.851 -24.082  0.00  0.00    -0.301 OA
ATOM     18  C   UNL d   1      30.664  16.075 -24.119  0.00  0.00     0.123 A 
ATOM     19  C   UNL d   1      31.266  15.580 -23.839  0.00  0.00     0.029 A 
ATOM     20  C   UNL d   1      31.903  16.052 -23.630  0.00  0.00     0.030 A 
ENDBRANCH   1  16
TORSDOF 3
ENDMDL
MODEL 3
REMARK VINA RESULT:      -2.6      2.304      3.880
REMARK  3 active torsions:
REMARK  status: ('A' for Active; 'I' for Inactive)
REMARK    1  A    between atoms: C_8  and  C_1 
REMARK    2  A    between atoms: N_5  and  C_2 
REMARK       I    between atoms: C_7  and  N_5 
REMARK    3  A    between atoms: C_9  and  C_7 
ROOT
ATOM      1  C   UNL d   1      32.834  20.658 -21.984  0.00  0.00     0.229 A 
ATOM      2  C   UNL d   1      32.845  19.535 -22.701  0.00  0.00     0.297 A 
ATOM      3  O   UNL d   1      32.590  19.868 -21.993  0.00  0.00    -0.252 OA
ATOM      4  N   UNL d   1      33.234  20.803 -22.682  0.00  0.00    -0.117 NA
ATOM      5  N   UNL d   1      33.241  20.110 -23.125  0.00  0.00    -0.101 NA
ENDROOT
BRANCH   2   6
ATOM      6  N   UNL d   1      32.717  18.755 -22.932  0.00  0.00    -0.165 NA
ATOM      7  C   UNL d   1      32.396  18.590 -23.663  0.00  0.00     0.282 C 
ATOM      8  O   UNL d   1      32.193  19.200 -24.184  0.00  0.00    -0.265 OA
BRANCH   7   9
ATOM      9  C   UNL d   1      32.269  17.810 -23.894  0.00  0.00     0.058 A 
ATOM     10  C   UNL d   1      31.498  17.522 -23.941  0.00  0.00     0.005 A 
ATOM     11  C   UNL d   1      31.360  16.739 -24.171  0.00  0.00     0.000 A 
ATOM     12  C   UNL d   1      32.000  16.247 -24.354  0.00  0.00     0.000 A 
ATOM     13  C   UNL d   1      32.771  16.542 -24.305  0.00  0.00     0.000 A 
ATOM     14  C   UNL d   1      31.883  15.466 -24.585  0.00  0.00     0.000 C 
ATOM     15  C   UNL d   1      32.907  17.323 -24.075  0.00  0.00     0.005 A 
ENDBRANCH   7   9
ENDBRANCH   2   6
BRANCH   1  16
ATOM     16  C   UNL d   1      32.693  21.198 -21.372  0.00  0.00     0.143 A 
ATOM     17  O   UNL d   1      32.253  21.888 -21.427  0.00  0.00    -0.301 OA
ATOM     18  C   UNL d   1      32.259  22.252 -20.690  0.00  0.00     0.123 A 
ATOM     19  C   UNL d   1      32.706  21.784 -20.174  0.00  0.00     0.029 A 
ATOM     20  C   UNL d   1      32.975  21.133 -20.594  0.00  0.00     0.030 A 
ENDBRANCH   1  16
TORSDOF 3
ENDMDL
MODEL 4
REMARK VINA RESULT:      -1.0      1.594      4.834
REMARK  3 active torsions:
REMARK  status: ('A' for Active; 'I' for Inactive)
REMARK    1  A    between atoms: C_8  and  C_1 
REMARK    2  A    between atoms: N_5  and  C_2 
REMARK       I    between atoms: C_7  and  N_5 
REMARK    3  A    between atoms: C_9  and  C_7 
ROOT
ATOM      1  C   UNL d   1      33.129  22.560 -22.590  0.00  0.00     0.229 A 
ATOM      2  C   UNL d   1      33.208  23.096 -21.372  0.00  0.00     0.297 A 
ATOM      3  O   UNL d   1      33.144  22.385 -21.782  0.00  0.00    -0.252 OA
ATOM      4  N   UNL d   1      33.184  23.371 -22.669  0.00  0.00    -0.117 NA
ATOM      5  N   UNL d   1      33.232  23.702 -21.917  0.00  0.00    -0.101 NA
ENDROOT
BRANCH   2   6
ATOM      6  N   UNL d   1      33.241  23.170 -20.552  0.00  0.00    -0.165 NA
ATOM      7  C   UNL d   1      32.607  22.944 -20.093  0.00  0.00     0.282 C 
ATOM      8  O   UNL d   1      31.921  22.635 -20.439  0.00  0.00    -0.265 OA
BRANCH   7   9
ATOM      9  C   UNL d   1      32.640  23.019 -19.273  0.00  0.00     0.058 A 
ATOM     10  C   UNL d   1      32.156  23.568 -18.897  0.00  0.00     0.005 A 
ATOM     11  C   UNL d   1      32.183  23.651 -18.073  0.00  0.00     0.000 A 
ATOM     12  C   UNL d   1      32.699  23.179 -17.631  0.00  0.00     0.000 A 
ATOM     13  C   UNL d   1      33.183  22.629 -18.015  0.00  0.00     0.000 A 
ATOM     14  C   UNL d   1      32.740  23.247 -16.812  0.00  0.00     0.000 C 
ATOM     15  C   UNL d   1      33.155  22.548 -18.836  0.00  0.00     0.005 A 
ENDBRANCH   7   9
ENDBRANCH   2   6
BRANCH   1  16
ATOM     16  C   UNL d   1      33.069  22.005 -23.201  0.00  0.00     0.143 A 
ATOM     17  O   UNL d   1      32.987  21.194 -23.112  0.00  0.00    -0.301 OA
ATOM     18  C   UNL d   1      32.948  20.859 -23.862  0.00  0.00     0.123 A 
ATOM     19  C   UNL d   1      33.008  21.467 -24.420  0.00  0.00     0.029 A 
ATOM     20  C   UNL d   1      33.082  22.176 -24.013  0.00  0.00     0.030 A 
ENDBRANCH   1  16
TORSDOF 3
ENDMDL
