MODEL 1
REMARK VINA RESULT:      95.8      0.000      0.000
REMARK  3 active torsions:
REMARK  status: ('A' for Active; 'I' for Inactive)
REMARK    1  A    between atoms: C_9  and  C_1 
REMARK       I    between atoms: N_12  and  C_9 
REMARK    2  A    between atoms: C_16  and  N_12 
REMARK    3  A    between atoms: C_17  and  C_16 
ROOT
ATOM      1  C   UNL d   1     -55.707-100.932 -42.821  0.00  0.00     0.108 A 
ATOM      2  C   UNL d   1     -55.372-100.971 -41.539  0.00  0.00     0.044 A 
ATOM      3  C   UNL d   1     -55.463-101.777 -41.816  0.00  0.00     0.112 A 
ATOM      4  S   UNL d   1     -55.673-101.748 -42.619  0.00  0.00    -0.061 SA
ATOM      5  C   UNL d   1     -55.527-100.464 -42.177  0.00  0.00     0.116 A 
ATOM      6  N   UNL d   1     -55.344-102.395 -41.305  0.00  0.00    -0.239 NA
ATOM      7  C   UNL d   1     -55.047-101.469 -40.256  0.00  0.00     0.057 A 
ATOM      8  C   UNL d   1     -55.166-100.833 -40.767  0.00  0.00     0.008 A 
ATOM      9  C   UNL d   1     -55.135-102.241 -40.522  0.00  0.00     0.085 A 
ATOM     10  C   UNL d   1     -54.836-101.318 -39.467  0.00  0.00     0.197 A 
ATOM     11  N   UNL d   1     -55.508 -99.618 -42.179  0.00  0.00    -0.147 N 
ATOM     12  O   UNL d   1     -54.747-100.534 -39.198  0.00  0.00    -0.286 OA
ATOM     13  C   UNL d   1     -55.014-102.879 -40.005  0.00  0.00     0.019 A 
ATOM     14  C   UNL d   1     -54.715-101.936 -38.949  0.00  0.00     0.042 A 
ATOM     15  C   UNL d   1     -54.807-102.743 -39.226  0.00  0.00     0.005 A 
ENDROOT
BRANCH   1  16
ATOM     16  C   UNL d   1     -55.898-100.631 -43.575  0.00  0.00     0.287 C 
ATOM     17  N   UNL d   1     -56.103 -99.837 -43.632  0.00  0.00    -0.206 NA
ATOM     18  O   UNL d   1     -55.885-101.099 -44.247  0.00  0.00    -0.265 OA
BRANCH  17  19
ATOM     19  C   UNL d   1     -56.297 -99.519 -44.377  0.00  0.00     0.102 C 
BRANCH  19  20
ATOM     20  C   UNL d   1     -57.064 -99.268 -44.534  0.00  0.00     0.019 A 
ATOM     21  C   UNL d   1     -57.340 -99.244 -45.310  0.00  0.00     0.002 A 
ATOM     22  C   UNL d   1     -58.111 -98.992 -45.462  0.00  0.00     0.000 A 
ATOM     23  C   UNL d   1     -58.602 -98.765 -44.851  0.00  0.00     0.000 A 
ATOM     24  C   UNL d   1     -58.332 -98.785 -44.075  0.00  0.00     0.000 A 
ATOM     25  C   UNL d   1     -57.562 -99.037 -43.914  0.00  0.00     0.002 A 
ENDBRANCH  19  20
ENDBRANCH  17  19
ENDBRANCH   1  16
TORSDOF 3
ENDMDL
