MODEL 1
REMARK VINA RESULT:      -6.2      0.000      0.000
REMARK  5 active torsions:
REMARK  status: ('A' for Active; 'I' for Inactive)
REMARK    1  A    between atoms: C_4  and  C_1 
REMARK    2  A    between atoms: C_3  and  N_8 
REMARK       I    between atoms: N_8  and  C_4 
REMARK    3  A    between atoms: C_13  and  C_6 
REMARK    4  A    between atoms: C_14  and  C_10 
REMARK    5  A    between atoms: C_20  and  C_14 
ROOT
ATOM      1  C   UNL d   1     -46.843  13.460  22.778  0.00  0.00     0.083 A 
ATOM      2  C   UNL d   1     -47.423  12.889  22.947  0.00  0.00     0.032 A 
ATOM      3  C   UNL d   1     -48.143  13.274  23.016  0.00  0.00     0.100 A 
ATOM      4  C   UNL d   1     -47.226  14.198  22.746  0.00  0.00     0.105 A 
ATOM      5  O   UNL d   1     -48.029  14.075  22.895  0.00  0.00    -0.307 OA
ATOM      6  C   UNL d   1     -46.854  14.919  22.592  0.00  0.00     0.027 C 
ENDROOT
BRANCH   1   7
ATOM      7  C   UNL d   1     -46.035  13.324  22.662  0.00  0.00     0.283 C 
ATOM      8  N   UNL d   1     -45.788  12.759  22.127  0.00  0.00    -0.181 NA
ATOM      9  O   UNL d   1     -45.488  13.765  23.093  0.00  0.00    -0.265 OA
BRANCH   8  10
ATOM     10  C   UNL d   1     -44.982  12.626  22.014  0.00  0.00     0.216 A 
ATOM     11  N   UNL d   1     -44.526  12.946  21.419  0.00  0.00    -0.200 NA
ATOM     12  C   UNL d   1     -43.761  12.671  21.510  0.00  0.00     0.175 A 
ATOM     13  N   UNL d   1     -43.749  12.176  22.169  0.00  0.00    -0.187 NA
ATOM     14  S   UNL d   1     -44.506  12.152  22.477  0.00  0.00     0.054 SA
BRANCH  12  15
ATOM     15  C   UNL d   1     -43.121  12.852  21.036  0.00  0.00     0.082 C 
BRANCH  15  16
ATOM     16  C   UNL d   1     -42.471  13.241  21.357  0.00  0.00     0.199 C 
ATOM     17  O   UNL d   1     -42.036  12.894  21.963  0.00  0.00    -0.286 OA
ATOM     18  C   UNL d   1     -42.255  13.980  21.072  0.00  0.00     0.045 C 
ENDBRANCH  15  16
ENDBRANCH  12  15
ENDBRANCH   8  10
ENDBRANCH   1   7
BRANCH   3  19
ATOM     19  C   UNL d   1     -48.861  12.916  23.181  0.00  0.00     0.024 A 
ATOM     20  C   UNL d   1     -49.566  13.335  23.062  0.00  0.00     0.014 A 
ATOM     21  C   UNL d   1     -50.289  12.968  23.230  0.00  0.00     0.068 A 
ATOM     22 CL   UNL d   1     -50.988  13.386  23.110  0.00  0.00    -0.082 Cl
ATOM     23  C   UNL d   1     -50.313  12.193  23.514  0.00  0.00     0.068 A 
ATOM     24  C   UNL d   1     -49.614  11.775  23.633  0.00  0.00     0.012 A 
ATOM     25 CL   UNL d   1     -51.045  11.836  23.679  0.00  0.00    -0.082 Cl
ATOM     26  C   UNL d   1     -48.885  12.132  23.468  0.00  0.00     0.003 A 
ENDBRANCH   3  19
TORSDOF 5
ENDMDL
MODEL 2
REMARK VINA RESULT:      -5.8      1.162      1.675
REMARK  5 active torsions:
REMARK  status: ('A' for Active; 'I' for Inactive)
REMARK    1  A    between atoms: C_4  and  C_1 
REMARK    2  A    between atoms: C_3  and  N_8 
REMARK       I    between atoms: N_8  and  C_4 
REMARK    3  A    between atoms: C_13  and  C_6 
REMARK    4  A    between atoms: C_14  and  C_10 
REMARK    5  A    between atoms: C_20  and  C_14 
ROOT
ATOM      1  C   UNL d   1     -47.199  12.872  23.050  0.00  0.00     0.083 A 
ATOM      2  C   UNL d   1     -47.671  13.532  22.867  0.00  0.00     0.032 A 
ATOM      3  C   UNL d   1     -48.452  13.332  23.011  0.00  0.00     0.100 A 
ATOM      4  C   UNL d   1     -47.711  12.268  23.308  0.00  0.00     0.105 A 
ATOM      5  O   UNL d   1     -48.484  12.559  23.281  0.00  0.00    -0.307 OA
ATOM      6  C   UNL d   1     -47.473  11.514  23.545  0.00  0.00     0.027 C 
ENDROOT
BRANCH   1   7
ATOM      7  C   UNL d   1     -46.377  12.821  22.989  0.00  0.00     0.283 C 
ATOM      8  N   UNL d   1     -46.027  12.702  22.261  0.00  0.00    -0.181 NA
ATOM      9  O   UNL d   1     -45.918  12.891  23.670  0.00  0.00    -0.265 OA
BRANCH   8  10
ATOM     10  C   UNL d   1     -45.206  12.652  22.203  0.00  0.00     0.216 A 
ATOM     11  N   UNL d   1     -44.719  13.203  21.851  0.00  0.00    -0.200 NA
ATOM     12  C   UNL d   1     -43.948  12.939  21.915  0.00  0.00     0.175 A 
ATOM     13  N   UNL d   1     -43.963  12.216  22.312  0.00  0.00    -0.187 NA
ATOM     14  S   UNL d   1     -44.742  12.043  22.487  0.00  0.00     0.054 SA
BRANCH  12  15
ATOM     15  C   UNL d   1     -43.280  13.318  21.639  0.00  0.00     0.082 C 
BRANCH  15  16
ATOM     16  C   UNL d   1     -42.861  13.000  21.005  0.00  0.00     0.199 C 
ATOM     17  O   UNL d   1     -43.261  12.670  20.367  0.00  0.00    -0.286 OA
ATOM     18  C   UNL d   1     -42.040  13.012  21.010  0.00  0.00     0.045 C 
ENDBRANCH  15  16
ENDBRANCH  12  15
ENDBRANCH   8  10
ENDBRANCH   1   7
BRANCH   3  19
ATOM     19  C   UNL d   1     -49.098  13.823  22.904  0.00  0.00     0.024 A 
ATOM     20  C   UNL d   1     -49.725  13.579  22.420  0.00  0.00     0.014 A 
ATOM     21  C   UNL d   1     -50.376  14.080  22.315  0.00  0.00     0.068 A 
ATOM     22 CL   UNL d   1     -50.998  13.834  21.834  0.00  0.00    -0.082 Cl
ATOM     23  C   UNL d   1     -50.405  14.817  22.686  0.00  0.00     0.068 A 
ATOM     24  C   UNL d   1     -49.784  15.062  23.167  0.00  0.00     0.012 A 
ATOM     25 CL   UNL d   1     -51.064  15.311  22.572  0.00  0.00    -0.082 Cl
ATOM     26  C   UNL d   1     -49.128  14.569  23.279  0.00  0.00     0.003 A 
ENDBRANCH   3  19
TORSDOF 5
ENDMDL
MODEL 3
REMARK VINA RESULT:      -5.7      1.437      1.940
REMARK  5 active torsions:
REMARK  status: ('A' for Active; 'I' for Inactive)
REMARK    1  A    between atoms: C_4  and  C_1 
REMARK    2  A    between atoms: C_3  and  N_8 
REMARK       I    between atoms: N_8  and  C_4 
REMARK    3  A    between atoms: C_13  and  C_6 
REMARK    4  A    between atoms: C_14  and  C_10 
REMARK    5  A    between atoms: C_20  and  C_14 
ROOT
ATOM      1  C   UNL d   1     -46.072  12.932  22.673  0.00  0.00     0.083 A 
ATOM      2  C   UNL d   1     -46.576  13.526  22.380  0.00  0.00     0.032 A 
ATOM      3  C   UNL d   1     -47.286  13.475  22.785  0.00  0.00     0.100 A 
ATOM      4  C   UNL d   1     -46.492  12.521  23.262  0.00  0.00     0.105 A 
ATOM      5  O   UNL d   1     -47.242  12.862  23.326  0.00  0.00    -0.307 OA
ATOM      6  C   UNL d   1     -46.197  11.885  23.698  0.00  0.00     0.027 C 
ENDROOT
BRANCH   1   7
ATOM      7  C   UNL d   1     -45.298  12.776  22.426  0.00  0.00     0.283 C 
ATOM      8  N   UNL d   1     -44.951  13.238  21.849  0.00  0.00    -0.181 NA
ATOM      9  O   UNL d   1     -44.886  12.150  22.770  0.00  0.00    -0.265 OA
BRANCH   8  10
ATOM     10  C   UNL d   1     -44.180  13.080  21.606  0.00  0.00     0.216 A 
ATOM     11  N   UNL d   1     -43.519  13.515  21.804  0.00  0.00    -0.200 NA
ATOM     12  C   UNL d   1     -42.870  13.169  21.447  0.00  0.00     0.175 A 
ATOM     13  N   UNL d   1     -43.137  12.513  21.024  0.00  0.00    -0.187 NA
ATOM     14  S   UNL d   1     -43.946  12.463  21.125  0.00  0.00     0.054 SA
BRANCH  12  15
ATOM     15  C   UNL d   1     -42.096  13.423  21.498  0.00  0.00     0.082 C 
BRANCH  15  16
ATOM     16  C   UNL d   1     -41.781  13.895  20.901  0.00  0.00     0.199 C 
ATOM     17  O   UNL d   1     -41.588  13.568  20.171  0.00  0.00    -0.286 OA
ATOM     18  C   UNL d   1     -41.658  14.696  21.034  0.00  0.00     0.045 C 
ENDBRANCH  15  16
ENDBRANCH  12  15
ENDBRANCH   8  10
ENDBRANCH   1   7
BRANCH   3  19
ATOM     19  C   UNL d   1     -47.937  13.958  22.669  0.00  0.00     0.024 A 
ATOM     20  C   UNL d   1     -48.617  13.653  22.307  0.00  0.00     0.014 A 
ATOM     21  C   UNL d   1     -49.272  14.146  22.192  0.00  0.00     0.068 A 
ATOM     22 CL   UNL d   1     -49.947  13.840  21.833  0.00  0.00    -0.082 Cl
ATOM     23  C   UNL d   1     -49.253  14.936  22.433  0.00  0.00     0.068 A 
ATOM     24  C   UNL d   1     -48.579  15.242  22.793  0.00  0.00     0.012 A 
ATOM     25 CL   UNL d   1     -49.917  15.421  22.312  0.00  0.00    -0.082 Cl
ATOM     26  C   UNL d   1     -47.918  14.757  22.913  0.00  0.00     0.003 A 
ENDBRANCH   3  19
TORSDOF 5
ENDMDL
MODEL 4
REMARK VINA RESULT:      -5.0      2.299      2.834
REMARK  5 active torsions:
REMARK  status: ('A' for Active; 'I' for Inactive)
REMARK    1  A    between atoms: C_4  and  C_1 
REMARK    2  A    between atoms: C_3  and  N_8 
REMARK       I    between atoms: N_8  and  C_4 
REMARK    3  A    between atoms: C_13  and  C_6 
REMARK    4  A    between atoms: C_14  and  C_10 
REMARK    5  A    between atoms: C_20  and  C_14 
ROOT
ATOM      1  C   UNL d   1     -48.279  12.191  23.400  0.00  0.00     0.083 A 
ATOM      2  C   UNL d   1     -48.461  12.993  23.275  0.00  0.00     0.032 A 
ATOM      3  C   UNL d   1     -49.273  13.080  23.343  0.00  0.00     0.100 A 
ATOM      4  C   UNL d   1     -48.996  11.795  23.545  0.00  0.00     0.105 A 
ATOM      5  O   UNL d   1     -49.607  12.350  23.508  0.00  0.00    -0.307 OA
ATOM      6  C   UNL d   1     -49.070  10.987  23.697  0.00  0.00     0.027 C 
ENDROOT
BRANCH   1   7
ATOM      7  C   UNL d   1     -47.527  11.847  23.385  0.00  0.00     0.283 C 
ATOM      8  N   UNL d   1     -46.867  12.313  23.265  0.00  0.00    -0.181 NA
ATOM      9  O   UNL d   1     -47.455  11.033  23.492  0.00  0.00    -0.265 OA
BRANCH   8  10
ATOM     10  C   UNL d   1     -46.118  11.968  23.251  0.00  0.00     0.216 A 
ATOM     11  N   UNL d   1     -45.913  11.260  23.599  0.00  0.00    -0.200 NA
ATOM     12  C   UNL d   1     -45.121  11.124  23.452  0.00  0.00     0.175 A 
ATOM     13  N   UNL d   1     -44.836  11.758  23.007  0.00  0.00    -0.187 NA
ATOM     14  S   UNL d   1     -45.456  12.276  22.885  0.00  0.00     0.054 SA
BRANCH  12  15
ATOM     15  C   UNL d   1     -44.685  10.479  23.698  0.00  0.00     0.082 C 
BRANCH  15  16
ATOM     16  C   UNL d   1     -43.944  10.337  23.369  0.00  0.00     0.199 C 
ATOM     17  O   UNL d   1     -43.485  10.960  23.092  0.00  0.00    -0.286 OA
ATOM     18  C   UNL d   1     -43.660   9.568  23.317  0.00  0.00     0.045 C 
ENDBRANCH  15  16
ENDBRANCH  12  15
ENDBRANCH   8  10
ENDBRANCH   1   7
BRANCH   3  19
ATOM     19  C   UNL d   1     -49.686  13.782  23.259  0.00  0.00     0.024 A 
ATOM     20  C   UNL d   1     -49.274  14.498  23.207  0.00  0.00     0.014 A 
ATOM     21  C   UNL d   1     -49.696  15.205  23.123  0.00  0.00     0.068 A 
ATOM     22 CL   UNL d   1     -49.284  15.916  23.071  0.00  0.00    -0.082 Cl
ATOM     23  C   UNL d   1     -50.522  15.202  23.090  0.00  0.00     0.068 A 
ATOM     24  C   UNL d   1     -50.934  14.491  23.142  0.00  0.00     0.012 A 
ATOM     25 CL   UNL d   1     -50.935  15.918  23.005  0.00  0.00    -0.082 Cl
ATOM     26  C   UNL d   1     -50.521  13.778  23.226  0.00  0.00     0.003 A 
ENDBRANCH   3  19
TORSDOF 5
ENDMDL
MODEL 5
REMARK VINA RESULT:      -4.9      2.234      3.581
REMARK  5 active torsions:
REMARK  status: ('A' for Active; 'I' for Inactive)
REMARK    1  A    between atoms: C_4  and  C_1 
REMARK    2  A    between atoms: C_3  and  N_8 
REMARK       I    between atoms: N_8  and  C_4 
REMARK    3  A    between atoms: C_13  and  C_6 
REMARK    4  A    between atoms: C_14  and  C_10 
REMARK    5  A    between atoms: C_20  and  C_14 
ROOT
ATOM      1  C   UNL d   1     -43.770  12.935  21.703  0.00  0.00     0.083 A 
ATOM      2  C   UNL d   1     -44.456  13.407  21.702  0.00  0.00     0.032 A 
ATOM      3  C   UNL d   1     -45.015  13.038  22.174  0.00  0.00     0.100 A 
ATOM      4  C   UNL d   1     -43.927  12.274  22.183  0.00  0.00     0.105 A 
ATOM      5  O   UNL d   1     -44.698  12.344  22.471  0.00  0.00    -0.307 OA
ATOM      6  C   UNL d   1     -43.394  11.663  22.337  0.00  0.00     0.027 C 
ENDROOT
BRANCH   1   7
ATOM      7  C   UNL d   1     -43.064  13.090  21.302  0.00  0.00     0.283 C 
ATOM      8  N   UNL d   1     -42.634  13.763  21.475  0.00  0.00    -0.181 NA
ATOM      9  O   UNL d   1     -42.804  12.559  20.728  0.00  0.00    -0.265 OA
BRANCH   8  10
ATOM     10  C   UNL d   1     -41.931  13.915  21.073  0.00  0.00     0.216 A 
ATOM     11  N   UNL d   1     -41.863  14.316  20.366  0.00  0.00    -0.200 NA
ATOM     12  C   UNL d   1     -41.072  14.343  20.164  0.00  0.00     0.175 A 
ATOM     13  N   UNL d   1     -40.648  13.953  20.755  0.00  0.00    -0.187 NA
ATOM     14  S   UNL d   1     -41.184  13.691  21.314  0.00  0.00     0.054 SA
BRANCH  12  15
ATOM     15  C   UNL d   1     -40.753  14.692  19.499  0.00  0.00     0.082 C 
BRANCH  15  16
ATOM     16  C   UNL d   1     -40.472  14.220  18.884  0.00  0.00     0.199 C 
ATOM     17  O   UNL d   1     -40.997  13.868  18.358  0.00  0.00    -0.286 OA
ATOM     18  C   UNL d   1     -39.664  14.101  18.797  0.00  0.00     0.045 C 
ENDBRANCH  15  16
ENDBRANCH  12  15
ENDBRANCH   8  10
ENDBRANCH   1   7
BRANCH   3  19
ATOM     19  C   UNL d   1     -45.770  13.316  22.324  0.00  0.00     0.024 A 
ATOM     20  C   UNL d   1     -46.426  12.913  22.020  0.00  0.00     0.014 A 
ATOM     21  C   UNL d   1     -47.188  13.199  22.176  0.00  0.00     0.068 A 
ATOM     22 CL   UNL d   1     -47.838  12.796  21.872  0.00  0.00    -0.082 Cl
ATOM     23  C   UNL d   1     -47.298  13.881  22.629  0.00  0.00     0.068 A 
ATOM     24  C   UNL d   1     -46.648  14.284  22.933  0.00  0.00     0.012 A 
ATOM     25 CL   UNL d   1     -48.067  14.158  22.778  0.00  0.00    -0.082 Cl
ATOM     26  C   UNL d   1     -45.882  14.006  22.783  0.00  0.00     0.003 A 
ENDBRANCH   3  19
TORSDOF 5
ENDMDL
MODEL 6
REMARK VINA RESULT:      -4.9      4.447      7.716
REMARK  5 active torsions:
REMARK  status: ('A' for Active; 'I' for Inactive)
REMARK    1  A    between atoms: C_4  and  C_1 
REMARK    2  A    between atoms: C_3  and  N_8 
REMARK       I    between atoms: N_8  and  C_4 
REMARK    3  A    between atoms: C_13  and  C_6 
REMARK    4  A    between atoms: C_14  and  C_10 
REMARK    5  A    between atoms: C_20  and  C_14 
ROOT
ATOM      1  C   UNL d   1     -41.348  13.983  20.528  0.00  0.00     0.083 A 
ATOM      2  C   UNL d   1     -41.311  14.056  19.700  0.00  0.00     0.032 A 
ATOM      3  C   UNL d   1     -40.557  14.310  19.503  0.00  0.00     0.100 A 
ATOM      4  C   UNL d   1     -40.603  14.198  20.828  0.00  0.00     0.105 A 
ATOM      5  O   UNL d   1     -40.119  14.399  20.189  0.00  0.00    -0.307 OA
ATOM      6  C   UNL d   1     -40.397  14.204  21.627  0.00  0.00     0.027 C 
ENDROOT
BRANCH   1   7
ATOM      7  C   UNL d   1     -42.002  13.743  20.973  0.00  0.00     0.283 C 
ATOM      8  N   UNL d   1     -42.390  13.049  20.789  0.00  0.00    -0.181 NA
ATOM      9  O   UNL d   1     -42.255  14.213  21.602  0.00  0.00    -0.265 OA
BRANCH   8  10
ATOM     10  C   UNL d   1     -43.042  12.812  21.235  0.00  0.00     0.216 A 
ATOM     11  N   UNL d   1     -43.814  13.042  21.109  0.00  0.00    -0.200 NA
ATOM     12  C   UNL d   1     -44.282  12.681  21.674  0.00  0.00     0.175 A 
ATOM     13  N   UNL d   1     -43.790  12.223  22.152  0.00  0.00    -0.187 NA
ATOM     14  S   UNL d   1     -43.025  12.308  21.877  0.00  0.00     0.054 SA
BRANCH  12  15
ATOM     15  C   UNL d   1     -45.091  12.756  21.754  0.00  0.00     0.082 C 
BRANCH  15  16
ATOM     16  C   UNL d   1     -45.406  13.073  22.445  0.00  0.00     0.199 C 
ATOM     17  O   UNL d   1     -45.410  12.633  23.140  0.00  0.00    -0.286 OA
ATOM     18  C   UNL d   1     -45.717  13.833  22.442  0.00  0.00     0.045 C 
ENDBRANCH  15  16
ENDBRANCH  12  15
ENDBRANCH   8  10
ENDBRANCH   1   7
BRANCH   3  19
ATOM     19  C   UNL d   1     -40.285  14.452  18.744  0.00  0.00     0.024 A 
ATOM     20  C   UNL d   1     -39.777  13.909  18.380  0.00  0.00     0.014 A 
ATOM     21  C   UNL d   1     -39.505  14.058  17.612  0.00  0.00     0.068 A 
ATOM     22 CL   UNL d   1     -39.001  13.516  17.253  0.00  0.00    -0.082 Cl
ATOM     23  C   UNL d   1     -39.735  14.741  17.209  0.00  0.00     0.068 A 
ATOM     24  C   UNL d   1     -40.239  15.283  17.568  0.00  0.00     0.012 A 
ATOM     25 CL   UNL d   1     -39.455  14.879  16.439  0.00  0.00    -0.082 Cl
ATOM     26  C   UNL d   1     -40.518  15.144  18.336  0.00  0.00     0.003 A 
ENDBRANCH   3  19
TORSDOF 5
ENDMDL
MODEL 7
REMARK VINA RESULT:      -4.5      8.753     10.531
REMARK  5 active torsions:
REMARK  status: ('A' for Active; 'I' for Inactive)
REMARK    1  A    between atoms: C_4  and  C_1 
REMARK    2  A    between atoms: C_3  and  N_8 
REMARK       I    between atoms: N_8  and  C_4 
REMARK    3  A    between atoms: C_13  and  C_6 
REMARK    4  A    between atoms: C_14  and  C_10 
REMARK    5  A    between atoms: C_20  and  C_14 
ROOT
ATOM      1  C   UNL d   1     -38.671  13.734  17.907  0.00  0.00     0.083 A 
ATOM      2  C   UNL d   1     -38.696  14.253  17.257  0.00  0.00     0.032 A 
ATOM      3  C   UNL d   1     -38.329  13.883  16.625  0.00  0.00     0.100 A 
ATOM      4  C   UNL d   1     -38.282  13.043  17.655  0.00  0.00     0.105 A 
ATOM      5  O   UNL d   1     -38.074  13.142  16.861  0.00  0.00    -0.307 OA
ATOM      6  C   UNL d   1     -38.138  12.382  18.127  0.00  0.00     0.027 C 
ENDROOT
BRANCH   1   7
ATOM      7  C   UNL d   1     -38.975  13.875  18.663  0.00  0.00     0.283 C 
ATOM      8  N   UNL d   1     -38.534  14.292  19.210  0.00  0.00    -0.181 NA
ATOM      9  O   UNL d   1     -39.724  13.589  18.854  0.00  0.00    -0.265 OA
BRANCH   8  10
ATOM     10  C   UNL d   1     -38.840  14.431  19.963  0.00  0.00     0.216 A 
ATOM     11  N   UNL d   1     -38.720  13.962  20.619  0.00  0.00    -0.200 NA
ATOM     12  C   UNL d   1     -39.120  14.298  21.248  0.00  0.00     0.175 A 
ATOM     13  N   UNL d   1     -39.489  14.983  20.974  0.00  0.00    -0.187 NA
ATOM     14  S   UNL d   1     -39.313  15.059  20.179  0.00  0.00     0.054 SA
BRANCH  12  15
ATOM     15  C   UNL d   1     -39.150  14.012  22.012  0.00  0.00     0.082 C 
BRANCH  15  16
ATOM     16  C   UNL d   1     -38.532  14.170  22.533  0.00  0.00     0.199 C 
ATOM     17  O   UNL d   1     -38.461  14.912  22.880  0.00  0.00    -0.286 OA
ATOM     18  C   UNL d   1     -37.985  13.583  22.707  0.00  0.00     0.045 C 
ENDBRANCH  15  16
ENDBRANCH  12  15
ENDBRANCH   8  10
ENDBRANCH   1   7
BRANCH   3  19
ATOM     19  C   UNL d   1     -38.233  14.201  15.877  0.00  0.00     0.024 A 
ATOM     20  C   UNL d   1     -38.135  13.699  15.225  0.00  0.00     0.014 A 
ATOM     21  C   UNL d   1     -38.038  14.027  14.471  0.00  0.00     0.068 A 
ATOM     22 CL   UNL d   1     -37.941  13.525  13.825  0.00  0.00    -0.082 Cl
ATOM     23  C   UNL d   1     -38.038  14.846  14.363  0.00  0.00     0.068 A 
ATOM     24  C   UNL d   1     -38.135  15.347  15.009  0.00  0.00     0.012 A 
ATOM     25 CL   UNL d   1     -37.940  15.162  13.601  0.00  0.00    -0.082 Cl
ATOM     26  C   UNL d   1     -38.233  15.030  15.768  0.00  0.00     0.003 A 
ENDBRANCH   3  19
TORSDOF 5
ENDMDL
MODEL 8
REMARK VINA RESULT:      -4.5      3.310      6.427
REMARK  5 active torsions:
REMARK  status: ('A' for Active; 'I' for Inactive)
REMARK    1  A    between atoms: C_4  and  C_1 
REMARK    2  A    between atoms: C_3  and  N_8 
REMARK       I    between atoms: N_8  and  C_4 
REMARK    3  A    between atoms: C_13  and  C_6 
REMARK    4  A    between atoms: C_14  and  C_10 
REMARK    5  A    between atoms: C_20  and  C_14 
ROOT
ATOM      1  C   UNL d   1     -43.706  12.957  21.619  0.00  0.00     0.083 A 
ATOM      2  C   UNL d   1     -43.324  13.579  21.219  0.00  0.00     0.032 A 
ATOM      3  C   UNL d   1     -42.522  13.409  21.198  0.00  0.00     0.100 A 
ATOM      4  C   UNL d   1     -43.120  12.410  21.840  0.00  0.00     0.105 A 
ATOM      5  O   UNL d   1     -42.391  12.695  21.576  0.00  0.00    -0.307 OA
ATOM      6  C   UNL d   1     -43.258  11.707  22.250  0.00  0.00     0.027 C 
ENDROOT
BRANCH   1   7
ATOM      7  C   UNL d   1     -44.516  12.893  21.771  0.00  0.00     0.283 C 
ATOM      8  N   UNL d   1     -44.836  13.237  22.438  0.00  0.00    -0.181 NA
ATOM      9  O   UNL d   1     -44.992  12.478  21.240  0.00  0.00    -0.265 OA
BRANCH   8  10
ATOM     10  C   UNL d   1     -45.644  13.171  22.587  0.00  0.00     0.216 A 
ATOM     11  N   UNL d   1     -45.987  12.696  23.154  0.00  0.00    -0.200 NA
ATOM     12  C   UNL d   1     -46.797  12.797  23.115  0.00  0.00     0.175 A 
ATOM     13  N   UNL d   1     -46.953  13.342  22.516  0.00  0.00    -0.187 NA
ATOM     14  S   UNL d   1     -46.237  13.570  22.193  0.00  0.00     0.054 SA
BRANCH  12  15
ATOM     15  C   UNL d   1     -47.355  12.427  23.582  0.00  0.00     0.082 C 
BRANCH  15  16
ATOM     16  C   UNL d   1     -47.825  11.830  23.264  0.00  0.00     0.199 C 
ATOM     17  O   UNL d   1     -47.531  11.065  23.193  0.00  0.00    -0.286 OA
ATOM     18  C   UNL d   1     -48.589  11.998  23.016  0.00  0.00     0.045 C 
ENDBRANCH  15  16
ENDBRANCH  12  15
ENDBRANCH   8  10
ENDBRANCH   1   7
BRANCH   3  19
ATOM     19  C   UNL d   1     -41.945  13.878  20.855  0.00  0.00     0.024 A 
ATOM     20  C   UNL d   1     -41.689  14.565  21.240  0.00  0.00     0.014 A 
ATOM     21  C   UNL d   1     -41.105  15.035  20.889  0.00  0.00     0.068 A 
ATOM     22 CL   UNL d   1     -40.853  15.717  21.274  0.00  0.00    -0.082 Cl
ATOM     23  C   UNL d   1     -40.776  14.825  20.160  0.00  0.00     0.068 A 
ATOM     24  C   UNL d   1     -41.028  14.142  19.775  0.00  0.00     0.012 A 
ATOM     25 CL   UNL d   1     -40.191  15.304  19.818  0.00  0.00    -0.082 Cl
ATOM     26  C   UNL d   1     -41.612  13.665  20.118  0.00  0.00     0.003 A 
ENDBRANCH   3  19
TORSDOF 5
ENDMDL
