MODEL 1
REMARK VINA RESULT:      57.3      0.000      0.000
REMARK  6 active torsions:
REMARK  status: ('A' for Active; 'I' for Inactive)
REMARK    1  A    between atoms: C_6  and  C_1 
REMARK    2  A    between atoms: N_7  and  C_2 
REMARK    3  A    between atoms: C_8  and  N_5 
REMARK    4  A    between atoms: O_13  and  C_6 
REMARK    5  A    between atoms: C_18  and  O_13 
REMARK    6  A    between atoms: O_17  and  C_14 
ROOT
ATOM      1  C   UNL d   1      59.490  49.220  50.962  0.00  0.00     0.112 A 
ATOM      2  C   UNL d   1      60.798  49.219  50.653  0.00  0.00     0.172 A 
ATOM      3  C   UNL d   1      59.728  48.440  50.837  0.00  0.00     0.077 A 
ATOM      4  S   UNL d   1      60.151  49.704  50.849  0.00  0.00    -0.044 SA
ATOM      5  N   UNL d   1      60.536  48.440  50.645  0.00  0.00    -0.287 N 
ATOM      6  C   UNL d   1      59.234  47.774  50.894  0.00  0.00     0.020 C 
ENDROOT
BRANCH   5   7
ATOM      7  C   UNL d   1      61.023  47.795  50.473  0.00  0.00     0.066 A 
ATOM      8  C   UNL d   1      61.161  47.588  49.687  0.00  0.00     0.020 A 
ATOM      9  C   UNL d   1      61.647  46.945  49.519  0.00  0.00     0.026 A 
ATOM     10  C   UNL d   1      61.990  46.514  50.126  0.00  0.00     0.094 A 
ATOM     11  C   UNL d   1      61.849  46.725  50.911  0.00  0.00     0.026 A 
ATOM     12  C   UNL d   1      61.363  47.368  51.080  0.00  0.00     0.020 A 
BRANCH  10  13
ATOM     13  O   UNL d   1      62.481  45.863  49.954  0.00  0.00    -0.328 OA
ATOM     14  C   UNL d   1      62.292  45.362  49.327  0.00  0.00     0.181 C 
ENDBRANCH  10  13
ENDBRANCH   5   7
BRANCH   2  15
ATOM     15  N   UNL d   1      61.566  49.479  50.494  0.00  0.00    -0.277 NA
ATOM     16  H   UNL d   1      61.986  49.161  49.861  0.00  0.00     0.189 HD
ENDBRANCH   2  15
BRANCH   1  17
ATOM     17  C   UNL d   1      58.730  49.472  51.164  0.00  0.00     0.308 C 
ATOM     18  O   UNL d   1      58.521  49.557  51.952  0.00  0.00    -0.258 OA
BRANCH  17  19
ATOM     19  O   UNL d   1      58.178  49.639  50.567  0.00  0.00    -0.271 OA
BRANCH  19  20
ATOM     20  C   UNL d   1      57.376  49.700  50.743  0.00  0.00     0.126 C 
ATOM     21  C   UNL d   1      56.812  49.628  50.145  0.00  0.00     0.029 C 
ENDBRANCH  19  20
ENDBRANCH  17  19
ENDBRANCH   1  17
TORSDOF 6
ENDMDL
