MODEL 1
REMARK VINA RESULT:      38.5      0.000      0.000
REMARK  7 active torsions:
REMARK  status: ('A' for Active; 'I' for Inactive)
REMARK    1  A    between atoms: S_2  and  C_1 
REMARK    2  A    between atoms: C_8  and  S_2 
REMARK    3  A    between atoms: N_16  and  C_6 
REMARK    4  A    between atoms: N_9  and  C_22 
REMARK    5  A    between atoms: C_24  and  N_16 
REMARK    6  A    between atoms: C_22  and  C_23 
REMARK    7  A    between atoms: C_23  and  C_24 
ROOT
ATOM      1  C   UNL d   1     -54.878-101.110 -43.014  0.00  0.00     0.187 A 
ATOM      2  N   UNL d   1     -54.907-100.325 -43.235  0.00  0.00    -0.208 NA
ATOM      3  C   UNL d   1     -54.860-101.573 -43.695  0.00  0.00     0.118 A 
ATOM      4  S   UNL d   1     -54.878-101.070 -44.335  0.00  0.00    -0.035 SA
ATOM      5  C   UNL d   1     -54.908-100.292 -44.055  0.00  0.00     0.196 A 
ATOM      6 CL   UNL d   1     -54.828-102.393 -43.728  0.00  0.00    -0.073 Cl
ENDROOT
BRANCH   1   7
ATOM      7  S   UNL d   1     -54.867-101.391 -42.241  0.00  0.00     0.228 S 
ATOM      8  O   UNL d   1     -54.725-100.641 -41.945  0.00  0.00    -0.216 OA
ATOM      9  O   UNL d   1     -55.011-102.149 -42.540  0.00  0.00    -0.216 OA
BRANCH   7  10
ATOM     10  C   UNL d   1     -54.865-101.716 -41.483  0.00  0.00     0.089 A 
ATOM     11  C   UNL d   1     -54.722-101.247 -40.827  0.00  0.00     0.011 A 
ATOM     12  C   UNL d   1     -54.720-101.573 -40.069  0.00  0.00     0.001 A 
ATOM     13  C   UNL d   1     -54.864-102.383 -39.969  0.00  0.00     0.000 A 
ATOM     14  C   UNL d   1     -55.009-102.860 -40.627  0.00  0.00     0.001 A 
ATOM     15  C   UNL d   1     -54.864-102.716 -39.212  0.00  0.00     0.000 C 
ATOM     16  C   UNL d   1     -55.011-102.535 -41.385  0.00  0.00     0.011 A 
ENDBRANCH   7  10
ENDBRANCH   1   7
BRANCH   5  17
ATOM     17  N   UNL d   1     -54.934 -99.605 -44.514  0.00  0.00    -0.220 NA
BRANCH  17  18
ATOM     18  C   UNL d   1     -55.207 -98.902 -44.178  0.00  0.00     0.103 C 
BRANCH  18  19
ATOM     19  C   UNL d   1     -56.020 -98.775 -44.105  0.00  0.00     0.040 C 
BRANCH  19  20
ATOM     20  C   UNL d   1     -56.535 -99.097 -44.664  0.00  0.00     0.083 C 
BRANCH  20  21
ATOM     21  N   UNL d   1     -57.346 -99.047 -44.542  0.00  0.00    -0.285 N 
ATOM     22  C   UNL d   1     -57.929 -99.278 -45.066  0.00  0.00     0.183 A 
ATOM     23  N   UNL d   1     -58.659 -99.129 -44.718  0.00  0.00    -0.222 NA
ATOM     24  C   UNL d   1     -58.522 -98.808 -43.981  0.00  0.00     0.120 A 
ATOM     25  C   UNL d   1     -57.708 -98.755 -43.867  0.00  0.00     0.102 A 
ENDBRANCH  20  21
ENDBRANCH  19  20
ENDBRANCH  18  19
ENDBRANCH  17  18
ENDBRANCH   5  17
TORSDOF 7
ENDMDL
