MODEL 1
REMARK VINA RESULT:      -7.6      0.000      0.000
REMARK  2 active torsions:
REMARK  status: ('A' for Active; 'I' for Inactive)
REMARK    1  A    between atoms: C_3  and  C_1 
REMARK       I    between atoms: N_6  and  C_3 
REMARK    2  A    between atoms: C_9  and  N_7 
ROOT
ATOM      1  C   UNL d   1     -40.530  14.277  18.620  0.00  0.00     0.270 C 
ATOM      2  N   UNL d   1     -40.234  14.446  19.359  0.00  0.00    -0.269 N 
ATOM      3  N   UNL d   1     -39.607  14.796  20.873  0.00  0.00    -0.286 N 
ATOM      4  O   UNL d   1     -41.337  14.045  18.540  0.00  0.00    -0.266 OA
ATOM      5  C   UNL d   1     -39.431  14.676  19.438  0.00  0.00     0.102 A 
ATOM      6  C   UNL d   1     -40.705  14.396  20.046  0.00  0.00     0.102 A 
ATOM      7  C   UNL d   1     -39.130  14.849  20.202  0.00  0.00     0.101 A 
ATOM      8  C   UNL d   1     -40.410  14.565  20.793  0.00  0.00     0.101 A 
ENDROOT
BRANCH   1   9
ATOM      9  C   UNL d   1     -40.044  14.331  17.935  0.00  0.00     0.120 A 
ATOM     10  C   UNL d   1     -40.151  14.976  17.396  0.00  0.00     0.305 A 
ATOM     11  O   UNL d   1     -39.676  15.026  16.731  0.00  0.00    -0.273 OA
ATOM     12  O   UNL d   1     -40.742  15.558  17.550  0.00  0.00    -0.259 OA
ATOM     13  C   UNL d   1     -39.098  14.464  16.573  0.00  0.00     0.103 A 
ATOM     14  C   UNL d   1     -38.991  13.819  17.112  0.00  0.00     0.023 A 
ATOM     15  C   UNL d   1     -38.619  14.511  15.904  0.00  0.00     0.025 A 
ATOM     16  C   UNL d   1     -39.468  13.771  17.778  0.00  0.00     0.012 A 
ATOM     17  C   UNL d   1     -38.411  13.256  16.952  0.00  0.00     0.002 A 
ATOM     18  C   UNL d   1     -37.940  13.307  16.290  0.00  0.00     0.000 A 
ATOM     19  C   UNL d   1     -38.046  13.952  15.751  0.00  0.00     0.002 A 
ENDBRANCH   1   9
BRANCH   3  20
ATOM     20  C   UNL d   1     -39.303  14.967  21.616  0.00  0.00     0.148 A 
ATOM     21  N   UNL d   1     -39.029  14.344  22.107  0.00  0.00    -0.227 NA
ATOM     22  C   UNL d   1     -38.719  14.506  22.863  0.00  0.00     0.101 A 
ATOM     23  C   UNL d   1     -38.688  15.294  23.121  0.00  0.00     0.021 A 
ATOM     24  C   UNL d   1     -38.963  15.916  22.630  0.00  0.00     0.005 A 
ATOM     25  C   UNL d   1     -39.266  15.746  21.886  0.00  0.00     0.037 A 
ENDBRANCH   3  20
TORSDOF 2
ENDMDL
MODEL 2
REMARK VINA RESULT:      -7.4      7.882      9.661
REMARK  2 active torsions:
REMARK  status: ('A' for Active; 'I' for Inactive)
REMARK    1  A    between atoms: C_3  and  C_1 
REMARK       I    between atoms: N_6  and  C_3 
REMARK    2  A    between atoms: C_9  and  N_7 
ROOT
ATOM      1  C   UNL d   1     -48.004  14.358  22.753  0.00  0.00     0.270 C 
ATOM      2  N   UNL d   1     -47.283  13.998  22.635  0.00  0.00    -0.269 N 
ATOM      3  N   UNL d   1     -45.809  13.243  22.387  0.00  0.00    -0.286 N 
ATOM      4  O   UNL d   1     -48.030  15.175  22.960  0.00  0.00    -0.266 OA
ATOM      5  C   UNL d   1     -47.257  13.185  22.429  0.00  0.00     0.102 A 
ATOM      6  C   UNL d   1     -46.564  14.415  22.711  0.00  0.00     0.102 A 
ATOM      7  C   UNL d   1     -46.512  12.819  22.308  0.00  0.00     0.101 A 
ATOM      8  C   UNL d   1     -45.835  14.056  22.592  0.00  0.00     0.101 A 
ENDROOT
BRANCH   1   9
ATOM      9  C   UNL d   1     -48.722  13.927  22.673  0.00  0.00     0.120 A 
ATOM     10  C   UNL d   1     -49.231  14.082  22.014  0.00  0.00     0.305 A 
ATOM     11  O   UNL d   1     -49.929  13.661  21.939  0.00  0.00    -0.273 OA
ATOM     12  O   UNL d   1     -49.014  14.666  21.445  0.00  0.00    -0.259 OA
ATOM     13  C   UNL d   1     -50.147  13.091  22.488  0.00  0.00     0.103 A 
ATOM     14  C   UNL d   1     -49.638  12.935  23.148  0.00  0.00     0.023 A 
ATOM     15  C   UNL d   1     -50.850  12.665  22.416  0.00  0.00     0.025 A 
ATOM     16  C   UNL d   1     -48.939  13.359  23.221  0.00  0.00     0.012 A 
ATOM     17  C   UNL d   1     -49.860  12.363  23.698  0.00  0.00     0.002 A 
ATOM     18  C   UNL d   1     -50.554  11.945  23.622  0.00  0.00     0.000 A 
ATOM     19  C   UNL d   1     -51.063  12.100  22.963  0.00  0.00     0.002 A 
ENDBRANCH   1   9
BRANCH   3  20
ATOM     20  C   UNL d   1     -45.084  12.875  22.266  0.00  0.00     0.148 A 
ATOM     21  N   UNL d   1     -44.865  12.219  22.741  0.00  0.00    -0.227 NA
ATOM     22  C   UNL d   1     -44.132  11.839  22.628  0.00  0.00     0.101 A 
ATOM     23  C   UNL d   1     -43.625  12.123  22.036  0.00  0.00     0.021 A 
ATOM     24  C   UNL d   1     -43.844  12.779  21.561  0.00  0.00     0.005 A 
ATOM     25  C   UNL d   1     -44.569  13.146  21.682  0.00  0.00     0.037 A 
ENDBRANCH   3  20
TORSDOF 2
ENDMDL
MODEL 3
REMARK VINA RESULT:      -7.3      7.936      9.702
REMARK  2 active torsions:
REMARK  status: ('A' for Active; 'I' for Inactive)
REMARK    1  A    between atoms: C_3  and  C_1 
REMARK       I    between atoms: N_6  and  C_3 
REMARK    2  A    between atoms: C_9  and  N_7 
ROOT
ATOM      1  C   UNL d   1     -47.388  13.551  22.326  0.00  0.00     0.270 C 
ATOM      2  N   UNL d   1     -46.812  13.010  22.522  0.00  0.00    -0.269 N 
ATOM      3  N   UNL d   1     -45.639  11.887  22.935  0.00  0.00    -0.286 N 
ATOM      4  O   UNL d   1     -47.202  14.182  21.799  0.00  0.00    -0.266 OA
ATOM      5  C   UNL d   1     -46.997  12.382  23.047  0.00  0.00     0.102 A 
ATOM      6  C   UNL d   1     -46.037  13.059  22.215  0.00  0.00     0.102 A 
ATOM      7  C   UNL d   1     -46.401  11.827  23.246  0.00  0.00     0.101 A 
ATOM      8  C   UNL d   1     -45.454  12.515  22.410  0.00  0.00     0.101 A 
ENDROOT
BRANCH   1   9
ATOM      9  C   UNL d   1     -48.165  13.491  22.643  0.00  0.00     0.120 A 
ATOM     10  C   UNL d   1     -48.462  14.107  23.142  0.00  0.00     0.305 A 
ATOM     11  O   UNL d   1     -49.219  14.045  23.448  0.00  0.00    -0.273 OA
ATOM     12  O   UNL d   1     -47.978  14.775  23.318  0.00  0.00    -0.259 OA
ATOM     13  C   UNL d   1     -49.697  13.398  23.282  0.00  0.00     0.103 A 
ATOM     14  C   UNL d   1     -49.401  12.782  22.783  0.00  0.00     0.023 A 
ATOM     15  C   UNL d   1     -50.460  13.333  23.589  0.00  0.00     0.025 A 
ATOM     16  C   UNL d   1     -48.641  12.846  22.477  0.00  0.00     0.012 A 
ATOM     17  C   UNL d   1     -49.883  12.134  22.618  0.00  0.00     0.002 A 
ATOM     18  C   UNL d   1     -50.635  12.074  22.923  0.00  0.00     0.000 A 
ATOM     19  C   UNL d   1     -50.932  12.690  23.422  0.00  0.00     0.002 A 
ENDBRANCH   1   9
BRANCH   3  20
ATOM     20  C   UNL d   1     -45.061  11.339  23.135  0.00  0.00     0.148 A 
ATOM     21  N   UNL d   1     -44.255  11.503  22.970  0.00  0.00    -0.227 NA
ATOM     22  C   UNL d   1     -43.661  10.955  23.169  0.00  0.00     0.101 A 
ATOM     23  C   UNL d   1     -43.883  10.243  23.533  0.00  0.00     0.021 A 
ATOM     24  C   UNL d   1     -44.689  10.078  23.697  0.00  0.00     0.005 A 
ATOM     25  C   UNL d   1     -45.267  10.626  23.497  0.00  0.00     0.037 A 
ENDBRANCH   3  20
TORSDOF 2
ENDMDL
MODEL 4
REMARK VINA RESULT:      -6.8      1.468      4.764
REMARK  2 active torsions:
REMARK  status: ('A' for Active; 'I' for Inactive)
REMARK    1  A    between atoms: C_3  and  C_1 
REMARK       I    between atoms: N_6  and  C_3 
REMARK    2  A    between atoms: C_9  and  N_7 
ROOT
ATOM      1  C   UNL d   1     -40.454  14.464  20.362  0.00  0.00     0.270 C 
ATOM      2  N   UNL d   1     -40.108  14.445  19.626  0.00  0.00    -0.269 N 
ATOM      3  N   UNL d   1     -39.379  14.405  18.118  0.00  0.00    -0.286 N 
ATOM      4  O   UNL d   1     -41.294  14.424  20.426  0.00  0.00    -0.266 OA
ATOM      5  C   UNL d   1     -39.272  14.485  19.562  0.00  0.00     0.102 A 
ATOM      6  C   UNL d   1     -40.560  14.385  18.926  0.00  0.00     0.102 A 
ATOM      7  C   UNL d   1     -38.920  14.465  18.801  0.00  0.00     0.101 A 
ATOM      8  C   UNL d   1     -40.214  14.365  18.182  0.00  0.00     0.101 A 
ENDROOT
BRANCH   1   9
ATOM      9  C   UNL d   1     -39.987  14.525  21.060  0.00  0.00     0.120 A 
ATOM     10  C   UNL d   1     -39.959  15.259  21.481  0.00  0.00     0.305 A 
ATOM     11  O   UNL d   1     -39.504  15.314  22.160  0.00  0.00    -0.273 OA
ATOM     12  O   UNL d   1     -40.398  15.922  21.200  0.00  0.00    -0.259 OA
ATOM     13  C   UNL d   1     -39.073  14.674  22.441  0.00  0.00     0.103 A 
ATOM     14  C   UNL d   1     -39.101  13.940  22.019  0.00  0.00     0.023 A 
ATOM     15  C   UNL d   1     -38.613  14.727  23.124  0.00  0.00     0.025 A 
ATOM     16  C   UNL d   1     -39.558  13.886  21.339  0.00  0.00     0.012 A 
ATOM     17  C   UNL d   1     -38.667  13.298  22.303  0.00  0.00     0.002 A 
ATOM     18  C   UNL d   1     -38.215  13.355  22.977  0.00  0.00     0.000 A 
ATOM     19  C   UNL d   1     -38.187  14.089  23.399  0.00  0.00     0.002 A 
ENDBRANCH   1   9
BRANCH   3  20
ATOM     20  C   UNL d   1     -39.025  14.386  17.377  0.00  0.00     0.148 A 
ATOM     21  N   UNL d   1     -38.978  15.087  16.919  0.00  0.00    -0.227 NA
ATOM     22  C   UNL d   1     -38.622  15.079  16.166  0.00  0.00     0.101 A 
ATOM     23  C   UNL d   1     -38.313  14.364  15.880  0.00  0.00     0.021 A 
ATOM     24  C   UNL d   1     -38.360  13.663  16.338  0.00  0.00     0.005 A 
ATOM     25  C   UNL d   1     -38.713  13.682  17.079  0.00  0.00     0.037 A 
ENDBRANCH   3  20
TORSDOF 2
ENDMDL
MODEL 5
REMARK VINA RESULT:      -6.6      7.335      9.165
REMARK  2 active torsions:
REMARK  status: ('A' for Active; 'I' for Inactive)
REMARK    1  A    between atoms: C_3  and  C_1 
REMARK       I    between atoms: N_6  and  C_3 
REMARK    2  A    between atoms: C_9  and  N_7 
ROOT
ATOM      1  C   UNL d   1     -47.599  12.337  23.146  0.00  0.00     0.270 C 
ATOM      2  N   UNL d   1     -46.832  12.397  22.880  0.00  0.00    -0.269 N 
ATOM      3  N   UNL d   1     -45.258  12.534  22.323  0.00  0.00    -0.286 N 
ATOM      4  O   UNL d   1     -47.800  11.732  23.698  0.00  0.00    -0.266 OA
ATOM      5  C   UNL d   1     -46.632  12.999  22.332  0.00  0.00     0.102 A 
ATOM      6  C   UNL d   1     -46.233  11.874  23.137  0.00  0.00     0.102 A 
ATOM      7  C   UNL d   1     -45.840  13.057  22.060  0.00  0.00     0.101 A 
ATOM      8  C   UNL d   1     -45.458  11.932  22.871  0.00  0.00     0.101 A 
ENDROOT
BRANCH   1   9
ATOM      9  C   UNL d   1     -48.193  12.870  22.880  0.00  0.00     0.120 A 
ATOM     10  C   UNL d   1     -48.782  12.599  22.334  0.00  0.00     0.305 A 
ATOM     11  O   UNL d   1     -49.359  13.120  22.076  0.00  0.00    -0.273 OA
ATOM     12  O   UNL d   1     -48.768  11.800  22.062  0.00  0.00    -0.259 OA
ATOM     13  C   UNL d   1     -49.380  13.899  22.335  0.00  0.00     0.103 A 
ATOM     14  C   UNL d   1     -48.791  14.170  22.881  0.00  0.00     0.023 A 
ATOM     15  C   UNL d   1     -49.960  14.427  22.077  0.00  0.00     0.025 A 
ATOM     16  C   UNL d   1     -48.214  13.646  23.138  0.00  0.00     0.012 A 
ATOM     17  C   UNL d   1     -48.815  14.952  23.139  0.00  0.00     0.002 A 
ATOM     18  C   UNL d   1     -49.389  15.469  22.882  0.00  0.00     0.000 A 
ATOM     19  C   UNL d   1     -49.977  15.199  22.336  0.00  0.00     0.002 A 
ENDBRANCH   1   9
BRANCH   3  20
ATOM     20  C   UNL d   1     -44.485  12.598  22.051  0.00  0.00     0.148 A 
ATOM     21  N   UNL d   1     -43.913  12.032  22.286  0.00  0.00    -0.227 NA
ATOM     22  C   UNL d   1     -43.127  12.087  22.017  0.00  0.00     0.101 A 
ATOM     23  C   UNL d   1     -42.921  12.713  21.513  0.00  0.00     0.021 A 
ATOM     24  C   UNL d   1     -43.494  13.280  21.279  0.00  0.00     0.005 A 
ATOM     25  C   UNL d   1     -44.267  13.215  21.550  0.00  0.00     0.037 A 
ENDBRANCH   3  20
TORSDOF 2
ENDMDL
MODEL 6
REMARK VINA RESULT:      -5.7      1.330      2.140
REMARK  2 active torsions:
REMARK  status: ('A' for Active; 'I' for Inactive)
REMARK    1  A    between atoms: C_3  and  C_1 
REMARK       I    between atoms: N_6  and  C_3 
REMARK    2  A    between atoms: C_9  and  N_7 
ROOT
ATOM      1  C   UNL d   1     -38.748  13.764  18.406  0.00  0.00     0.270 C 
ATOM      2  N   UNL d   1     -38.696  13.850  19.214  0.00  0.00    -0.269 N 
ATOM      3  N   UNL d   1     -38.600  14.042  20.875  0.00  0.00    -0.286 N 
ATOM      4  O   UNL d   1     -38.352  13.121  18.032  0.00  0.00    -0.266 OA
ATOM      5  C   UNL d   1     -39.090  14.491  19.586  0.00  0.00     0.102 A 
ATOM      6  C   UNL d   1     -38.260  13.319  19.688  0.00  0.00     0.102 A 
ATOM      7  C   UNL d   1     -39.034  14.575  20.419  0.00  0.00     0.101 A 
ATOM      8  C   UNL d   1     -38.206  13.402  20.503  0.00  0.00     0.101 A 
ENDROOT
BRANCH   1   9
ATOM      9  C   UNL d   1     -39.190  14.307  17.939  0.00  0.00     0.120 A 
ATOM     10  C   UNL d   1     -38.783  14.868  17.452  0.00  0.00     0.305 A 
ATOM     11  O   UNL d   1     -39.217  15.395  17.000  0.00  0.00    -0.273 OA
ATOM     12  O   UNL d   1     -37.939  14.878  17.439  0.00  0.00    -0.259 OA
ATOM     13  C   UNL d   1     -40.038  15.392  17.007  0.00  0.00     0.103 A 
ATOM     14  C   UNL d   1     -40.445  14.832  17.494  0.00  0.00     0.023 A 
ATOM     15  C   UNL d   1     -40.478  15.922  16.552  0.00  0.00     0.025 A 
ATOM     16  C   UNL d   1     -40.009  14.304  17.947  0.00  0.00     0.012 A 
ATOM     17  C   UNL d   1     -41.270  14.831  17.500  0.00  0.00     0.002 A 
ATOM     18  C   UNL d   1     -41.699  15.356  17.049  0.00  0.00     0.000 A 
ATOM     19  C   UNL d   1     -41.292  15.916  16.562  0.00  0.00     0.002 A 
ENDBRANCH   1   9
BRANCH   3  20
ATOM     20  C   UNL d   1     -38.551  14.133  21.690  0.00  0.00     0.148 A 
ATOM     21  N   UNL d   1     -38.442  14.898  22.018  0.00  0.00    -0.227 NA
ATOM     22  C   UNL d   1     -38.391  15.002  22.843  0.00  0.00     0.101 A 
ATOM     23  C   UNL d   1     -38.449  14.335  23.333  0.00  0.00     0.021 A 
ATOM     24  C   UNL d   1     -38.557  13.570  23.004  0.00  0.00     0.005 A 
ATOM     25  C   UNL d   1     -38.606  13.479  22.189  0.00  0.00     0.037 A 
ENDBRANCH   3  20
TORSDOF 2
ENDMDL
MODEL 7
REMARK VINA RESULT:      -5.6      7.635      9.412
REMARK  2 active torsions:
REMARK  status: ('A' for Active; 'I' for Inactive)
REMARK    1  A    between atoms: C_3  and  C_1 
REMARK       I    between atoms: N_6  and  C_3 
REMARK    2  A    between atoms: C_9  and  N_7 
ROOT
ATOM      1  C   UNL d   1     -46.287  13.624  22.946  0.00  0.00     0.270 C 
ATOM      2  N   UNL d   1     -47.071  13.557  22.735  0.00  0.00    -0.269 N 
ATOM      3  N   UNL d   1     -48.681  13.404  22.300  0.00  0.00    -0.286 N 
ATOM      4  O   UNL d   1     -45.981  14.375  23.174  0.00  0.00    -0.266 OA
ATOM      5  C   UNL d   1     -47.375  12.809  22.508  0.00  0.00     0.102 A 
ATOM      6  C   UNL d   1     -47.586  14.215  22.738  0.00  0.00     0.102 A 
ATOM      7  C   UNL d   1     -48.183  12.746  22.292  0.00  0.00     0.101 A 
ATOM      8  C   UNL d   1     -48.377  14.152  22.527  0.00  0.00     0.101 A 
ENDROOT
BRANCH   1   9
ATOM      9  C   UNL d   1     -45.778  12.953  22.939  0.00  0.00     0.120 A 
ATOM     10  C   UNL d   1     -45.036  12.997  22.533  0.00  0.00     0.305 A 
ATOM     11  O   UNL d   1     -44.543  12.343  22.528  0.00  0.00    -0.273 OA
ATOM     12  O   UNL d   1     -44.813  13.709  22.140  0.00  0.00    -0.259 OA
ATOM     13  C   UNL d   1     -44.752  11.645  22.908  0.00  0.00     0.103 A 
ATOM     14  C   UNL d   1     -45.494  11.602  23.314  0.00  0.00     0.023 A 
ATOM     15  C   UNL d   1     -44.258  10.985  22.905  0.00  0.00     0.025 A 
ATOM     16  C   UNL d   1     -45.987  12.259  23.318  0.00  0.00     0.012 A 
ATOM     17  C   UNL d   1     -45.702  10.901  23.695  0.00  0.00     0.002 A 
ATOM     18  C   UNL d   1     -45.211  10.251  23.689  0.00  0.00     0.000 A 
ATOM     19  C   UNL d   1     -44.469  10.295  23.283  0.00  0.00     0.002 A 
ENDBRANCH   1   9
BRANCH   3  20
ATOM     20  C   UNL d   1     -49.471  13.332  22.087  0.00  0.00     0.148 A 
ATOM     21  N   UNL d   1     -49.821  13.906  21.585  0.00  0.00    -0.227 NA
ATOM     22  C   UNL d   1     -50.621  13.844  21.363  0.00  0.00     0.101 A 
ATOM     23  C   UNL d   1     -51.065  13.203  21.647  0.00  0.00     0.021 A 
ATOM     24  C   UNL d   1     -50.715  12.629  22.149  0.00  0.00     0.005 A 
ATOM     25  C   UNL d   1     -49.924  12.700  22.362  0.00  0.00     0.037 A 
ENDBRANCH   3  20
TORSDOF 2
ENDMDL
