MODEL 1
REMARK VINA RESULT:      -7.1      0.000      0.000
REMARK  6 active torsions:
REMARK  status: ('A' for Active; 'I' for Inactive)
REMARK    1  A    between atoms: C_2  and  N_1 
REMARK    2  A    between atoms: C_6  and  C_2 
REMARK    3  A    between atoms: O_5  and  C_12 
REMARK    4  A    between atoms: C_11  and  O_5 
REMARK    5  A    between atoms: C_12  and  C_9 
REMARK    6  A    between atoms: C_10  and  C_11 
ROOT
ATOM      1  N   UNL d   1      52.976  32.763  53.251  0.00  0.00    -0.302 N 
ATOM      2  C   UNL d   1      52.728  33.127  53.951  0.00  0.00     0.080 A 
ATOM      3  C   UNL d   1      52.625  32.971  52.531  0.00  0.00     0.080 A 
ATOM      4  C   UNL d   1      52.138  33.692  53.936  0.00  0.00     0.021 A 
ATOM      5  C   UNL d   1      52.029  33.541  52.511  0.00  0.00     0.021 A 
ATOM      6  C   UNL d   1      51.781  33.907  53.220  0.00  0.00     0.028 A 
ENDROOT
BRANCH   6   7
ATOM      7  C   UNL d   1      51.186  34.477  53.200  0.00  0.00     0.123 C 
BRANCH   7   8
ATOM      8  O   UNL d   1      50.512  34.359  52.728  0.00  0.00    -0.303 OA
BRANCH   8   9
ATOM      9  C   UNL d   1      49.816  34.754  52.893  0.00  0.00     0.123 C 
BRANCH   9  10
ATOM     10  C   UNL d   1      49.245  34.853  52.310  0.00  0.00     0.025 A 
ATOM     11  C   UNL d   1      49.355  34.509  51.573  0.00  0.00     0.002 A 
ATOM     12  C   UNL d   1      48.783  34.608  50.990  0.00  0.00     0.000 A 
ATOM     13  C   UNL d   1      48.102  35.050  51.144  0.00  0.00     0.000 A 
ATOM     14  C   UNL d   1      48.000  35.393  51.890  0.00  0.00     0.000 A 
ATOM     15  C   UNL d   1      48.572  35.294  52.473  0.00  0.00     0.002 A 
ENDBRANCH   9  10
ENDBRANCH   8   9
ENDBRANCH   7   8
ENDBRANCH   6   7
BRANCH   1  16
ATOM     16  C   UNL d   1      53.567  32.199  53.276  0.00  0.00     0.080 C 
BRANCH  16  17
ATOM     17  C   UNL d   1      53.377  31.402  53.378  0.00  0.00     0.018 A 
ATOM     18  C   UNL d   1      53.510  31.034  54.111  0.00  0.00     0.002 A 
ATOM     19  C   UNL d   1      53.319  30.234  54.213  0.00  0.00     0.000 A 
ATOM     20  C   UNL d   1      52.997  29.804  53.586  0.00  0.00     0.000 A 
ATOM     21  C   UNL d   1      52.864  30.171  52.858  0.00  0.00     0.000 A 
ATOM     22  C   UNL d   1      53.053  30.969  52.751  0.00  0.00     0.002 A 
ENDBRANCH  16  17
ENDBRANCH   1  16
TORSDOF 6
ENDMDL
MODEL 2
REMARK VINA RESULT:      -7.1      1.662      5.571
REMARK  6 active torsions:
REMARK  status: ('A' for Active; 'I' for Inactive)
REMARK    1  A    between atoms: C_2  and  N_1 
REMARK    2  A    between atoms: C_6  and  C_2 
REMARK    3  A    between atoms: O_5  and  C_12 
REMARK    4  A    between atoms: C_11  and  O_5 
REMARK    5  A    between atoms: C_12  and  C_9 
REMARK    6  A    between atoms: C_10  and  C_11 
ROOT
ATOM      1  N   UNL d   1      49.660  34.423  52.402  0.00  0.00    -0.302 N 
ATOM      2  C   UNL d   1      50.008  34.480  53.150  0.00  0.00     0.080 A 
ATOM      3  C   UNL d   1      50.136  34.347  51.729  0.00  0.00     0.080 A 
ATOM      4  C   UNL d   1      50.821  34.461  53.229  0.00  0.00     0.021 A 
ATOM      5  C   UNL d   1      50.958  34.327  51.804  0.00  0.00     0.021 A 
ATOM      6  C   UNL d   1      51.306  34.385  52.561  0.00  0.00     0.028 A 
ENDROOT
BRANCH   6   7
ATOM      7  C   UNL d   1      52.127  34.365  52.637  0.00  0.00     0.123 C 
BRANCH   7   8
ATOM      8  O   UNL d   1      52.477  33.939  53.258  0.00  0.00    -0.303 OA
BRANCH   8   9
ATOM      9  C   UNL d   1      53.287  33.824  53.277  0.00  0.00     0.123 C 
BRANCH   9  10
ATOM     10  C   UNL d   1      53.645  33.497  53.940  0.00  0.00     0.025 A 
ATOM     11  C   UNL d   1      53.633  32.683  54.047  0.00  0.00     0.002 A 
ATOM     12  C   UNL d   1      53.992  32.355  54.710  0.00  0.00     0.000 A 
ATOM     13  C   UNL d   1      54.364  32.841  55.266  0.00  0.00     0.000 A 
ATOM     14  C   UNL d   1      54.371  33.660  55.150  0.00  0.00     0.000 A 
ATOM     15  C   UNL d   1      54.012  33.988  54.486  0.00  0.00     0.002 A 
ENDBRANCH   9  10
ENDBRANCH   8   9
ENDBRANCH   7   8
ENDBRANCH   6   7
BRANCH   1  16
ATOM     16  C   UNL d   1      48.845  34.443  52.331  0.00  0.00     0.080 C 
BRANCH  16  17
ATOM     17  C   UNL d   1      48.442  35.162  52.370  0.00  0.00     0.018 A 
ATOM     18  C   UNL d   1      48.122  35.497  51.680  0.00  0.00     0.002 A 
ATOM     19  C   UNL d   1      47.717  36.219  51.720  0.00  0.00     0.000 A 
ATOM     20  C   UNL d   1      47.633  36.604  52.445  0.00  0.00     0.000 A 
ATOM     21  C   UNL d   1      47.952  36.272  53.130  0.00  0.00     0.000 A 
ATOM     22  C   UNL d   1      48.357  35.551  53.096  0.00  0.00     0.002 A 
ENDBRANCH  16  17
ENDBRANCH   1  16
TORSDOF 6
ENDMDL
MODEL 3
REMARK VINA RESULT:      -7.0      2.202      6.057
REMARK  6 active torsions:
REMARK  status: ('A' for Active; 'I' for Inactive)
REMARK    1  A    between atoms: C_2  and  N_1 
REMARK    2  A    between atoms: C_6  and  C_2 
REMARK    3  A    between atoms: O_5  and  C_12 
REMARK    4  A    between atoms: C_11  and  O_5 
REMARK    5  A    between atoms: C_12  and  C_9 
REMARK    6  A    between atoms: C_10  and  C_11 
ROOT
ATOM      1  N   UNL d   1      47.945  35.785  52.205  0.00  0.00    -0.302 N 
ATOM      2  C   UNL d   1      48.375  35.729  52.909  0.00  0.00     0.080 A 
ATOM      3  C   UNL d   1      48.163  35.327  51.550  0.00  0.00     0.080 A 
ATOM      4  C   UNL d   1      49.015  35.223  52.963  0.00  0.00     0.021 A 
ATOM      5  C   UNL d   1      48.808  34.815  51.601  0.00  0.00     0.021 A 
ATOM      6  C   UNL d   1      49.240  34.761  52.313  0.00  0.00     0.028 A 
ENDROOT
BRANCH   6   7
ATOM      7  C   UNL d   1      49.885  34.249  52.364  0.00  0.00     0.123 C 
BRANCH   7   8
ATOM      8  O   UNL d   1      50.580  34.492  52.749  0.00  0.00    -0.303 OA
BRANCH   8   9
ATOM      9  C   UNL d   1      51.285  34.101  52.616  0.00  0.00     0.123 C 
BRANCH   9  10
ATOM     10  C   UNL d   1      51.913  34.184  53.140  0.00  0.00     0.025 A 
ATOM     11  C   UNL d   1      52.105  33.566  53.644  0.00  0.00     0.002 A 
ATOM     12  C   UNL d   1      52.733  33.649  54.169  0.00  0.00     0.000 A 
ATOM     13  C   UNL d   1      53.169  34.352  54.189  0.00  0.00     0.000 A 
ATOM     14  C   UNL d   1      52.967  34.970  53.678  0.00  0.00     0.000 A 
ATOM     15  C   UNL d   1      52.339  34.886  53.153  0.00  0.00     0.002 A 
ENDBRANCH   9  10
ENDBRANCH   8   9
ENDBRANCH   7   8
ENDBRANCH   6   7
BRANCH   1  16
ATOM     16  C   UNL d   1      47.307  36.294  52.160  0.00  0.00     0.080 C 
BRANCH  16  17
ATOM     17  C   UNL d   1      46.543  36.016  52.300  0.00  0.00     0.018 A 
ATOM     18  C   UNL d   1      46.233  36.023  53.071  0.00  0.00     0.002 A 
ATOM     19  C   UNL d   1      45.466  35.743  53.211  0.00  0.00     0.000 A 
ATOM     20  C   UNL d   1      45.011  35.458  52.584  0.00  0.00     0.000 A 
ATOM     21  C   UNL d   1      45.319  35.452  51.818  0.00  0.00     0.000 A 
ATOM     22  C   UNL d   1      46.084  35.730  51.673  0.00  0.00     0.002 A 
ENDBRANCH  16  17
ENDBRANCH   1  16
TORSDOF 6
ENDMDL
