MODEL 1
REMARK VINA RESULT:      -3.4      0.000      0.000
REMARK  5 active torsions:
REMARK  status: ('A' for Active; 'I' for Inactive)
REMARK    1  A    between atoms: O_8  and  S_1 
REMARK    2  A    between atoms: C_13  and  S_1 
REMARK    3  A    between atoms: C_7  and  C_2 
REMARK    4  A    between atoms: C_18  and  C_7 
REMARK    5  A    between atoms: C_14  and  O_8 
ROOT
ATOM      1  C   UNL d   1      33.218  21.189 -21.622  0.00  0.00     0.139 A 
ATOM      2  C   UNL d   1      33.166  19.881 -21.858  0.00  0.00     0.064 A 
ATOM      3  C   UNL d   1      33.178  20.447 -21.262  0.00  0.00     0.220 A 
ATOM      4  C   UNL d   1      33.198  20.267 -22.587  0.00  0.00     0.105 A 
ATOM      5  O   UNL d   1      33.230  21.078 -22.440  0.00  0.00    -0.304 OA
ATOM      6  C   UNL d   1      33.194  19.830 -23.275  0.00  0.00     0.050 A 
ATOM      7  C   UNL d   1      33.130  19.059 -21.828  0.00  0.00     0.007 A 
ATOM      8  C   UNL d   1      33.157  19.008 -23.245  0.00  0.00     0.116 A 
ATOM      9  O   UNL d   1      33.155  20.309 -20.450  0.00  0.00    -0.284 OA
ATOM     10  C   UNL d   1      33.126  18.626 -22.523  0.00  0.00     0.026 A 
ENDROOT
BRANCH   8  11
ATOM     11  O   UNL d   1      33.153  18.571 -23.942  0.00  0.00    -0.227 OA
BRANCH  11  12
ATOM     12  S   UNL d   1      32.476  18.156 -24.166  0.00  0.00     0.304 S 
ATOM     13  O   UNL d   1      32.664  17.550 -23.659  0.00  0.00    -0.193 OA
ATOM     14  O   UNL d   1      32.277  18.756 -24.677  0.00  0.00    -0.193 OA
BRANCH  12  15
ATOM     15  C   UNL d   1      31.797  17.744 -24.393  0.00  0.00     0.111 A 
ATOM     16  C   UNL d   1      31.071  18.143 -24.457  0.00  0.00     0.013 A 
ATOM     17  C   UNL d   1      30.392  17.733 -24.684  0.00  0.00     0.001 A 
ATOM     18  C   UNL d   1      30.433  16.919 -24.849  0.00  0.00     0.000 A 
ATOM     19  C   UNL d   1      31.160  16.527 -24.783  0.00  0.00     0.001 A 
ATOM     20  C   UNL d   1      31.837  16.941 -24.556  0.00  0.00     0.013 A 
ENDBRANCH  12  15
ENDBRANCH  11  12
ENDBRANCH   8  11
BRANCH   1  21
ATOM     21  C   UNL d   1      33.241  21.918 -21.236  0.00  0.00     0.029 C 
BRANCH  21  22
ATOM     22  C   UNL d   1      32.699  22.514 -21.429  0.00  0.00     0.021 A 
ATOM     23  C   UNL d   1      31.964  22.517 -21.067  0.00  0.00     0.099 A 
ATOM     24  N   UNL d   1      31.418  23.101 -21.249  0.00  0.00    -0.242 NA
ATOM     25  C   UNL d   1      31.613  23.693 -21.802  0.00  0.00     0.099 A 
ATOM     26  C   UNL d   1      32.357  23.686 -22.164  0.00  0.00     0.021 A 
ATOM     27  C   UNL d   1      32.897  23.090 -21.972  0.00  0.00     0.003 A 
ENDBRANCH  21  22
ENDBRANCH   1  21
TORSDOF 5
ENDMDL
MODEL 2
REMARK VINA RESULT:      -3.1      1.430      2.274
REMARK  5 active torsions:
REMARK  status: ('A' for Active; 'I' for Inactive)
REMARK    1  A    between atoms: O_8  and  S_1 
REMARK    2  A    between atoms: C_13  and  S_1 
REMARK    3  A    between atoms: C_7  and  C_2 
REMARK    4  A    between atoms: C_18  and  C_7 
REMARK    5  A    between atoms: C_14  and  O_8 
ROOT
ATOM      1  C   UNL d   1      33.059  19.922 -22.740  0.00  0.00     0.139 A 
ATOM      2  C   UNL d   1      32.811  19.024 -23.689  0.00  0.00     0.064 A 
ATOM      3  C   UNL d   1      33.002  19.812 -23.557  0.00  0.00     0.220 A 
ATOM      4  C   UNL d   1      32.749  18.642 -22.961  0.00  0.00     0.105 A 
ATOM      5  O   UNL d   1      32.903  19.200 -22.372  0.00  0.00    -0.304 OA
ATOM      6  C   UNL d   1      32.562  17.849 -22.935  0.00  0.00     0.050 A 
ATOM      7  C   UNL d   1      32.685  18.604 -24.386  0.00  0.00     0.007 A 
ATOM      8  C   UNL d   1      32.436  17.429 -23.632  0.00  0.00     0.116 A 
ATOM      9  O   UNL d   1      33.118  20.395 -24.128  0.00  0.00    -0.284 OA
ATOM     10  C   UNL d   1      32.498  17.807 -24.353  0.00  0.00     0.026 A 
ENDROOT
BRANCH   8  11
ATOM     11  O   UNL d   1      32.248  16.629 -23.600  0.00  0.00    -0.227 OA
BRANCH  11  12
ATOM     12  S   UNL d   1      31.477  16.379 -23.752  0.00  0.00     0.304 S 
ATOM     13  O   UNL d   1      31.637  16.321 -24.546  0.00  0.00    -0.193 OA
ATOM     14  O   UNL d   1      31.304  16.433 -22.959  0.00  0.00    -0.193 OA
BRANCH  12  15
ATOM     15  C   UNL d   1      30.703  16.130 -23.898  0.00  0.00     0.111 A 
ATOM     16  C   UNL d   1      30.416  16.101 -24.677  0.00  0.00     0.013 A 
ATOM     17  C   UNL d   1      29.643  15.852 -24.824  0.00  0.00     0.001 A 
ATOM     18  C   UNL d   1      29.150  15.629 -24.194  0.00  0.00     0.000 A 
ATOM     19  C   UNL d   1      29.443  15.660 -23.419  0.00  0.00     0.001 A 
ATOM     20  C   UNL d   1      30.216  15.909 -23.275  0.00  0.00     0.013 A 
ENDBRANCH  12  15
ENDBRANCH  11  12
ENDBRANCH   8  11
BRANCH   1  21
ATOM     21  C   UNL d   1      33.241  20.628 -22.355  0.00  0.00     0.029 C 
BRANCH  21  22
ATOM     22  C   UNL d   1      32.850  20.839 -21.656  0.00  0.00     0.021 A 
ATOM     23  C   UNL d   1      32.188  21.321 -21.699  0.00  0.00     0.099 A 
ATOM     24  N   UNL d   1      31.792  21.538 -21.015  0.00  0.00    -0.242 NA
ATOM     25  C   UNL d   1      32.063  21.266 -20.275  0.00  0.00     0.099 A 
ATOM     26  C   UNL d   1      32.730  20.780 -20.237  0.00  0.00     0.021 A 
ATOM     27  C   UNL d   1      33.121  20.569 -20.935  0.00  0.00     0.003 A 
ENDBRANCH  21  22
ENDBRANCH   1  21
TORSDOF 5
ENDMDL
MODEL 3
REMARK VINA RESULT:      -2.8      1.927      5.144
REMARK  5 active torsions:
REMARK  status: ('A' for Active; 'I' for Inactive)
REMARK    1  A    between atoms: O_8  and  S_1 
REMARK    2  A    between atoms: C_13  and  S_1 
REMARK    3  A    between atoms: C_7  and  C_2 
REMARK    4  A    between atoms: C_18  and  C_7 
REMARK    5  A    between atoms: C_14  and  O_8 
ROOT
ATOM      1  C   UNL d   1      30.875  16.809 -24.211  0.00  0.00     0.139 A 
ATOM      2  C   UNL d   1      32.069  17.123 -23.717  0.00  0.00     0.064 A 
ATOM      3  C   UNL d   1      31.560  16.496 -23.874  0.00  0.00     0.220 A 
ATOM      4  C   UNL d   1      31.704  17.823 -23.954  0.00  0.00     0.105 A 
ATOM      5  O   UNL d   1      30.963  17.628 -24.261  0.00  0.00    -0.304 OA
ATOM      6  C   UNL d   1      32.093  18.534 -23.858  0.00  0.00     0.050 A 
ATOM      7  C   UNL d   1      32.822  17.142 -23.385  0.00  0.00     0.007 A 
ATOM      8  C   UNL d   1      32.846  18.553 -23.527  0.00  0.00     0.116 A 
ATOM      9  O   UNL d   1      31.700  15.697 -23.726  0.00  0.00    -0.284 OA
ATOM     10  C   UNL d   1      33.207  17.859 -23.292  0.00  0.00     0.026 A 
ENDROOT
BRANCH   8  11
ATOM     11  O   UNL d   1      33.235  19.272 -23.433  0.00  0.00    -0.227 OA
BRANCH  11  12
ATOM     12  S   UNL d   1      33.099  19.730 -22.760  0.00  0.00     0.304 S 
ATOM     13  O   UNL d   1      33.239  19.089 -22.280  0.00  0.00    -0.193 OA
ATOM     14  O   UNL d   1      32.957  20.378 -23.229  0.00  0.00    -0.193 OA
BRANCH  12  15
ATOM     15  C   UNL d   1      32.963  20.192 -22.089  0.00  0.00     0.111 A 
ATOM     16  C   UNL d   1      32.683  20.970 -22.170  0.00  0.00     0.013 A 
ATOM     17  C   UNL d   1      32.547  21.432 -21.500  0.00  0.00     0.001 A 
ATOM     18  C   UNL d   1      32.688  21.121 -20.743  0.00  0.00     0.000 A 
ATOM     19  C   UNL d   1      32.968  20.344 -20.669  0.00  0.00     0.001 A 
ATOM     20  C   UNL d   1      33.103  19.884 -21.341  0.00  0.00     0.013 A 
ENDBRANCH  12  15
ENDBRANCH  11  12
ENDBRANCH   8  11
BRANCH   1  21
ATOM     21  C   UNL d   1      30.214  16.382 -24.458  0.00  0.00     0.029 C 
BRANCH  21  22
ATOM     22  C   UNL d   1      29.464  16.551 -24.150  0.00  0.00     0.021 A 
ATOM     23  C   UNL d   1      29.086  17.242 -24.375  0.00  0.00     0.099 A 
ATOM     24  N   UNL d   1      28.343  17.421 -24.078  0.00  0.00    -0.242 NA
ATOM     25  C   UNL d   1      27.973  16.899 -23.544  0.00  0.00     0.099 A 
ATOM     26  C   UNL d   1      28.359  16.203 -23.319  0.00  0.00     0.021 A 
ATOM     27  C   UNL d   1      29.108  16.034 -23.627  0.00  0.00     0.003 A 
ENDBRANCH  21  22
ENDBRANCH   1  21
TORSDOF 5
ENDMDL
MODEL 4
REMARK VINA RESULT:      -1.2      1.455      2.091
REMARK  5 active torsions:
REMARK  status: ('A' for Active; 'I' for Inactive)
REMARK    1  A    between atoms: O_8  and  S_1 
REMARK    2  A    between atoms: C_13  and  S_1 
REMARK    3  A    between atoms: C_7  and  C_2 
REMARK    4  A    between atoms: C_18  and  C_7 
REMARK    5  A    between atoms: C_14  and  O_8 
ROOT
ATOM      1  C   UNL d   1      32.172  22.055 -20.904  0.00  0.00     0.139 A 
ATOM      2  C   UNL d   1      32.677  21.473 -21.988  0.00  0.00     0.064 A 
ATOM      3  C   UNL d   1      32.446  22.195 -21.671  0.00  0.00     0.220 A 
ATOM      4  C   UNL d   1      32.549  20.885 -21.423  0.00  0.00     0.105 A 
ATOM      5  O   UNL d   1      32.236  21.247 -20.751  0.00  0.00    -0.304 OA
ATOM      6  C   UNL d   1      32.734  20.110 -21.598  0.00  0.00     0.050 A 
ATOM      7  C   UNL d   1      32.990  21.276 -22.724  0.00  0.00     0.007 A 
ATOM      8  C   UNL d   1      33.047  19.914 -22.334  0.00  0.00     0.116 A 
ATOM      9  O   UNL d   1      32.477  22.930 -22.042  0.00  0.00    -0.284 OA
ATOM     10  C   UNL d   1      33.174  20.496 -22.893  0.00  0.00     0.026 A 
ENDROOT
BRANCH   8  11
ATOM     11  O   UNL d   1      33.232  19.131 -22.505  0.00  0.00    -0.227 OA
BRANCH  11  12
ATOM     12  S   UNL d   1      32.867  18.749 -23.139  0.00  0.00     0.304 S 
ATOM     13  O   UNL d   1      33.230  19.249 -23.666  0.00  0.00    -0.193 OA
ATOM     14  O   UNL d   1      32.498  18.243 -22.621  0.00  0.00    -0.193 OA
BRANCH  12  15
ATOM     15  C   UNL d   1      32.499  18.364 -23.771  0.00  0.00     0.111 A 
ATOM     16  C   UNL d   1      32.955  18.068 -24.399  0.00  0.00     0.013 A 
ATOM     17  C   UNL d   1      32.588  17.683 -25.030  0.00  0.00     0.001 A 
ATOM     18  C   UNL d   1      31.763  17.591 -25.039  0.00  0.00     0.000 A 
ATOM     19  C   UNL d   1      31.314  17.890 -24.409  0.00  0.00     0.001 A 
ATOM     20  C   UNL d   1      31.684  18.274 -23.779  0.00  0.00     0.013 A 
ENDBRANCH  12  15
ENDBRANCH  11  12
ENDBRANCH   8  11
BRANCH   1  21
ATOM     21  C   UNL d   1      31.883  22.622 -20.379  0.00  0.00     0.029 C 
BRANCH  21  22
ATOM     22  C   UNL d   1      32.318  22.833 -19.706  0.00  0.00     0.021 A 
ATOM     23  C   UNL d   1      32.257  22.372 -19.031  0.00  0.00     0.099 A 
ATOM     24  N   UNL d   1      32.682  22.568 -18.358  0.00  0.00    -0.242 NA
ATOM     25  C   UNL d   1      33.177  23.239 -18.362  0.00  0.00     0.099 A 
ATOM     26  C   UNL d   1      33.235  23.701 -19.045  0.00  0.00     0.021 A 
ATOM     27  C   UNL d   1      32.800  23.491 -19.717  0.00  0.00     0.003 A 
ENDBRANCH  21  22
ENDBRANCH   1  21
TORSDOF 5
ENDMDL
