MODEL 1
REMARK VINA RESULT:      -3.5      0.000      0.000
REMARK  4 active torsions:
REMARK  status: ('A' for Active; 'I' for Inactive)
REMARK    1  A    between atoms: N_10  and  C_2 
REMARK    2  A    between atoms: N_11  and  C_6 
REMARK    3  A    between atoms: C_12  and  N_11 
REMARK    4  A    between atoms: O_19  and  C_15 
ROOT
ATOM      1  N   UNL d   1      59.692  -1.609  28.902  0.00  0.00    -0.041 NA
ATOM      2  C   UNL d   1      58.976  -1.904  29.011  0.00  0.00     0.738 A 
ATOM      3  C   UNL d   1      59.826  -0.850  29.040  0.00  0.00     0.187 A 
ATOM      4  N   UNL d   1      58.390  -1.439  29.259  0.00  0.00    -0.041 NA
ATOM      5  C   UNL d   1      59.243  -0.381  29.289  0.00  0.00     0.094 A 
ATOM      6  C   UNL d   1      58.518  -0.676  29.400  0.00  0.00     0.185 A 
ATOM      7  N   UNL d   1      60.685   0.217  29.070  0.00  0.00    -0.162 NA
ATOM      8  N   UNL d   1      60.551  -0.556  28.929  0.00  0.00    -0.208 N 
ATOM      9  C   UNL d   1      60.100   0.682  29.318  0.00  0.00     0.127 A 
ATOM     10  C   UNL d   1      61.133  -1.018  28.682  0.00  0.00     0.123 C 
ENDROOT
BRANCH   6  11
ATOM     11  N   UNL d   1      57.903  -0.198  29.658  0.00  0.00    -0.226 NA
BRANCH  11  12
ATOM     12  C   UNL d   1      57.721  -0.153  30.458  0.00  0.00     0.085 A 
ATOM     13  C   UNL d   1      57.249  -0.734  30.821  0.00  0.00     0.043 A 
ATOM     14  C   UNL d   1      57.065  -0.691  31.624  0.00  0.00     0.096 A 
ATOM     15  C   UNL d   1      57.355  -0.055  32.075  0.00  0.00     0.024 A 
ATOM     16  C   UNL d   1      57.821   0.522  31.722  0.00  0.00     0.004 A 
ATOM     17  C   UNL d   1      58.005   0.473  30.911  0.00  0.00     0.019 A 
BRANCH  14  18
ATOM     18  O   UNL d   1      56.597  -1.269  31.981  0.00  0.00    -0.328 OA
ATOM     19  C   UNL d   1      56.087  -1.271  32.635  0.00  0.00     0.181 C 
ENDBRANCH  14  18
ENDBRANCH  11  12
ENDBRANCH   6  11
BRANCH   2  20
ATOM     20  N   UNL d   1      58.830  -2.709  28.866  0.00  0.00    -0.133 N 
ATOM     21  C   UNL d   1      59.425  -3.266  28.983  0.00  0.00     0.125 A 
ATOM     22  C   UNL d   1      59.278  -4.067  28.837  0.00  0.00     0.142 A 
ATOM     23  O   UNL d   1      58.528  -4.313  28.573  0.00  0.00    -0.300 OA
ATOM     24  C   UNL d   1      57.928  -3.753  28.455  0.00  0.00     0.142 A 
ATOM     25  C   UNL d   1      58.079  -2.951  28.601  0.00  0.00     0.125 A 
ENDBRANCH   2  20
TORSDOF 4
ENDMDL
MODEL 2
REMARK VINA RESULT:      -1.4      1.361      3.897
REMARK  4 active torsions:
REMARK  status: ('A' for Active; 'I' for Inactive)
REMARK    1  A    between atoms: N_10  and  C_2 
REMARK    2  A    between atoms: N_11  and  C_6 
REMARK    3  A    between atoms: C_12  and  N_11 
REMARK    4  A    between atoms: O_19  and  C_15 
ROOT
ATOM      1  N   UNL d   1      58.136   0.153  31.917  0.00  0.00    -0.041 NA
ATOM      2  C   UNL d   1      57.483  -0.110  31.576  0.00  0.00     0.738 A 
ATOM      3  C   UNL d   1      58.777   0.282  31.485  0.00  0.00     0.187 A 
ATOM      4  N   UNL d   1      57.469  -0.245  30.800  0.00  0.00    -0.041 NA
ATOM      5  C   UNL d   1      58.767   0.149  30.708  0.00  0.00     0.094 A 
ATOM      6  C   UNL d   1      58.109  -0.117  30.360  0.00  0.00     0.185 A 
ATOM      7  N   UNL d   1      60.085   0.679  31.393  0.00  0.00    -0.162 NA
ATOM      8  N   UNL d   1      59.434   0.548  31.833  0.00  0.00    -0.208 N 
ATOM      9  C   UNL d   1      60.071   0.544  30.617  0.00  0.00     0.127 A 
ATOM     10  C   UNL d   1      59.448   0.682  32.606  0.00  0.00     0.123 C 
ENDROOT
BRANCH   6  11
ATOM     11  N   UNL d   1      58.087  -0.260  29.553  0.00  0.00    -0.226 NA
BRANCH  11  12
ATOM     12  C   UNL d   1      58.503  -0.891  29.232  0.00  0.00     0.085 A 
ATOM     13  C   UNL d   1      58.248  -1.674  29.351  0.00  0.00     0.043 A 
ATOM     14  C   UNL d   1      58.664  -2.310  29.029  0.00  0.00     0.096 A 
ATOM     15  C   UNL d   1      59.349  -2.163  28.579  0.00  0.00     0.024 A 
ATOM     16  C   UNL d   1      59.604  -1.392  28.458  0.00  0.00     0.004 A 
ATOM     17  C   UNL d   1      59.181  -0.754  28.785  0.00  0.00     0.019 A 
BRANCH  14  18
ATOM     18  O   UNL d   1      58.409  -3.085  29.149  0.00  0.00    -0.328 OA
ATOM     19  C   UNL d   1      58.760  -3.828  29.039  0.00  0.00     0.181 C 
ENDBRANCH  14  18
ENDBRANCH  11  12
ENDBRANCH   6  11
BRANCH   2  20
ATOM     20  N   UNL d   1      56.802  -0.248  32.030  0.00  0.00    -0.133 N 
ATOM     21  C   UNL d   1      56.369   0.384  32.331  0.00  0.00     0.125 A 
ATOM     22  C   UNL d   1      55.691   0.244  32.783  0.00  0.00     0.142 A 
ATOM     23  O   UNL d   1      55.443  -0.535  32.936  0.00  0.00    -0.300 OA
ATOM     24  C   UNL d   1      55.879  -1.173  32.634  0.00  0.00     0.142 A 
ATOM     25  C   UNL d   1      56.558  -1.029  32.181  0.00  0.00     0.125 A 
ENDBRANCH   2  20
TORSDOF 4
ENDMDL
