MODEL 1
REMARK VINA RESULT:      76.8      0.000      0.000
REMARK  9 active torsions:
REMARK  status: ('A' for Active; 'I' for Inactive)
REMARK    1  A    between atoms: P_2  and  C_1 
REMARK    2  A    between atoms: O_8  and  P_2 
REMARK    3  A    between atoms: O_9  and  P_2 
REMARK    4  A    between atoms: N_10  and  C_4 
REMARK    5  A    between atoms: C_24  and  O_8 
REMARK    6  A    between atoms: C_23  and  O_9 
REMARK    7  A    between atoms: C_15  and  N_10 
REMARK    8  A    between atoms: O_25  and  C_16 
REMARK    9  A    between atoms: O_26  and  C_17 
ROOT
ATOM      1  C   UNL d   1      45.752 -17.956  41.361  0.00  0.00     0.174 A 
ATOM      2  C   UNL d   1      46.077 -17.390  41.876  0.00  0.00     0.100 A 
ATOM      3  C   UNL d   1      46.320 -17.613  42.632  0.00  0.00     0.095 A 
ATOM      4  N   UNL d   1      45.673 -18.739  41.607  0.00  0.00    -0.237 NA
ATOM      5  C   UNL d   1      46.239 -18.394  42.875  0.00  0.00     0.038 A 
ATOM      6  C   UNL d   1      45.914 -18.960  42.361  0.00  0.00     0.083 A 
ATOM      7  C   UNL d   1      46.481 -18.611  43.626  0.00  0.00     0.027 A 
ATOM      8 CL   UNL d   1      46.156 -16.604  41.627  0.00  0.00    -0.079 Cl
ATOM      9  C   UNL d   1      45.835 -19.740  42.604  0.00  0.00     0.021 A 
ATOM     10  C   UNL d   1      46.402 -19.400  43.878  0.00  0.00     0.094 A 
ATOM     11  C   UNL d   1      46.077 -19.966  43.363  0.00  0.00     0.026 A 
ENDROOT
BRANCH   1  12
ATOM     12  P   UNL d   1      45.507 -17.733  40.599  0.00  0.00     0.392 P 
ATOM     13  O   UNL d   1      44.731 -17.672  40.874  0.00  0.00    -0.251 OA
BRANCH  12  14
ATOM     14  O   UNL d   1      46.202 -17.740  40.151  0.00  0.00    -0.265 OA
BRANCH  14  15
ATOM     15  C   UNL d   1      46.208 -18.082  39.394  0.00  0.00     0.103 C 
ATOM     16  C   UNL d   1      46.241 -17.608  38.722  0.00  0.00     0.027 C 
ATOM     17  C   UNL d   1      46.179 -18.906  39.321  0.00  0.00     0.027 C 
ENDBRANCH  14  15
ENDBRANCH  12  14
BRANCH  12  18
ATOM     18  O   UNL d   1      45.293 -17.515  39.835  0.00  0.00    -0.265 OA
BRANCH  18  19
ATOM     19  C   UNL d   1      44.540 -17.218  39.683  0.00  0.00     0.103 C 
ATOM     20  C   UNL d   1      44.419 -16.406  39.608  0.00  0.00     0.027 C 
ATOM     21  C   UNL d   1      43.904 -17.737  39.607  0.00  0.00     0.027 C 
ENDBRANCH  18  19
ENDBRANCH  12  18
ENDBRANCH   1  12
BRANCH   3  22
ATOM     22  N   UNL d   1      46.643 -17.050  43.145  0.00  0.00    -0.245 NA
BRANCH  22  23
ATOM     23  C   UNL d   1      46.155 -16.495  43.520  0.00  0.00     0.082 A 
ATOM     24  C   UNL d   1      46.213 -15.702  43.316  0.00  0.00     0.021 A 
ATOM     25  C   UNL d   1      45.728 -15.136  43.687  0.00  0.00     0.026 A 
ATOM     26  C   UNL d   1      45.191 -15.389  44.262  0.00  0.00     0.094 A 
ATOM     27  C   UNL d   1      45.134 -16.187  44.467  0.00  0.00     0.026 A 
ATOM     28  C   UNL d   1      45.618 -16.739  44.094  0.00  0.00     0.021 A 
BRANCH  26  29
ATOM     29  O   UNL d   1      44.705 -14.823  44.634  0.00  0.00    -0.328 OA
ATOM     30  C   UNL d   1      44.399 -14.194  44.186  0.00  0.00     0.181 C 
ENDBRANCH  26  29
ENDBRANCH  22  23
ENDBRANCH   3  22
BRANCH  10  31
ATOM     31  O   UNL d   1      46.645 -19.620  44.632  0.00  0.00    -0.328 OA
ATOM     32  C   UNL d   1      46.384 -20.330  44.954  0.00  0.00     0.181 C 
ENDBRANCH  10  31
TORSDOF 9
ENDMDL
