MODEL 1
REMARK VINA RESULT:      62.3      0.000      0.000
REMARK  4 active torsions:
REMARK  status: ('A' for Active; 'I' for Inactive)
REMARK    1  A    between atoms: C_5  and  C_1 
REMARK       I    between atoms: N_7  and  C_5 
REMARK    2  A    between atoms: C_9  and  N_7 
REMARK    3  A    between atoms: C_8  and  C_9 
REMARK    4  A    between atoms: O_13  and  C_11 
ROOT
ATOM      1  C   UNL d   1      58.054  49.105  50.840  0.00  0.00     0.299 C 
ATOM      2  N   UNL d   1      58.871  48.980  50.757  0.00  0.00    -0.205 NA
ATOM      3  O   UNL d   1      57.732  49.242  51.585  0.00  0.00    -0.263 OA
ENDROOT
BRANCH   1   4
ATOM      4  C   UNL d   1      57.564  49.092  50.171  0.00  0.00     0.162 A 
ATOM      5  N   UNL d   1      57.477  49.705  49.628  0.00  0.00    -0.143 NA
ATOM      6  N   UNL d   1      56.932  49.462  49.042  0.00  0.00    -0.148 NA
ATOM      7  C   UNL d   1      56.689  48.686  49.241  0.00  0.00     0.105 A 
ATOM      8  C   UNL d   1      57.081  48.461  49.937  0.00  0.00     0.044 A 
ATOM      9  C   UNL d   1      56.169  48.172  48.874  0.00  0.00     0.021 A 
ATOM     10  C   UNL d   1      56.940  47.713  50.256  0.00  0.00     0.003 A 
ATOM     11  C   UNL d   1      56.421  47.201  49.891  0.00  0.00     0.000 A 
ATOM     12  C   UNL d   1      56.036  47.428  49.202  0.00  0.00     0.002 A 
ENDBRANCH   1   4
BRANCH   2  13
ATOM     13  C   UNL d   1      59.358  48.993  51.425  0.00  0.00     0.104 C 
BRANCH  13  14
ATOM     14  C   UNL d   1      60.178  48.993  51.353  0.00  0.00     0.042 A 
ATOM     15  C   UNL d   1      60.585  48.286  51.200  0.00  0.00     0.096 A 
ATOM     16  C   UNL d   1      61.397  48.298  51.130  0.00  0.00     0.024 A 
ATOM     17  C   UNL d   1      61.815  49.004  51.211  0.00  0.00     0.002 A 
ATOM     18  C   UNL d   1      61.425  49.707  51.361  0.00  0.00     0.000 A 
ATOM     19  C   UNL d   1      60.597  49.708  51.434  0.00  0.00     0.004 A 
BRANCH  15  20
ATOM     20  O   UNL d   1      60.175  47.571  51.117  0.00  0.00    -0.328 OA
ATOM     21  C   UNL d   1      60.512  46.926  50.740  0.00  0.00     0.181 C 
ENDBRANCH  15  20
ENDBRANCH  13  14
ENDBRANCH   2  13
TORSDOF 4
ENDMDL
