MODEL 1
REMARK VINA RESULT:      67.6      0.000      0.000
REMARK  5 active torsions:
REMARK  status: ('A' for Active; 'I' for Inactive)
REMARK    1  A    between atoms: N_2  and  S_1 
REMARK    2  A    between atoms: C_7  and  S_1 
REMARK    3  A    between atoms: C_3  and  N_2 
REMARK    4  A    between atoms: C_6  and  O_8 
REMARK    5  A    between atoms: O_8  and  C_9 
ROOT
ATOM      1  C   UNL d   1     -50.043  27.509  34.198  0.00  0.00     0.117 A 
ATOM      2  C   UNL d   1     -50.409  27.014  33.650  0.00  0.00     0.118 A 
ATOM      3  C   UNL d   1     -50.412  28.222  34.395  0.00  0.00     0.022 A 
ATOM      4  C   UNL d   1     -51.125  27.224  33.307  0.00  0.00     0.026 A 
ATOM      5  C   UNL d   1     -51.128  28.432  34.052  0.00  0.00     0.002 A 
ATOM      6  C   UNL d   1     -51.491  27.934  33.504  0.00  0.00     0.002 A 
ENDROOT
BRANCH   1   7
ATOM      7  N   UNL d   1     -49.326  27.299  34.542  0.00  0.00    -0.156 NA
BRANCH   7   8
ATOM      8  S   UNL d   1     -48.847  27.874  34.884  0.00  0.00     0.285 S 
ATOM      9  O   UNL d   1     -48.731  28.225  34.126  0.00  0.00    -0.198 OA
ATOM     10  O   UNL d   1     -48.962  27.529  35.627  0.00  0.00    -0.198 OA
BRANCH   8  11
ATOM     11  C   UNL d   1     -48.356  28.464  35.233  0.00  0.00     0.105 A 
ATOM     12  C   UNL d   1     -47.727  28.782  34.794  0.00  0.00     0.013 A 
ATOM     13  C   UNL d   1     -47.250  29.360  35.144  0.00  0.00     0.001 A 
ATOM     14  C   UNL d   1     -47.399  29.622  35.929  0.00  0.00     0.000 A 
ATOM     15  C   UNL d   1     -48.022  29.300  36.350  0.00  0.00     0.001 A 
ATOM     16  C   UNL d   1     -48.505  28.726  36.018  0.00  0.00     0.013 A 
ENDBRANCH   8  11
ENDBRANCH   7   8
ENDBRANCH   1   7
BRANCH   2  17
ATOM     17  O   UNL d   1     -50.026  26.281  33.450  0.00  0.00    -0.306 OA
BRANCH  17  18
ATOM     18  C   UNL d   1     -50.448  25.577  33.425  0.00  0.00     0.100 A 
ATOM     19  C   UNL d   1     -50.052  24.849  33.375  0.00  0.00     0.025 A 
ATOM     20  C   UNL d   1     -50.494  24.148  33.350  0.00  0.00     0.002 A 
ATOM     21  C   UNL d   1     -50.171  23.477  33.306  0.00  0.00     0.000 C 
ATOM     22  C   UNL d   1     -51.317  24.171  33.374  0.00  0.00     0.000 A 
ATOM     23  C   UNL d   1     -51.701  24.904  33.424  0.00  0.00     0.002 A 
ATOM     24  C   UNL d   1     -51.257  25.600  33.448  0.00  0.00     0.025 A 
ATOM     25  C   UNL d   1     -52.466  24.847  33.442  0.00  0.00     0.000 C 
ENDBRANCH  17  18
ENDBRANCH   2  17
TORSDOF 5
ENDMDL
MODEL 2
REMARK VINA RESULT:      70.6      2.150      2.751
REMARK  5 active torsions:
REMARK  status: ('A' for Active; 'I' for Inactive)
REMARK    1  A    between atoms: N_2  and  S_1 
REMARK    2  A    between atoms: C_7  and  S_1 
REMARK    3  A    between atoms: C_3  and  N_2 
REMARK    4  A    between atoms: C_6  and  O_8 
REMARK    5  A    between atoms: O_8  and  C_9 
ROOT
ATOM      1  C   UNL d   1     -50.854  26.279  34.701  0.00  0.00     0.117 A 
ATOM      2  C   UNL d   1     -51.061  26.167  33.911  0.00  0.00     0.118 A 
ATOM      3  C   UNL d   1     -50.108  26.592  34.873  0.00  0.00     0.022 A 
ATOM      4  C   UNL d   1     -50.539  26.362  33.308  0.00  0.00     0.026 A 
ATOM      5  C   UNL d   1     -49.586  26.786  34.270  0.00  0.00     0.002 A 
ATOM      6  C   UNL d   1     -49.798  26.673  33.481  0.00  0.00     0.002 A 
ENDROOT
BRANCH   1   7
ATOM      7  N   UNL d   1     -51.376  26.084  35.305  0.00  0.00    -0.156 NA
BRANCH   7   8
ATOM      8  S   UNL d   1     -51.247  26.358  36.069  0.00  0.00     0.285 S 
ATOM      9  O   UNL d   1     -50.448  26.538  35.866  0.00  0.00    -0.198 OA
ATOM     10  O   UNL d   1     -52.030  26.181  36.267  0.00  0.00    -0.198 OA
BRANCH   8  11
ATOM     11  C   UNL d   1     -51.111  26.640  36.852  0.00  0.00     0.105 A 
ATOM     12  C   UNL d   1     -51.545  26.318  37.483  0.00  0.00     0.013 A 
ATOM     13  C   UNL d   1     -51.406  26.600  38.247  0.00  0.00     0.001 A 
ATOM     14  C   UNL d   1     -50.835  27.202  38.385  0.00  0.00     0.000 A 
ATOM     15  C   UNL d   1     -50.414  27.510  37.755  0.00  0.00     0.001 A 
ATOM     16  C   UNL d   1     -50.540  27.242  36.990  0.00  0.00     0.013 A 
ENDBRANCH   8  11
ENDBRANCH   7   8
ENDBRANCH   1   7
BRANCH   2  17
ATOM     17  O   UNL d   1     -51.829  25.845  33.738  0.00  0.00    -0.306 OA
BRANCH  17  18
ATOM     18  C   UNL d   1     -51.929  25.042  33.596  0.00  0.00     0.100 A 
ATOM     19  C   UNL d   1     -51.270  24.542  33.523  0.00  0.00     0.025 A 
ATOM     20  C   UNL d   1     -51.389  23.734  33.379  0.00  0.00     0.002 A 
ATOM     21  C   UNL d   1     -50.820  23.256  33.309  0.00  0.00     0.000 C 
ATOM     22  C   UNL d   1     -52.151  23.428  33.309  0.00  0.00     0.000 A 
ATOM     23  C   UNL d   1     -52.801  23.938  33.384  0.00  0.00     0.002 A 
ATOM     24  C   UNL d   1     -52.678  24.743  33.527  0.00  0.00     0.025 A 
ATOM     25  C   UNL d   1     -53.477  23.584  33.307  0.00  0.00     0.000 C 
ENDBRANCH  17  18
ENDBRANCH   2  17
TORSDOF 5
ENDMDL
