MODEL 1
REMARK VINA RESULT:      -3.7      0.000      0.000
REMARK  4 active torsions:
REMARK  status: ('A' for Active; 'I' for Inactive)
REMARK    1  A    between atoms: N_2  and  S_1 
REMARK    2  A    between atoms: C_6  and  S_1 
REMARK       I    between atoms: C_3  and  N_5 
REMARK    3  A    between atoms: C_7  and  C_3 
REMARK    4  A    between atoms: C_4  and  C_8 
ROOT
ATOM      1  N   UNL d   1     -41.706-121.786 -51.518  0.00  0.00    -0.226 N 
ATOM      2  C   UNL d   1     -42.597-122.915 -49.518  0.00  0.00     0.288 C 
ATOM      3  N   UNL d   1     -42.303-122.538 -50.188  0.00  0.00    -0.267 N 
ATOM      4  C   UNL d   1     -41.205-121.978 -50.892  0.00  0.00     0.111 A 
ATOM      5  C   UNL d   1     -42.516-121.975 -51.475  0.00  0.00     0.111 A 
ATOM      6  C   UNL d   1     -42.809-122.352 -50.805  0.00  0.00     0.103 A 
ATOM      7  C   UNL d   1     -41.507-122.351 -50.233  0.00  0.00     0.103 A 
ATOM      8  O   UNL d   1     -43.399-123.105 -49.469  0.00  0.00    -0.264 OA
ENDROOT
BRANCH   1   9
ATOM      9  S   UNL d   1     -41.417-121.414 -52.179  0.00  0.00     0.271 S 
ATOM     10  O   UNL d   1     -41.124-121.037 -52.849  0.00  0.00    -0.200 OA
ATOM     11  O   UNL d   1     -41.396-120.706 -51.776  0.00  0.00    -0.200 OA
BRANCH   9  12
ATOM     12  C   UNL d   1     -41.437-122.128 -52.589  0.00  0.00     0.104 A 
ATOM     13  C   UNL d   1     -41.765-122.167 -53.345  0.00  0.00     0.017 A 
ATOM     14  C   UNL d   1     -41.784-122.880 -53.755  0.00  0.00     0.072 A 
ATOM     15  C   UNL d   1     -41.477-123.561 -53.413  0.00  0.00     0.004 A 
ATOM     16  C   UNL d   1     -41.145-123.531 -52.654  0.00  0.00     0.001 A 
ATOM     17  C   UNL d   1     -41.125-122.811 -52.240  0.00  0.00     0.013 A 
BRANCH  14  18
ATOM     18  C   UNL d   1     -42.112-122.914 -54.508  0.00  0.00     0.419 C 
ATOM     19  F   UNL d   1     -42.846-123.276 -54.758  0.00  0.00    -0.166 F 
ATOM     20  F   UNL d   1     -41.810-122.596 -55.247  0.00  0.00    -0.166 F 
ATOM     21  F   UNL d   1     -42.414-122.946 -55.196  0.00  0.00    -0.166 F 
ENDBRANCH  14  18
ENDBRANCH   9  12
ENDBRANCH   1   9
BRANCH   2  22
ATOM     22  C   UNL d   1     -42.094-123.105 -48.893  0.00  0.00     0.156 A 
ATOM     23  O   UNL d   1     -41.684-123.817 -48.793  0.00  0.00    -0.300 OA
ATOM     24  C   UNL d   1     -41.251-123.770 -48.101  0.00  0.00     0.123 A 
ATOM     25  C   UNL d   1     -41.388-123.026 -47.763  0.00  0.00     0.029 A 
ATOM     26  C   UNL d   1     -41.912-122.613 -48.254  0.00  0.00     0.032 A 
ENDBRANCH   2  22
TORSDOF 4
ENDMDL
MODEL 2
REMARK VINA RESULT:      -1.0      1.548      2.360
REMARK  4 active torsions:
REMARK  status: ('A' for Active; 'I' for Inactive)
REMARK    1  A    between atoms: N_2  and  S_1 
REMARK    2  A    between atoms: C_6  and  S_1 
REMARK       I    between atoms: C_3  and  N_5 
REMARK    3  A    between atoms: C_7  and  C_3 
REMARK    4  A    between atoms: C_4  and  C_8 
ROOT
ATOM      1  N   UNL d   1     -41.556-122.851 -53.215  0.00  0.00    -0.226 N 
ATOM      2  C   UNL d   1     -41.590-121.861 -50.959  0.00  0.00     0.288 C 
ATOM      3  N   UNL d   1     -41.577-122.188 -51.714  0.00  0.00    -0.267 N 
ATOM      4  C   UNL d   1     -41.976-123.217 -52.607  0.00  0.00     0.111 A 
ATOM      5  C   UNL d   1     -41.143-122.144 -53.066  0.00  0.00     0.111 A 
ATOM      6  C   UNL d   1     -41.157-121.816 -52.311  0.00  0.00     0.103 A 
ATOM      7  C   UNL d   1     -41.983-122.884 -51.863  0.00  0.00     0.103 A 
ATOM      8  O   UNL d   1     -41.182-121.160 -50.806  0.00  0.00    -0.264 OA
ENDROOT
BRANCH   1   9
ATOM      9  S   UNL d   1     -41.543-123.173 -53.959  0.00  0.00     0.271 S 
ATOM     10  O   UNL d   1     -41.529-123.501 -54.714  0.00  0.00    -0.200 OA
ATOM     11  O   UNL d   1     -41.128-123.816 -53.677  0.00  0.00    -0.200 OA
BRANCH   9  12
ATOM     12  C   UNL d   1     -41.962-122.527 -54.247  0.00  0.00     0.104 A 
ATOM     13  C   UNL d   1     -41.898-122.305 -55.040  0.00  0.00     0.017 A 
ATOM     14  C   UNL d   1     -42.317-121.658 -55.328  0.00  0.00     0.072 A 
ATOM     15  C   UNL d   1     -42.804-121.226 -54.827  0.00  0.00     0.004 A 
ATOM     16  C   UNL d   1     -42.875-121.441 -54.029  0.00  0.00     0.001 A 
ATOM     17  C   UNL d   1     -42.451-122.094 -53.738  0.00  0.00     0.013 A 
BRANCH  14  18
ATOM     18  C   UNL d   1     -42.250-121.443 -56.118  0.00  0.00     0.419 C 
ATOM     19  F   UNL d   1     -42.742-121.670 -56.780  0.00  0.00    -0.166 F 
ATOM     20  F   UNL d   1     -41.671-120.933 -56.495  0.00  0.00    -0.166 F 
ATOM     21  F   UNL d   1     -42.191-121.247 -56.842  0.00  0.00    -0.166 F 
ENDBRANCH  14  18
ENDBRANCH   9  12
ENDBRANCH   1   9
BRANCH   2  22
ATOM     22  C   UNL d   1     -42.010-122.229 -50.353  0.00  0.00     0.156 A 
ATOM     23  O   UNL d   1     -42.822-122.162 -50.208  0.00  0.00    -0.300 OA
ATOM     24  C   UNL d   1     -43.006-122.618 -49.555  0.00  0.00     0.123 A 
ATOM     25  C   UNL d   1     -42.308-122.975 -49.286  0.00  0.00     0.029 A 
ATOM     26  C   UNL d   1     -41.689-122.734 -49.782  0.00  0.00     0.032 A 
ENDBRANCH   2  22
TORSDOF 4
ENDMDL
