MODEL 1
REMARK VINA RESULT:      29.1      0.000      0.000
REMARK  7 active torsions:
REMARK  status: ('A' for Active; 'I' for Inactive)
REMARK    1  A    between atoms: N_4  and  C_1 
REMARK    2  A    between atoms: C_9  and  C_2 
REMARK    3  A    between atoms: C_7  and  N_4 
REMARK       I    between atoms: C_10  and  N_8 
REMARK    4  A    between atoms: C_17  and  C_10 
REMARK    5  A    between atoms: C_12  and  C_18 
REMARK    6  A    between atoms: O_20  and  C_12 
REMARK    7  A    between atoms: C_18  and  C_17 
ROOT
ATOM      1  N   UNL d   1      45.696 -14.923  43.963  0.00  0.00    -0.211 NA
ENDROOT
BRANCH   1   2
ATOM      2  C   UNL d   1      45.528 -14.169  43.624  0.00  0.00     0.118 A 
ATOM      3  C   UNL d   1      44.796 -13.750  43.687  0.00  0.00     0.084 A 
ATOM      4  C   UNL d   1      44.879 -13.040  43.274  0.00  0.00     0.013 A 
ATOM      5  C   UNL d   1      44.275 -12.439  43.188  0.00  0.00     0.001 C 
ATOM      6  C   UNL d   1      45.622 -13.001  42.962  0.00  0.00     0.031 A 
ATOM      7  S   UNL d   1      46.031 -13.688  43.170  0.00  0.00    -0.068 SA
ATOM      8  C   UNL d   1      45.919 -12.349  42.496  0.00  0.00     0.007 C 
BRANCH   3   9
ATOM      9  C   UNL d   1      44.101 -14.016  44.101  0.00  0.00     0.299 C 
ATOM     10  O   UNL d   1      43.396 -14.194  43.671  0.00  0.00    -0.264 OA
ATOM     11  N   UNL d   1      44.106 -14.106  44.952  0.00  0.00    -0.102 N 
ENDBRANCH   3   9
ENDBRANCH   1   2
BRANCH   1  12
ATOM     12  C   UNL d   1      46.204 -14.975  44.582  0.00  0.00     0.224 C 
ATOM     13  N   UNL d   1      46.554 -16.057  44.953  0.00  0.00    -0.179 NA
ATOM     14  C   UNL d   1      46.276 -16.717  44.577  0.00  0.00     0.281 C 
ATOM     15  O   UNL d   1      46.512 -17.446  44.828  0.00  0.00    -0.265 OA
ATOM     16  S   UNL d   1      46.480 -14.312  44.955  0.00  0.00    -0.037 SA
BRANCH  14  17
ATOM     17  C   UNL d   1      45.771 -16.652  43.962  0.00  0.00     0.068 C 
BRANCH  17  18
ATOM     18  C   UNL d   1      45.441 -17.329  43.661  0.00  0.00     0.073 C 
BRANCH  18  19
ATOM     19  C   UNL d   1      45.602 -17.516  42.884  0.00  0.00     0.296 C 
ATOM     20  O   UNL d   1      45.785 -16.953  42.374  0.00  0.00    -0.259 OA
BRANCH  19  21
ATOM     21  O   UNL d   1      45.572 -18.291  42.644  0.00  0.00    -0.296 OA
ATOM     22  C   UNL d   1      46.196 -18.600  42.215  0.00  0.00     0.185 C 
ENDBRANCH  19  21
ENDBRANCH  18  19
ENDBRANCH  17  18
ENDBRANCH  14  17
ENDBRANCH   1  12
TORSDOF 7
ENDMDL
