MODEL 1
REMARK VINA RESULT:      42.9      0.000      0.000
REMARK  3 active torsions:
REMARK  status: ('A' for Active; 'I' for Inactive)
REMARK    1  A    between atoms: C_2  and  N_1 
REMARK    2  A    between atoms: C_5  and  C_8 
REMARK       I    between atoms: N_6  and  C_5 
REMARK    3  A    between atoms: C_13  and  N_6 
ROOT
ATOM      1  C   UNL d   1      15.451  13.802  -0.575  0.00  0.00     0.070 A 
ATOM      2  C   UNL d   1      15.100  13.542  -1.279  0.00  0.00     0.022 A 
ATOM      3  C   UNL d   1      15.036  12.737  -1.432  0.00  0.00     0.059 A 
ATOM      4  C   UNL d   1      15.743  13.247  -0.015  0.00  0.00     0.018 A 
ATOM      5  C   UNL d   1      15.317  12.188  -0.893  0.00  0.00     0.005 A 
ATOM      6  C   UNL d   1      15.673  12.442  -0.180  0.00  0.00     0.002 A 
ENDROOT
BRANCH   3   7
ATOM      7  C   UNL d   1      14.686  12.474  -2.131  0.00  0.00     0.279 C 
ATOM      8  N   UNL d   1      14.073  12.907  -2.475  0.00  0.00    -0.208 NA
ATOM      9  O   UNL d   1      14.947  11.782  -2.488  0.00  0.00    -0.265 OA
BRANCH   8  10
ATOM     10  C   UNL d   1      13.719  12.640  -3.185  0.00  0.00     0.085 A 
ATOM     11  C   UNL d   1      13.938  12.969  -3.905  0.00  0.00     0.020 A 
ATOM     12  C   UNL d   1      13.598  12.718  -4.619  0.00  0.00     0.008 A 
ATOM     13  C   UNL d   1      13.706  12.942  -5.414  0.00  0.00     0.007 A 
ATOM     14  C   UNL d   1      13.025  12.122  -4.601  0.00  0.00     0.030 A 
ATOM     15  C   UNL d   1      13.203  12.484  -5.862  0.00  0.00     0.035 A 
ATOM     16  S   UNL d   1      12.780  11.979  -5.388  0.00  0.00    -0.086 SA
ATOM     17  C   UNL d   1      12.796  11.781  -3.867  0.00  0.00     0.008 A 
ATOM     18  C   UNL d   1      13.147  12.045  -3.164  0.00  0.00     0.020 A 
ENDBRANCH   8  10
ENDBRANCH   3   7
BRANCH   1  19
ATOM     19  N   UNL d   1      15.519  14.609  -0.415  0.00  0.00    -0.242 N 
ATOM     20  C   UNL d   1      16.201  15.057  -0.331  0.00  0.00     0.267 A 
ATOM     21  C   UNL d   1      16.014  15.832  -0.176  0.00  0.00     0.066 A 
ATOM     22  O   UNL d   1      17.014  14.753  -0.397  0.00  0.00    -0.267 OA
ATOM     23  C   UNL d   1      15.205  15.877  -0.161  0.00  0.00     0.066 A 
ATOM     24  C   UNL d   1      14.917  15.153  -0.302  0.00  0.00     0.267 A 
ATOM     25  O   UNL d   1      14.056  14.974  -0.331  0.00  0.00    -0.267 OA
ENDBRANCH   1  19
TORSDOF 3
ENDMDL
