MODEL 1
REMARK VINA RESULT:      -1.8      0.000      0.000
REMARK  7 active torsions:
REMARK  status: ('A' for Active; 'I' for Inactive)
REMARK    1  A    between atoms: C_2  and  C_8 
REMARK    2  A    between atoms: O_17  and  C_2 
REMARK    3  A    between atoms: C_15  and  C_3 
REMARK    4  A    between atoms: C_5  and  C_16 
REMARK       I    between atoms: N_9  and  C_5 
REMARK    5  A    between atoms: C_14  and  N_9 
REMARK    6  A    between atoms: C_16  and  C_15 
REMARK    7  A    between atoms: C_21  and  O_17 
ROOT
ATOM      1  C   UNL d   1      29.607  16.127 -24.012  0.00  0.00     0.064 A 
ATOM      2  C   UNL d   1      29.845  16.329 -24.785  0.00  0.00     0.007 A 
ATOM      3  C   UNL d   1      30.127  15.698 -23.527  0.00  0.00     0.007 A 
ATOM      4  C   UNL d   1      31.094  15.679 -24.567  0.00  0.00     0.085 A 
ATOM      5  C   UNL d   1      30.586  16.103 -25.055  0.00  0.00     0.019 A 
ATOM      6  C   UNL d   1      30.864  15.480 -23.812  0.00  0.00     0.019 A 
ENDROOT
BRANCH   4   7
ATOM      7  N   UNL d   1      31.843  15.453 -24.847  0.00  0.00    -0.208 NA
ATOM      8  C   UNL d   1      32.498  15.927 -24.690  0.00  0.00     0.279 C 
ATOM      9  O   UNL d   1      33.241  15.708 -24.964  0.00  0.00    -0.265 OA
BRANCH   8  10
ATOM     10  C   UNL d   1      32.416  16.625 -24.257  0.00  0.00     0.065 C 
BRANCH  10  11
ATOM     11  C   UNL d   1      33.079  17.024 -23.987  0.00  0.00     0.030 C 
BRANCH  11  12
ATOM     12  C   UNL d   1      33.012  17.796 -23.699  0.00  0.00     0.100 A 
ATOM     13  O   UNL d   1      33.035  18.037 -22.908  0.00  0.00    -0.307 OA
ATOM     14  C   UNL d   1      32.947  18.849 -22.877  0.00  0.00     0.100 A 
ATOM     15  C   UNL d   1      32.869  19.124 -23.656  0.00  0.00     0.027 A 
ATOM     16  C   UNL d   1      32.939  19.311 -22.201  0.00  0.00     0.027 C 
ATOM     17  C   UNL d   1      32.908  18.475 -24.163  0.00  0.00     0.027 A 
ENDBRANCH  11  12
ENDBRANCH  10  11
ENDBRANCH   8  10
ENDBRANCH   4   7
BRANCH   1  18
ATOM     18  C   UNL d   1      28.868  16.351 -23.739  0.00  0.00     0.300 C 
ATOM     19  O   UNL d   1      28.691  17.162 -23.644  0.00  0.00    -0.259 OA
BRANCH  18  20
ATOM     20  O   UNL d   1      28.293  15.782 -23.556  0.00  0.00    -0.271 OA
BRANCH  20  21
ATOM     21  C   UNL d   1      27.558  16.034 -23.256  0.00  0.00     0.126 C 
ATOM     22  C   UNL d   1      26.929  15.494 -23.228  0.00  0.00     0.029 C 
ENDBRANCH  20  21
ENDBRANCH  18  20
ENDBRANCH   1  18
TORSDOF 7
ENDMDL
MODEL 2
REMARK VINA RESULT:      -0.1      1.612      2.423
REMARK  7 active torsions:
REMARK  status: ('A' for Active; 'I' for Inactive)
REMARK    1  A    between atoms: C_2  and  C_8 
REMARK    2  A    between atoms: O_17  and  C_2 
REMARK    3  A    between atoms: C_15  and  C_3 
REMARK    4  A    between atoms: C_5  and  C_16 
REMARK       I    between atoms: N_9  and  C_5 
REMARK    5  A    between atoms: C_14  and  N_9 
REMARK    6  A    between atoms: C_16  and  C_15 
REMARK    7  A    between atoms: C_21  and  O_17 
ROOT
ATOM      1  C   UNL d   1      30.574  17.175 -24.233  0.00  0.00     0.064 A 
ATOM      2  C   UNL d   1      31.298  16.999 -24.606  0.00  0.00     0.007 A 
ATOM      3  C   UNL d   1      30.340  17.968 -24.154  0.00  0.00     0.007 A 
ATOM      4  C   UNL d   1      31.529  18.389 -24.807  0.00  0.00     0.085 A 
ATOM      5  C   UNL d   1      31.769  17.607 -24.889  0.00  0.00     0.019 A 
ATOM      6  C   UNL d   1      30.822  18.565 -24.443  0.00  0.00     0.019 A 
ENDROOT
BRANCH   4   7
ATOM      7  N   UNL d   1      32.011  19.002 -25.097  0.00  0.00    -0.208 NA
ATOM      8  C   UNL d   1      32.544  19.376 -24.592  0.00  0.00     0.279 C 
ATOM      9  O   UNL d   1      33.022  19.982 -24.873  0.00  0.00    -0.265 OA
BRANCH   8  10
ATOM     10  C   UNL d   1      32.604  19.146 -23.801  0.00  0.00     0.065 C 
BRANCH  10  11
ATOM     11  C   UNL d   1      33.241  19.391 -23.347  0.00  0.00     0.030 C 
BRANCH  11  12
ATOM     12  C   UNL d   1      33.151  19.514 -22.535  0.00  0.00     0.100 A 
ATOM     13  O   UNL d   1      32.971  20.227 -22.155  0.00  0.00    -0.307 OA
ATOM     14  C   UNL d   1      32.935  20.094 -21.350  0.00  0.00     0.100 A 
ATOM     15  C   UNL d   1      33.094  19.291 -21.219  0.00  0.00     0.027 A 
ATOM     16  C   UNL d   1      32.772  20.652 -20.772  0.00  0.00     0.027 C 
ATOM     17  C   UNL d   1      33.227  18.933 -21.950  0.00  0.00     0.027 A 
ENDBRANCH  11  12
ENDBRANCH  10  11
ENDBRANCH   8  10
ENDBRANCH   4   7
BRANCH   1  18
ATOM     18  C   UNL d   1      30.101  16.569 -23.949  0.00  0.00     0.300 C 
ATOM     19  O   UNL d   1      30.278  16.219 -23.211  0.00  0.00    -0.259 OA
BRANCH  18  20
ATOM     20  O   UNL d   1      29.449  16.299 -24.384  0.00  0.00    -0.271 OA
BRANCH  20  21
ATOM     21  C   UNL d   1      29.081  15.587 -24.159  0.00  0.00     0.126 C 
ATOM     22  C   UNL d   1      28.252  15.543 -24.166  0.00  0.00     0.029 C 
ENDBRANCH  20  21
ENDBRANCH  18  20
ENDBRANCH   1  18
TORSDOF 7
ENDMDL
MODEL 3
REMARK VINA RESULT:      -0.0      1.261      4.295
REMARK  7 active torsions:
REMARK  status: ('A' for Active; 'I' for Inactive)
REMARK    1  A    between atoms: C_2  and  C_8 
REMARK    2  A    between atoms: O_17  and  C_2 
REMARK    3  A    between atoms: C_15  and  C_3 
REMARK    4  A    between atoms: C_5  and  C_16 
REMARK       I    between atoms: N_9  and  C_5 
REMARK    5  A    between atoms: C_14  and  N_9 
REMARK    6  A    between atoms: C_16  and  C_15 
REMARK    7  A    between atoms: C_21  and  O_17 
ROOT
ATOM      1  C   UNL d   1      33.124  18.865 -23.268  0.00  0.00     0.064 A 
ATOM      2  C   UNL d   1      33.212  18.760 -24.090  0.00  0.00     0.007 A 
ATOM      3  C   UNL d   1      33.067  18.197 -22.778  0.00  0.00     0.007 A 
ATOM      4  C   UNL d   1      33.183  17.347 -23.910  0.00  0.00     0.085 A 
ATOM      5  C   UNL d   1      33.241  18.002 -24.403  0.00  0.00     0.019 A 
ATOM      6  C   UNL d   1      33.097  17.446 -23.106  0.00  0.00     0.019 A 
ENDROOT
BRANCH   4   7
ATOM      7  N   UNL d   1      33.213  16.582 -24.233  0.00  0.00    -0.208 NA
ATOM      8  C   UNL d   1      32.517  16.209 -24.467  0.00  0.00     0.279 C 
ATOM      9  O   UNL d   1      32.541  15.453 -24.787  0.00  0.00    -0.265 OA
BRANCH   8  10
ATOM     10  C   UNL d   1      31.789  16.591 -24.382  0.00  0.00     0.065 C 
BRANCH  10  11
ATOM     11  C   UNL d   1      31.103  16.237 -24.659  0.00  0.00     0.030 C 
BRANCH  11  12
ATOM     12  C   UNL d   1      30.368  16.587 -24.517  0.00  0.00     0.100 A 
ATOM     13  O   UNL d   1      30.048  17.248 -24.899  0.00  0.00    -0.307 OA
ATOM     14  C   UNL d   1      29.310  17.402 -24.585  0.00  0.00     0.100 A 
ATOM     15  C   UNL d   1      29.161  16.834 -23.999  0.00  0.00     0.027 A 
ATOM     16  C   UNL d   1      28.805  18.007 -24.806  0.00  0.00     0.027 C 
ATOM     17  C   UNL d   1      29.814  16.331 -23.957  0.00  0.00     0.027 A 
ENDBRANCH  11  12
ENDBRANCH  10  11
ENDBRANCH   8  10
ENDBRANCH   4   7
BRANCH   1  18
ATOM     18  C   UNL d   1      33.095  19.620 -22.952  0.00  0.00     0.300 C 
ATOM     19  O   UNL d   1      33.225  20.280 -23.447  0.00  0.00    -0.259 OA
BRANCH  18  20
ATOM     20  O   UNL d   1      32.938  19.737 -22.146  0.00  0.00    -0.271 OA
BRANCH  20  21
ATOM     21  C   UNL d   1      32.935  20.514 -21.845  0.00  0.00     0.126 C 
ATOM     22  C   UNL d   1      32.765  20.632 -21.042  0.00  0.00     0.029 C 
ENDBRANCH  20  21
ENDBRANCH  18  20
ENDBRANCH   1  18
TORSDOF 7
ENDMDL
