MODEL 1
REMARK VINA RESULT:      -0.0      0.000      0.000
REMARK  5 active torsions:
REMARK  status: ('A' for Active; 'I' for Inactive)
REMARK    1  A    between atoms: S_5  and  C_3 
REMARK    2  A    between atoms: C_13  and  S_5 
REMARK    3  A    between atoms: C_23  and  N_7 
REMARK    4  A    between atoms: C_30  and  C_23 
REMARK    5  A    between atoms: O_29  and  C_30 
ROOT
ATOM      1  C   UNL d   1      58.612  -0.450  30.804  0.00  0.00     0.155 A 
ATOM      2  C   UNL d   1      57.975  -0.950  30.697  0.00  0.00     0.092 A 
ATOM      3  C   UNL d   1      57.333  -0.372  31.816  0.00  0.00     0.124 A 
ATOM      4  N   UNL d   1      59.254  -0.484  30.302  0.00  0.00    -0.210 NA
ATOM      5  N   UNL d   1      58.632  -1.522  29.573  0.00  0.00    -0.258 N 
ATOM      6  N   UNL d   1      58.614   0.092  31.417  0.00  0.00    -0.271 N 
ATOM      7  C   UNL d   1      59.264  -1.020  29.686  0.00  0.00     0.152 A 
ATOM      8  C   UNL d   1      57.970   0.127  31.923  0.00  0.00     0.181 A 
ATOM      9  C   UNL d   1      57.982  -1.487  30.081  0.00  0.00     0.269 A 
ATOM     10  C   UNL d   1      57.333  -0.915  31.199  0.00  0.00     0.022 A 
ATOM     11  C   UNL d   1      59.906  -1.053  29.185  0.00  0.00     0.035 A 
ATOM     12  C   UNL d   1      58.638  -2.060  28.957  0.00  0.00     0.084 A 
ATOM     13  N   UNL d   1      57.971   0.682  32.552  0.00  0.00    -0.128 N 
ATOM     14  O   UNL d   1      57.332  -2.003  29.964  0.00  0.00    -0.266 OA
ATOM     15  C   UNL d   1      59.284  -2.091  28.456  0.00  0.00     0.019 A 
ATOM     16  C   UNL d   1      59.917  -1.588  28.569  0.00  0.00     0.005 A 
ATOM     17  C   UNL d   1      60.556  -0.537  29.302  0.00  0.00     0.003 C 
ENDROOT
BRANCH   3  18
ATOM     18  S   UNL d   1      56.683  -0.331  32.332  0.00  0.00     0.213 S 
ATOM     19  O   UNL d   1      56.937  -1.020  32.729  0.00  0.00    -0.217 OA
ATOM     20  O   UNL d   1      56.424   0.354  31.942  0.00  0.00    -0.217 OA
BRANCH  18  21
ATOM     21  C   UNL d   1      56.025  -0.280  32.843  0.00  0.00     0.088 A 
ATOM     22  C   UNL d   1      55.752   0.458  33.097  0.00  0.00     0.014 A 
ATOM     23  C   UNL d   1      55.097   0.506  33.607  0.00  0.00     0.030 A 
ATOM     24  C   UNL d   1      54.717  -0.191  33.861  0.00  0.00     0.140 A 
ATOM     25  C   UNL d   1      54.999  -0.937  33.600  0.00  0.00     0.030 A 
ATOM     26  F   UNL d   1      54.056  -0.148  34.375  0.00  0.00    -0.204 F 
ATOM     27  C   UNL d   1      55.650  -0.976  33.094  0.00  0.00     0.014 A 
ENDBRANCH  18  21
ENDBRANCH   3  18
BRANCH   6  28
ATOM     28  C   UNL d   1      59.261   0.598  31.526  0.00  0.00     0.109 C 
BRANCH  28  29
ATOM     29  C   UNL d   1      59.661   0.611  32.255  0.00  0.00     0.135 C 
BRANCH  29  30
ATOM     30  O   UNL d   1      60.495   0.682  32.273  0.00  0.00    -0.325 OA
ATOM     31  C   UNL d   1      60.902   0.624  32.997  0.00  0.00     0.182 C 
ENDBRANCH  29  30
ENDBRANCH  28  29
ENDBRANCH   6  28
TORSDOF 5
ENDMDL
