MODEL 1
REMARK VINA RESULT:      -5.0      0.000      0.000
REMARK  6 active torsions:
REMARK  status: ('A' for Active; 'I' for Inactive)
REMARK    1  A    between atoms: C_3  and  S_1 
REMARK    2  A    between atoms: N_12  and  S_1 
REMARK    3  A    between atoms: C_6  and  C_16 
REMARK    4  A    between atoms: C_17  and  N_12 
REMARK    5  A    between atoms: O_18  and  C_13 
REMARK    6  A    between atoms: C_16  and  C_17 
ROOT
ATOM      1  S   UNL d   1     -41.435-122.461 -51.002  0.00  0.00     0.285 S 
ATOM      2  O   UNL d   1     -41.123-123.208 -51.192  0.00  0.00    -0.198 OA
ATOM      3  O   UNL d   1     -41.746-121.717 -50.812  0.00  0.00    -0.198 OA
ENDROOT
BRANCH   1   4
ATOM      4  C   UNL d   1     -41.743-122.769 -50.305  0.00  0.00     0.105 A 
ATOM      5  C   UNL d   1     -42.482-123.125 -50.304  0.00  0.00     0.015 A 
ATOM      6  C   UNL d   1     -42.787-123.435 -49.594  0.00  0.00     0.023 A 
ATOM      7  C   UNL d   1     -43.533-123.795 -49.591  0.00  0.00     0.002 C 
ATOM      8  C   UNL d   1     -42.355-123.384 -48.906  0.00  0.00     0.094 A 
ATOM      9  C   UNL d   1     -41.612-123.025 -48.909  0.00  0.00     0.025 A 
ATOM     10  C   UNL d   1     -41.307-122.719 -49.605  0.00  0.00     0.015 A 
BRANCH   8  11
ATOM     11  O   UNL d   1     -42.658-123.690 -48.206  0.00  0.00    -0.328 OA
ATOM     12  C   UNL d   1     -42.199-123.698 -47.525  0.00  0.00     0.181 C 
ENDBRANCH   8  11
ENDBRANCH   1   4
BRANCH   1  13
ATOM     13  N   UNL d   1     -41.123-122.159 -51.704  0.00  0.00    -0.157 NA
BRANCH  13  14
ATOM     14  C   UNL d   1     -41.440-122.415 -52.439  0.00  0.00     0.114 C 
BRANCH  14  15
ATOM     15  C   UNL d   1     -41.131-122.122 -53.139  0.00  0.00     0.041 C 
BRANCH  15  16
ATOM     16  C   UNL d   1     -41.469-122.325 -53.865  0.00  0.00     0.090 A 
ATOM     17  N   UNL d   1     -41.902-121.813 -54.350  0.00  0.00    -0.238 NA
ATOM     18  C   UNL d   1     -42.135-122.242 -55.019  0.00  0.00     0.111 A 
ATOM     19  C   UNL d   1     -42.583-121.952 -55.658  0.00  0.00     0.028 C 
ATOM     20  S   UNL d   1     -41.848-123.012 -54.949  0.00  0.00    -0.066 SA
ATOM     21  C   UNL d   1     -41.434-123.063 -54.231  0.00  0.00     0.056 A 
ENDBRANCH  15  16
ENDBRANCH  14  15
ENDBRANCH  13  14
ENDBRANCH   1  13
TORSDOF 6
ENDMDL
MODEL 2
REMARK VINA RESULT:      -4.6      1.504      5.003
REMARK  6 active torsions:
REMARK  status: ('A' for Active; 'I' for Inactive)
REMARK    1  A    between atoms: C_3  and  S_1 
REMARK    2  A    between atoms: N_12  and  S_1 
REMARK    3  A    between atoms: C_6  and  C_16 
REMARK    4  A    between atoms: C_17  and  N_12 
REMARK    5  A    between atoms: O_18  and  C_13 
REMARK    6  A    between atoms: C_16  and  C_17 
ROOT
ATOM      1  S   UNL d   1     -41.306-122.479 -52.142  0.00  0.00     0.285 S 
ATOM      2  O   UNL d   1     -41.219-123.306 -52.158  0.00  0.00    -0.198 OA
ATOM      3  O   UNL d   1     -41.393-121.655 -52.129  0.00  0.00    -0.198 OA
ENDROOT
BRANCH   1   4
ATOM      4  C   UNL d   1     -41.466-122.483 -52.949  0.00  0.00     0.105 A 
ATOM      5  C   UNL d   1     -41.212-123.109 -53.416  0.00  0.00     0.015 A 
ATOM      6  C   UNL d   1     -41.378-123.106 -54.231  0.00  0.00     0.023 A 
ATOM      7  C   UNL d   1     -41.123-123.737 -54.703  0.00  0.00     0.002 C 
ATOM      8  C   UNL d   1     -41.789-122.487 -54.563  0.00  0.00     0.094 A 
ATOM      9  C   UNL d   1     -42.043-121.859 -54.093  0.00  0.00     0.025 A 
ATOM     10  C   UNL d   1     -41.882-121.856 -53.290  0.00  0.00     0.015 A 
BRANCH   8  11
ATOM     11  O   UNL d   1     -41.951-122.486 -55.369  0.00  0.00    -0.328 OA
ATOM     12  C   UNL d   1     -42.524-121.984 -55.675  0.00  0.00     0.181 C 
ENDBRANCH   8  11
ENDBRANCH   1   4
BRANCH   1  13
ATOM     13  N   UNL d   1     -41.144-122.483 -51.333  0.00  0.00    -0.157 NA
BRANCH  13  14
ATOM     14  C   UNL d   1     -41.734-122.749 -50.798  0.00  0.00     0.114 C 
BRANCH  14  15
ATOM     15  C   UNL d   1     -41.754-122.450 -50.035  0.00  0.00     0.041 C 
BRANCH  15  16
ATOM     16  C   UNL d   1     -42.177-122.840 -49.441  0.00  0.00     0.090 A 
ATOM     17  N   UNL d   1     -41.905-122.973 -48.670  0.00  0.00    -0.238 NA
ATOM     18  C   UNL d   1     -42.502-123.379 -48.265  0.00  0.00     0.111 A 
ATOM     19  C   UNL d   1     -42.474-123.631 -47.471  0.00  0.00     0.028 C 
ATOM     20  S   UNL d   1     -43.136-123.497 -48.779  0.00  0.00    -0.066 SA
ATOM     21  C   UNL d   1     -42.933-123.161 -49.511  0.00  0.00     0.056 A 
ENDBRANCH  15  16
ENDBRANCH  14  15
ENDBRANCH  13  14
ENDBRANCH   1  13
TORSDOF 6
ENDMDL
