MODEL 1
REMARK VINA RESULT:      -8.8      0.000      0.000
REMARK  6 active torsions:
REMARK  status: ('A' for Active; 'I' for Inactive)
REMARK    1  A    between atoms: N_3  and  S_1 
REMARK    2  A    between atoms: C_11  and  S_1 
REMARK    3  A    between atoms: C_2  and  N_3 
REMARK    4  A    between atoms: C_5  and  C_7 
REMARK       I    between atoms: C_7  and  N_12 
REMARK    5  A    between atoms: C_27  and  C_9 
REMARK    6  A    between atoms: N_12  and  C_20 
ROOT
ATOM      1  C   UNL d   1      51.873  34.216  53.055  0.00  0.00     0.105 A 
ATOM      2  C   UNL d   1      51.788  33.895  53.810  0.00  0.00     0.015 A 
ATOM      3  C   UNL d   1      52.552  34.626  52.850  0.00  0.00     0.015 A 
ATOM      4  C   UNL d   1      53.080  34.403  54.153  0.00  0.00     0.085 A 
ATOM      5  C   UNL d   1      52.401  33.993  54.358  0.00  0.00     0.020 A 
ATOM      6  C   UNL d   1      53.155  34.720  53.397  0.00  0.00     0.020 A 
ENDROOT
BRANCH   1   7
ATOM      7  S   UNL d   1      51.255  34.119  52.495  0.00  0.00     0.287 S 
ATOM      8  O   UNL d   1      51.795  33.795  51.961  0.00  0.00    -0.198 OA
ATOM      9  O   UNL d   1      50.637  34.031  51.954  0.00  0.00    -0.198 OA
BRANCH   7  10
ATOM     10  N   UNL d   1      50.719  34.448  53.040  0.00  0.00    -0.130 NA
BRANCH  10  11
ATOM     11  C   UNL d   1      49.973  34.707  52.791  0.00  0.00     0.227 A 
ATOM     12  S   UNL d   1      49.486  35.185  53.215  0.00  0.00    -0.025 SA
ATOM     13  C   UNL d   1      48.784  35.311  52.755  0.00  0.00     0.135 A 
ATOM     14  N   UNL d   1      48.873  34.889  52.041  0.00  0.00    -0.139 NA
ATOM     15  N   UNL d   1      49.625  34.518  52.082  0.00  0.00    -0.120 NA
BRANCH  13  16
ATOM     16  C   UNL d   1      48.094  35.736  52.879  0.00  0.00     0.028 C 
ATOM     17  C   UNL d   1      48.047  36.240  53.542  0.00  0.00     0.002 C 
ENDBRANCH  13  16
ENDBRANCH  10  11
ENDBRANCH   7  10
ENDBRANCH   1   7
BRANCH   4  18
ATOM     18  N   UNL d   1      53.704  34.505  54.705  0.00  0.00    -0.208 NA
ATOM     19  C   UNL d   1      54.225  33.875  54.857  0.00  0.00     0.280 C 
ATOM     20  O   UNL d   1      54.838  33.964  55.394  0.00  0.00    -0.265 OA
BRANCH  19  21
ATOM     21  C   UNL d   1      54.122  33.157  54.464  0.00  0.00     0.069 A 
ATOM     22  C   UNL d   1      54.636  32.938  53.862  0.00  0.00     0.063 A 
ATOM     23  C   UNL d   1      54.534  32.225  53.472  0.00  0.00     0.023 A 
ATOM     24 CL   UNL d   1      55.255  33.427  53.647  0.00  0.00    -0.082 Cl
ATOM     25  C   UNL d   1      53.914  31.711  53.672  0.00  0.00     0.059 A 
ATOM     26  C   UNL d   1      53.390  31.942  54.289  0.00  0.00     0.012 A 
ATOM     27 CL   UNL d   1      53.810  30.991  53.277  0.00  0.00    -0.082 Cl
ATOM     28  C   UNL d   1      53.493  32.654  54.680  0.00  0.00     0.006 A 
ENDBRANCH  19  21
ENDBRANCH   4  18
TORSDOF 6
ENDMDL
MODEL 2
REMARK VINA RESULT:      -7.9      2.848      4.561
REMARK  6 active torsions:
REMARK  status: ('A' for Active; 'I' for Inactive)
REMARK    1  A    between atoms: N_3  and  S_1 
REMARK    2  A    between atoms: C_11  and  S_1 
REMARK    3  A    between atoms: C_2  and  N_3 
REMARK    4  A    between atoms: C_5  and  C_7 
REMARK       I    between atoms: C_7  and  N_12 
REMARK    5  A    between atoms: C_27  and  C_9 
REMARK    6  A    between atoms: N_12  and  C_20 
ROOT
ATOM      1  C   UNL d   1      54.072  32.587  53.817  0.00  0.00     0.105 A 
ATOM      2  C   UNL d   1      54.394  33.241  53.431  0.00  0.00     0.015 A 
ATOM      3  C   UNL d   1      53.590  32.685  54.473  0.00  0.00     0.015 A 
ATOM      4  C   UNL d   1      53.742  34.097  54.372  0.00  0.00     0.085 A 
ATOM      5  C   UNL d   1      54.223  33.999  53.717  0.00  0.00     0.020 A 
ATOM      6  C   UNL d   1      53.425  33.438  54.751  0.00  0.00     0.020 A 
ENDROOT
BRANCH   1   7
ATOM      7  S   UNL d   1      54.242  31.815  53.532  0.00  0.00     0.287 S 
ATOM      8  O   UNL d   1      54.958  32.090  53.227  0.00  0.00    -0.198 OA
ATOM      9  O   UNL d   1      54.395  31.051  53.258  0.00  0.00    -0.198 OA
BRANCH   7  10
ATOM     10  N   UNL d   1      53.517  31.549  53.844  0.00  0.00    -0.130 NA
BRANCH  10  11
ATOM     11  C   UNL d   1      53.296  30.754  53.770  0.00  0.00     0.227 A 
ATOM     12  S   UNL d   1      53.471  30.177  54.300  0.00  0.00    -0.025 SA
ATOM     13  C   UNL d   1      53.141  29.451  54.009  0.00  0.00     0.135 A 
ATOM     14  N   UNL d   1      52.763  29.620  53.285  0.00  0.00    -0.139 NA
ATOM     15  N   UNL d   1      52.871  30.442  53.153  0.00  0.00    -0.120 NA
BRANCH  13  16
ATOM     16  C   UNL d   1      53.130  28.681  54.290  0.00  0.00     0.028 C 
ATOM     17  C   UNL d   1      53.340  28.541  55.085  0.00  0.00     0.002 C 
ENDBRANCH  13  16
ENDBRANCH  10  11
ENDBRANCH   7  10
ENDBRANCH   1   7
BRANCH   4  18
ATOM     18  N   UNL d   1      53.565  34.863  54.666  0.00  0.00    -0.208 NA
ATOM     19  C   UNL d   1      52.958  35.309  54.313  0.00  0.00     0.280 C 
ATOM     20  O   UNL d   1      52.777  36.058  54.591  0.00  0.00    -0.265 OA
BRANCH  19  21
ATOM     21  C   UNL d   1      52.536  34.991  53.678  0.00  0.00     0.069 A 
ATOM     22  C   UNL d   1      51.759  34.747  53.779  0.00  0.00     0.063 A 
ATOM     23  C   UNL d   1      51.340  34.432  53.149  0.00  0.00     0.023 A 
ATOM     24 CL   UNL d   1      51.394  34.816  54.507  0.00  0.00    -0.082 Cl
ATOM     25  C   UNL d   1      51.688  34.352  52.399  0.00  0.00     0.059 A 
ATOM     26  C   UNL d   1      52.485  34.604  52.303  0.00  0.00     0.012 A 
ATOM     27 CL   UNL d   1      51.265  34.034  51.763  0.00  0.00    -0.082 Cl
ATOM     28  C   UNL d   1      52.903  34.919  52.933  0.00  0.00     0.006 A 
ENDBRANCH  19  21
ENDBRANCH   4  18
TORSDOF 6
ENDMDL
MODEL 3
REMARK VINA RESULT:      -7.8      2.467      4.224
REMARK  6 active torsions:
REMARK  status: ('A' for Active; 'I' for Inactive)
REMARK    1  A    between atoms: N_3  and  S_1 
REMARK    2  A    between atoms: C_11  and  S_1 
REMARK    3  A    between atoms: C_2  and  N_3 
REMARK    4  A    between atoms: C_5  and  C_7 
REMARK       I    between atoms: C_7  and  N_12 
REMARK    5  A    between atoms: C_27  and  C_9 
REMARK    6  A    between atoms: N_12  and  C_20 
ROOT
ATOM      1  C   UNL d   1      52.462  32.590  52.987  0.00  0.00     0.105 A 
ATOM      2  C   UNL d   1      52.939  33.143  52.604  0.00  0.00     0.015 A 
ATOM      3  C   UNL d   1      51.954  32.821  53.586  0.00  0.00     0.015 A 
ATOM      4  C   UNL d   1      52.389  34.169  53.434  0.00  0.00     0.085 A 
ATOM      5  C   UNL d   1      52.897  33.937  52.835  0.00  0.00     0.020 A 
ATOM      6  C   UNL d   1      51.917  33.609  53.811  0.00  0.00     0.020 A 
ENDROOT
BRANCH   1   7
ATOM      7  S   UNL d   1      52.501  31.783  52.758  0.00  0.00     0.287 S 
ATOM      8  O   UNL d   1      52.148  31.976  52.036  0.00  0.00    -0.198 OA
ATOM      9  O   UNL d   1      52.546  30.986  52.546  0.00  0.00    -0.198 OA
BRANCH   7  10
ATOM     10  N   UNL d   1      52.855  31.600  53.488  0.00  0.00    -0.130 NA
BRANCH  10  11
ATOM     11  C   UNL d   1      53.194  30.854  53.614  0.00  0.00     0.227 A 
ATOM     12  S   UNL d   1      52.867  30.269  54.057  0.00  0.00    -0.025 SA
ATOM     13  C   UNL d   1      53.395  29.606  54.038  0.00  0.00     0.135 A 
ATOM     14  N   UNL d   1      54.049  29.819  53.566  0.00  0.00    -0.139 NA
ATOM     15  N   UNL d   1      53.904  30.606  53.310  0.00  0.00    -0.120 NA
BRANCH  13  16
ATOM     16  C   UNL d   1      53.376  28.858  54.372  0.00  0.00     0.028 C 
ATOM     17  C   UNL d   1      53.367  28.789  55.203  0.00  0.00     0.002 C 
ENDBRANCH  13  16
ENDBRANCH  10  11
ENDBRANCH   7  10
ENDBRANCH   1   7
BRANCH   4  18
ATOM     18  N   UNL d   1      52.342  34.972  53.672  0.00  0.00    -0.208 NA
ATOM     19  C   UNL d   1      52.916  35.282  54.188  0.00  0.00     0.280 C 
ATOM     20  O   UNL d   1      52.880  36.066  54.427  0.00  0.00    -0.265 OA
BRANCH  19  21
ATOM     21  C   UNL d   1      53.524  34.795  54.461  0.00  0.00     0.069 A 
ATOM     22  C   UNL d   1      53.525  34.530  55.238  0.00  0.00     0.063 A 
ATOM     23  C   UNL d   1      54.129  34.047  55.508  0.00  0.00     0.023 A 
ATOM     24 CL   UNL d   1      52.926  34.745  55.750  0.00  0.00    -0.082 Cl
ATOM     25  C   UNL d   1      54.749  33.814  55.008  0.00  0.00     0.059 A 
ATOM     26  C   UNL d   1      54.742  34.089  54.212  0.00  0.00     0.012 A 
ATOM     27 CL   UNL d   1      55.359  33.326  55.281  0.00  0.00    -0.082 Cl
ATOM     28  C   UNL d   1      54.138  34.572  53.943  0.00  0.00     0.006 A 
ENDBRANCH  19  21
ENDBRANCH   4  18
TORSDOF 6
ENDMDL
MODEL 4
REMARK VINA RESULT:      -6.2      1.505      2.316
REMARK  6 active torsions:
REMARK  status: ('A' for Active; 'I' for Inactive)
REMARK    1  A    between atoms: N_3  and  S_1 
REMARK    2  A    between atoms: C_11  and  S_1 
REMARK    3  A    between atoms: C_2  and  N_3 
REMARK    4  A    between atoms: C_5  and  C_7 
REMARK       I    between atoms: C_7  and  N_12 
REMARK    5  A    between atoms: C_27  and  C_9 
REMARK    6  A    between atoms: N_12  and  C_20 
ROOT
ATOM      1  C   UNL d   1      50.694  34.059  52.465  0.00  0.00     0.105 A 
ATOM      2  C   UNL d   1      51.390  34.191  52.042  0.00  0.00     0.015 A 
ATOM      3  C   UNL d   1      50.673  33.508  53.071  0.00  0.00     0.015 A 
ATOM      4  C   UNL d   1      52.047  33.208  52.846  0.00  0.00     0.085 A 
ATOM      5  C   UNL d   1      52.068  33.758  52.240  0.00  0.00     0.020 A 
ATOM      6  C   UNL d   1      51.348  33.083  53.262  0.00  0.00     0.020 A 
ENDROOT
BRANCH   1   7
ATOM      7  S   UNL d   1      50.004  34.494  52.269  0.00  0.00     0.287 S 
ATOM      8  O   UNL d   1      50.143  34.348  51.468  0.00  0.00    -0.198 OA
ATOM      9  O   UNL d   1      49.322  34.925  52.092  0.00  0.00    -0.198 OA
BRANCH   7  10
ATOM     10  N   UNL d   1      49.872  34.636  53.079  0.00  0.00    -0.130 NA
BRANCH  10  11
ATOM     11  C   UNL d   1      49.331  35.214  53.320  0.00  0.00     0.227 A 
ATOM     12  S   UNL d   1      48.538  35.183  53.196  0.00  0.00    -0.025 SA
ATOM     13  C   UNL d   1      48.197  35.883  53.531  0.00  0.00     0.135 A 
ATOM     14  N   UNL d   1      48.818  36.333  53.860  0.00  0.00    -0.139 NA
ATOM     15  N   UNL d   1      49.521  35.896  53.717  0.00  0.00    -0.120 NA
BRANCH  13  16
ATOM     16  C   UNL d   1      47.431  36.171  53.584  0.00  0.00     0.028 C 
ATOM     17  C   UNL d   1      47.119  36.345  54.338  0.00  0.00     0.002 C 
ENDBRANCH  13  16
ENDBRANCH  10  11
ENDBRANCH   7  10
ENDBRANCH   1   7
BRANCH   4  18
ATOM     18  N   UNL d   1      52.730  32.767  53.050  0.00  0.00    -0.208 NA
ATOM     19  C   UNL d   1      53.313  33.112  53.534  0.00  0.00     0.280 C 
ATOM     20  O   UNL d   1      53.985  32.690  53.740  0.00  0.00    -0.265 OA
BRANCH  19  21
ATOM     21  C   UNL d   1      53.210  33.885  53.807  0.00  0.00     0.069 A 
ATOM     22  C   UNL d   1      53.092  34.028  54.607  0.00  0.00     0.063 A 
ATOM     23  C   UNL d   1      52.990  34.794  54.878  0.00  0.00     0.023 A 
ATOM     24 CL   UNL d   1      53.074  33.409  55.141  0.00  0.00    -0.082 Cl
ATOM     25  C   UNL d   1      53.003  35.440  54.356  0.00  0.00     0.059 A 
ATOM     26  C   UNL d   1      53.125  35.285  53.537  0.00  0.00     0.012 A 
ATOM     27 CL   UNL d   1      52.900  36.213  54.629  0.00  0.00    -0.082 Cl
ATOM     28  C   UNL d   1      53.227  34.519  53.267  0.00  0.00     0.006 A 
ENDBRANCH  19  21
ENDBRANCH   4  18
TORSDOF 6
ENDMDL
