MODEL 1
REMARK VINA RESULT:      -7.6      0.000      0.000
REMARK  5 active torsions:
REMARK  status: ('A' for Active; 'I' for Inactive)
REMARK    1  A    between atoms: C_8  and  N_1 
REMARK    2  A    between atoms: S_4  and  C_10 
REMARK    3  A    between atoms: C_5  and  C_8 
REMARK       I    between atoms: N_9  and  C_5 
REMARK    4  A    between atoms: C_20  and  C_8 
REMARK    5  A    between atoms: C_19  and  N_9 
ROOT
ATOM      1  C   UNL d   1     -48.849  12.864  22.500  0.00  0.00     0.140 C 
ENDROOT
BRANCH   1   2
ATOM      2  C   UNL d   1     -48.241  12.590  22.986  0.00  0.00     0.344 C 
ATOM      3  N   UNL d   1     -47.461  12.697  22.758  0.00  0.00    -0.363 NA
ATOM      4  O   UNL d   1     -48.422  12.211  23.697  0.00  0.00    -0.249 OA
BRANCH   3   5
ATOM      5  C   UNL d   1     -46.676  12.790  22.555  0.00  0.00     0.135 A 
ATOM      6  C   UNL d   1     -46.246  13.456  22.783  0.00  0.00     0.033 A 
ATOM      7  C   UNL d   1     -45.452  13.536  22.572  0.00  0.00     0.016 A 
ATOM      8  C   UNL d   1     -45.089  12.938  22.125  0.00  0.00     0.107 A 
ATOM      9  C   UNL d   1     -45.519  12.273  21.897  0.00  0.00     0.016 A 
ATOM     10  C   UNL d   1     -46.313  12.200  22.113  0.00  0.00     0.033 A 
BRANCH   8  11
ATOM     11  S   UNL d   1     -44.295  13.018  21.913  0.00  0.00     0.302 S 
ATOM     12  O   UNL d   1     -44.417  13.784  21.749  0.00  0.00    -0.197 OA
ATOM     13  O   UNL d   1     -44.173  12.221  22.085  0.00  0.00    -0.197 OA
ATOM     14  N   UNL d   1     -43.505  13.094  21.703  0.00  0.00    -0.043 N 
ENDBRANCH   8  11
ENDBRANCH   3   5
ENDBRANCH   1   2
BRANCH   1  15
ATOM     15  N   UNL d   1     -49.301  13.515  22.734  0.00  0.00    -0.236 N 
ATOM     16  C   UNL d   1     -49.141  14.308  22.567  0.00  0.00     0.267 A 
ATOM     17  C   UNL d   1     -49.741  14.770  22.909  0.00  0.00     0.061 A 
ATOM     18  O   UNL d   1     -48.498  14.592  22.136  0.00  0.00    -0.267 OA
ATOM     19  C   UNL d   1     -49.882  15.590  22.931  0.00  0.00     0.005 A 
ATOM     20  C   UNL d   1     -50.276  14.255  23.291  0.00  0.00     0.061 A 
ATOM     21  C   UNL d   1     -50.537  15.889  23.322  0.00  0.00     0.000 A 
ATOM     22  C   UNL d   1     -51.064  15.376  23.698  0.00  0.00     0.000 A 
ATOM     23  C   UNL d   1     -50.934  14.564  23.682  0.00  0.00     0.005 A 
ATOM     24  C   UNL d   1     -50.005  13.479  23.183  0.00  0.00     0.267 A 
ATOM     25  O   UNL d   1     -50.367  12.801  23.468  0.00  0.00    -0.267 OA
ENDBRANCH   1  15
BRANCH   1  26
ATOM     26  C   UNL d   1     -48.999  12.489  21.791  0.00  0.00     0.022 C 
ATOM     27  C   UNL d   1     -48.965  12.902  21.082  0.00  0.00     0.002 C 
ATOM     28  C   UNL d   1     -49.187  11.686  21.785  0.00  0.00     0.002 C 
ENDBRANCH   1  26
TORSDOF 5
ENDMDL
MODEL 2
REMARK VINA RESULT:      -7.6      8.785     10.365
REMARK  5 active torsions:
REMARK  status: ('A' for Active; 'I' for Inactive)
REMARK    1  A    between atoms: C_8  and  N_1 
REMARK    2  A    between atoms: S_4  and  C_10 
REMARK    3  A    between atoms: C_5  and  C_8 
REMARK       I    between atoms: N_9  and  C_5 
REMARK    4  A    between atoms: C_20  and  C_8 
REMARK    5  A    between atoms: C_19  and  N_9 
ROOT
ATOM      1  C   UNL d   1     -39.735  14.689  18.494  0.00  0.00     0.140 C 
ENDROOT
BRANCH   1   2
ATOM      2  C   UNL d   1     -39.353  15.111  19.092  0.00  0.00     0.344 C 
ATOM      3  N   UNL d   1     -39.133  14.725  19.782  0.00  0.00    -0.363 NA
ATOM      4  O   UNL d   1     -39.196  15.915  18.994  0.00  0.00    -0.249 OA
BRANCH   3   5
ATOM      5  C   UNL d   1     -38.903  14.367  20.478  0.00  0.00     0.135 A 
ATOM      6  C   UNL d   1     -38.168  14.000  20.554  0.00  0.00     0.033 A 
ATOM      7  C   UNL d   1     -37.948  13.642  21.264  0.00  0.00     0.016 A 
ATOM      8  C   UNL d   1     -38.476  13.655  21.905  0.00  0.00     0.107 A 
ATOM      9  C   UNL d   1     -39.211  14.021  21.829  0.00  0.00     0.016 A 
ATOM     10  C   UNL d   1     -39.423  14.377  21.114  0.00  0.00     0.033 A 
BRANCH   8  11
ATOM     11  S   UNL d   1     -38.257  13.297  22.615  0.00  0.00     0.302 S 
ATOM     12  O   UNL d   1     -38.045  12.643  22.221  0.00  0.00    -0.197 OA
ATOM     13  O   UNL d   1     -38.478  13.979  23.023  0.00  0.00    -0.197 OA
ATOM     14  N   UNL d   1     -38.039  12.944  23.324  0.00  0.00    -0.043 N 
ENDBRANCH   8  11
ENDBRANCH   3   5
ENDBRANCH   1   2
BRANCH   1  15
ATOM     15  N   UNL d   1     -39.315  14.458  17.821  0.00  0.00    -0.236 N 
ATOM     16  C   UNL d   1     -39.072  14.949  17.203  0.00  0.00     0.267 A 
ATOM     17  C   UNL d   1     -38.669  14.482  16.646  0.00  0.00     0.061 A 
ATOM     18  O   UNL d   1     -39.205  15.760  17.148  0.00  0.00    -0.267 OA
ATOM     19  C   UNL d   1     -38.302  14.656  15.920  0.00  0.00     0.005 A 
ATOM     20  C   UNL d   1     -38.665  13.695  16.925  0.00  0.00     0.061 A 
ATOM     21  C   UNL d   1     -37.941  14.064  15.484  0.00  0.00     0.000 A 
ATOM     22  C   UNL d   1     -37.940  13.287  15.764  0.00  0.00     0.000 A 
ATOM     23  C   UNL d   1     -38.299  13.103  16.480  0.00  0.00     0.005 A 
ATOM     24  C   UNL d   1     -39.064  13.679  17.652  0.00  0.00     0.267 A 
ATOM     25  O   UNL d   1     -39.188  13.015  18.117  0.00  0.00    -0.267 OA
ENDBRANCH   1  15
BRANCH   1  26
ATOM     26  C   UNL d   1     -40.526  14.504  18.573  0.00  0.00     0.022 C 
ATOM     27  C   UNL d   1     -40.763  13.734  18.733  0.00  0.00     0.002 C 
ATOM     28  C   UNL d   1     -41.094  15.096  18.490  0.00  0.00     0.002 C 
ENDBRANCH   1  26
TORSDOF 5
ENDMDL
MODEL 3
REMARK VINA RESULT:      -6.7      7.580      9.523
REMARK  5 active torsions:
REMARK  status: ('A' for Active; 'I' for Inactive)
REMARK    1  A    between atoms: C_8  and  N_1 
REMARK    2  A    between atoms: S_4  and  C_10 
REMARK    3  A    between atoms: C_5  and  C_8 
REMARK       I    between atoms: N_9  and  C_5 
REMARK    4  A    between atoms: C_20  and  C_8 
REMARK    5  A    between atoms: C_19  and  N_9 
ROOT
ATOM      1  C   UNL d   1     -40.553  14.569  20.309  0.00  0.00     0.140 C 
ENDROOT
BRANCH   1   2
ATOM      2  C   UNL d   1     -40.721  14.035  19.703  0.00  0.00     0.344 C 
ATOM      3  N   UNL d   1     -40.254  14.029  19.029  0.00  0.00    -0.363 NA
ATOM      4  O   UNL d   1     -41.355  13.512  19.778  0.00  0.00    -0.249 OA
BRANCH   3   5
ATOM      5  C   UNL d   1     -39.807  14.001  18.347  0.00  0.00     0.135 A 
ATOM      6  C   UNL d   1     -39.836  14.604  17.784  0.00  0.00     0.033 A 
ATOM      7  C   UNL d   1     -39.378  14.562  17.099  0.00  0.00     0.016 A 
ATOM      8  C   UNL d   1     -38.885  13.904  16.980  0.00  0.00     0.107 A 
ATOM      9  C   UNL d   1     -38.856  13.302  17.542  0.00  0.00     0.016 A 
ATOM     10  C   UNL d   1     -39.318  13.351  18.225  0.00  0.00     0.033 A 
BRANCH   8  11
ATOM     11  S   UNL d   1     -38.427  13.862  16.295  0.00  0.00     0.302 S 
ATOM     12  O   UNL d   1     -38.000  13.277  16.616  0.00  0.00    -0.197 OA
ATOM     13  O   UNL d   1     -38.874  14.471  15.964  0.00  0.00    -0.197 OA
ATOM     14  N   UNL d   1     -37.974  13.823  15.612  0.00  0.00    -0.043 N 
ENDBRANCH   8  11
ENDBRANCH   3   5
ENDBRANCH   1   2
BRANCH   1  15
ATOM     15  N   UNL d   1     -40.004  14.369  20.893  0.00  0.00    -0.236 N 
ATOM     16  C   UNL d   1     -40.086  13.773  21.459  0.00  0.00     0.267 A 
ATOM     17  C   UNL d   1     -39.402  13.769  21.931  0.00  0.00     0.061 A 
ATOM     18  O   UNL d   1     -40.733  13.269  21.541  0.00  0.00    -0.267 OA
ATOM     19  C   UNL d   1     -39.164  13.305  22.579  0.00  0.00     0.005 A 
ATOM     20  C   UNL d   1     -38.895  14.371  21.653  0.00  0.00     0.061 A 
ATOM     21  C   UNL d   1     -38.439  13.435  22.940  0.00  0.00     0.000 A 
ATOM     22  C   UNL d   1     -37.940  14.031  22.661  0.00  0.00     0.000 A 
ATOM     23  C   UNL d   1     -38.166  14.496  22.021  0.00  0.00     0.005 A 
ATOM     24  C   UNL d   1     -39.265  14.743  21.011  0.00  0.00     0.267 A 
ATOM     25  O   UNL d   1     -38.958  15.364  20.574  0.00  0.00    -0.267 OA
ENDBRANCH   1  15
BRANCH   1  26
ATOM     26  C   UNL d   1     -40.931  15.292  20.327  0.00  0.00     0.022 C 
ATOM     27  C   UNL d   1     -41.610  15.400  20.776  0.00  0.00     0.002 C 
ATOM     28  C   UNL d   1     -40.629  15.922  19.889  0.00  0.00     0.002 C 
ENDBRANCH   1  26
TORSDOF 5
ENDMDL
MODEL 4
REMARK VINA RESULT:      -6.7      1.444      1.785
REMARK  5 active torsions:
REMARK  status: ('A' for Active; 'I' for Inactive)
REMARK    1  A    between atoms: C_8  and  N_1 
REMARK    2  A    between atoms: S_4  and  C_10 
REMARK    3  A    between atoms: C_5  and  C_8 
REMARK       I    between atoms: N_9  and  C_5 
REMARK    4  A    between atoms: C_20  and  C_8 
REMARK    5  A    between atoms: C_19  and  N_9 
ROOT
ATOM      1  C   UNL d   1     -47.842  13.536  22.058  0.00  0.00     0.140 C 
ENDROOT
BRANCH   1   2
ATOM      2  C   UNL d   1     -47.098  13.676  22.386  0.00  0.00     0.344 C 
ATOM      3  N   UNL d   1     -46.627  13.042  22.604  0.00  0.00    -0.363 NA
ATOM      4  O   UNL d   1     -46.834  14.451  22.492  0.00  0.00    -0.249 OA
BRANCH   3   5
ATOM      5  C   UNL d   1     -46.136  12.430  22.829  0.00  0.00     0.135 A 
ATOM      6  C   UNL d   1     -46.378  11.859  23.374  0.00  0.00     0.033 A 
ATOM      7  C   UNL d   1     -45.871  11.246  23.593  0.00  0.00     0.016 A 
ATOM      8  C   UNL d   1     -45.112  11.208  23.259  0.00  0.00     0.107 A 
ATOM      9  C   UNL d   1     -44.871  11.778  22.714  0.00  0.00     0.016 A 
ATOM     10  C   UNL d   1     -45.384  12.388  22.501  0.00  0.00     0.033 A 
BRANCH   8  11
ATOM     11  S   UNL d   1     -44.605  10.595  23.478  0.00  0.00     0.302 S 
ATOM     12  O   UNL d   1     -45.230  10.147  23.670  0.00  0.00    -0.197 OA
ATOM     13  O   UNL d   1     -43.957  11.064  23.277  0.00  0.00    -0.197 OA
ATOM     14  N   UNL d   1     -44.098   9.987  23.695  0.00  0.00    -0.043 N 
ENDBRANCH   8  11
ENDBRANCH   3   5
ENDBRANCH   1   2
BRANCH   1  15
ATOM     15  N   UNL d   1     -48.512  13.883  22.394  0.00  0.00    -0.236 N 
ATOM     16  C   UNL d   1     -48.769  14.661  22.285  0.00  0.00     0.267 A 
ATOM     17  C   UNL d   1     -49.464  14.768  22.726  0.00  0.00     0.061 A 
ATOM     18  O   UNL d   1     -48.399  15.231  21.818  0.00  0.00    -0.267 OA
ATOM     19  C   UNL d   1     -49.970  15.419  22.837  0.00  0.00     0.005 A 
ATOM     20  C   UNL d   1     -49.637  14.048  23.112  0.00  0.00     0.061 A 
ATOM     21  C   UNL d   1     -50.631  15.355  23.318  0.00  0.00     0.000 A 
ATOM     22  C   UNL d   1     -50.798  14.640  23.697  0.00  0.00     0.000 A 
ATOM     23  C   UNL d   1     -50.305  13.991  23.595  0.00  0.00     0.005 A 
ATOM     24  C   UNL d   1     -49.050  13.500  22.907  0.00  0.00     0.267 A 
ATOM     25  O   UNL d   1     -49.008  12.722  23.165  0.00  0.00    -0.267 OA
ENDBRANCH   1  15
BRANCH   1  26
ATOM     26  C   UNL d   1     -47.911  13.055  21.402  0.00  0.00     0.022 C 
ATOM     27  C   UNL d   1     -48.470  12.454  21.378  0.00  0.00     0.002 C 
ATOM     28  C   UNL d   1     -47.412  13.173  20.755  0.00  0.00     0.002 C 
ENDBRANCH   1  26
TORSDOF 5
ENDMDL
MODEL 5
REMARK VINA RESULT:      -6.1      8.977     10.446
REMARK  5 active torsions:
REMARK  status: ('A' for Active; 'I' for Inactive)
REMARK    1  A    between atoms: C_8  and  N_1 
REMARK    2  A    between atoms: S_4  and  C_10 
REMARK    3  A    between atoms: C_5  and  C_8 
REMARK       I    between atoms: N_9  and  C_5 
REMARK    4  A    between atoms: C_20  and  C_8 
REMARK    5  A    between atoms: C_19  and  N_9 
ROOT
ATOM      1  C   UNL d   1     -39.223  15.024  19.678  0.00  0.00     0.140 C 
ENDROOT
BRANCH   1   2
ATOM      2  C   UNL d   1     -38.624  15.306  19.185  0.00  0.00     0.344 C 
ATOM      3  N   UNL d   1     -38.530  14.982  18.438  0.00  0.00    -0.363 NA
ATOM      4  O   UNL d   1     -38.126  15.910  19.447  0.00  0.00    -0.249 OA
BRANCH   3   5
ATOM      5  C   UNL d   1     -38.413  14.679  17.689  0.00  0.00     0.135 A 
ATOM      6  C   UNL d   1     -38.215  13.887  17.569  0.00  0.00     0.033 A 
ATOM      7  C   UNL d   1     -38.100  13.595  16.806  0.00  0.00     0.016 A 
ATOM      8  C   UNL d   1     -38.186  14.107  16.157  0.00  0.00     0.107 A 
ATOM      9  C   UNL d   1     -38.384  14.897  16.278  0.00  0.00     0.016 A 
ATOM     10  C   UNL d   1     -38.498  15.182  17.045  0.00  0.00     0.033 A 
BRANCH   8  11
ATOM     11  S   UNL d   1     -38.071  13.814  15.394  0.00  0.00     0.302 S 
ATOM     12  O   UNL d   1     -38.197  14.537  15.098  0.00  0.00    -0.197 OA
ATOM     13  O   UNL d   1     -37.940  13.062  15.707  0.00  0.00    -0.197 OA
ATOM     14  N   UNL d   1     -37.956  13.519  14.637  0.00  0.00    -0.043 N 
ENDBRANCH   8  11
ENDBRANCH   3   5
ENDBRANCH   1   2
BRANCH   1  15
ATOM     15  N   UNL d   1     -39.032  14.700  20.414  0.00  0.00    -0.236 N 
ATOM     16  C   UNL d   1     -39.049  15.092  21.141  0.00  0.00     0.267 A 
ATOM     17  C   UNL d   1     -38.816  14.554  21.730  0.00  0.00     0.061 A 
ATOM     18  O   UNL d   1     -39.260  15.880  21.261  0.00  0.00    -0.267 OA
ATOM     19  C   UNL d   1     -38.726  14.621  22.554  0.00  0.00     0.005 A 
ATOM     20  C   UNL d   1     -38.654  13.823  21.361  0.00  0.00     0.061 A 
ATOM     21  C   UNL d   1     -38.481  13.978  23.000  0.00  0.00     0.000 A 
ATOM     22  C   UNL d   1     -38.322  13.256  22.630  0.00  0.00     0.000 A 
ATOM     23  C   UNL d   1     -38.408  13.180  21.816  0.00  0.00     0.005 A 
ATOM     24  C   UNL d   1     -38.787  13.912  20.547  0.00  0.00     0.267 A 
ATOM     25  O   UNL d   1     -38.693  13.328  19.979  0.00  0.00    -0.267 OA
ENDBRANCH   1  15
BRANCH   1  26
ATOM     26  C   UNL d   1     -40.001  15.066  19.435  0.00  0.00     0.022 C 
ATOM     27  C   UNL d   1     -40.427  14.385  19.267  0.00  0.00     0.002 C 
ATOM     28  C   UNL d   1     -40.364  15.803  19.356  0.00  0.00     0.002 C 
ENDBRANCH   1  26
TORSDOF 5
ENDMDL
MODEL 6
REMARK VINA RESULT:      -5.7      2.078      5.166
REMARK  5 active torsions:
REMARK  status: ('A' for Active; 'I' for Inactive)
REMARK    1  A    between atoms: C_8  and  N_1 
REMARK    2  A    between atoms: S_4  and  C_10 
REMARK    3  A    between atoms: C_5  and  C_8 
REMARK       I    between atoms: N_9  and  C_5 
REMARK    4  A    between atoms: C_20  and  C_8 
REMARK    5  A    between atoms: C_19  and  N_9 
ROOT
ATOM      1  C   UNL d   1     -46.551  12.765  22.600  0.00  0.00     0.140 C 
ENDROOT
BRANCH   1   2
ATOM      2  C   UNL d   1     -46.667  13.440  23.060  0.00  0.00     0.344 C 
ATOM      3  N   UNL d   1     -47.406  13.795  23.078  0.00  0.00    -0.363 NA
ATOM      4  O   UNL d   1     -46.040  13.754  23.497  0.00  0.00    -0.249 OA
BRANCH   3   5
ATOM      5  C   UNL d   1     -48.131  14.168  23.116  0.00  0.00     0.135 A 
ATOM      6  C   UNL d   1     -48.793  13.796  23.437  0.00  0.00     0.033 A 
ATOM      7  C   UNL d   1     -49.520  14.186  23.469  0.00  0.00     0.016 A 
ATOM      8  C   UNL d   1     -49.578  14.960  23.172  0.00  0.00     0.107 A 
ATOM      9  C   UNL d   1     -48.916  15.331  22.851  0.00  0.00     0.016 A 
ATOM     10  C   UNL d   1     -48.193  14.934  22.824  0.00  0.00     0.033 A 
BRANCH   8  11
ATOM     11  S   UNL d   1     -50.305  15.350  23.204  0.00  0.00     0.302 S 
ATOM     12  O   UNL d   1     -50.621  14.799  22.730  0.00  0.00    -0.197 OA
ATOM     13  O   UNL d   1     -49.972  15.922  23.697  0.00  0.00    -0.197 OA
ATOM     14  N   UNL d   1     -51.026  15.741  23.237  0.00  0.00    -0.043 N 
ENDBRANCH   8  11
ENDBRANCH   3   5
ENDBRANCH   1   2
BRANCH   1  15
ATOM     15  N   UNL d   1     -45.961  12.224  22.803  0.00  0.00    -0.236 N 
ATOM     16  C   UNL d   1     -46.059  11.539  23.253  0.00  0.00     0.267 A 
ATOM     17  C   UNL d   1     -45.320  11.165  23.319  0.00  0.00     0.061 A 
ATOM     18  O   UNL d   1     -46.767  11.272  23.580  0.00  0.00    -0.267 OA
ATOM     19  C   UNL d   1     -45.069  10.467  23.697  0.00  0.00     0.005 A 
ATOM     20  C   UNL d   1     -44.761  11.626  22.904  0.00  0.00     0.061 A 
ATOM     21  C   UNL d   1     -44.284  10.235  23.664  0.00  0.00     0.000 A 
ATOM     22  C   UNL d   1     -43.734  10.695  23.253  0.00  0.00     0.000 A 
ATOM     23  C   UNL d   1     -43.971  11.386  22.875  0.00  0.00     0.005 A 
ATOM     24  C   UNL d   1     -45.155  12.282  22.585  0.00  0.00     0.267 A 
ATOM     25  O   UNL d   1     -44.813  12.876  22.136  0.00  0.00    -0.267 OA
ENDBRANCH   1  15
BRANCH   1  26
ATOM     26  C   UNL d   1     -47.021  12.637  21.945  0.00  0.00     0.022 C 
ATOM     27  C   UNL d   1     -46.885  13.042  21.243  0.00  0.00     0.002 C 
ATOM     28  C   UNL d   1     -47.641  12.094  21.987  0.00  0.00     0.002 C 
ENDBRANCH   1  26
TORSDOF 5
ENDMDL
MODEL 7
REMARK VINA RESULT:      -5.3      7.393      9.779
REMARK  5 active torsions:
REMARK  status: ('A' for Active; 'I' for Inactive)
REMARK    1  A    between atoms: C_8  and  N_1 
REMARK    2  A    between atoms: S_4  and  C_10 
REMARK    3  A    between atoms: C_5  and  C_8 
REMARK       I    between atoms: N_9  and  C_5 
REMARK    4  A    between atoms: C_20  and  C_8 
REMARK    5  A    between atoms: C_19  and  N_9 
ROOT
ATOM      1  C   UNL d   1     -38.654  14.683  20.427  0.00  0.00     0.140 C 
ENDROOT
BRANCH   1   2
ATOM      2  C   UNL d   1     -38.293  14.068  20.012  0.00  0.00     0.344 C 
ATOM      3  N   UNL d   1     -38.289  14.082  19.192  0.00  0.00    -0.363 NA
ATOM      4  O   UNL d   1     -37.940  13.445  20.423  0.00  0.00    -0.249 OA
BRANCH   3   5
ATOM      5  C   UNL d   1     -38.269  14.070  18.376  0.00  0.00     0.135 A 
ATOM      6  C   UNL d   1     -37.960  14.698  17.941  0.00  0.00     0.033 A 
ATOM      7  C   UNL d   1     -37.947  14.672  17.116  0.00  0.00     0.016 A 
ATOM      8  C   UNL d   1     -38.250  14.004  16.726  0.00  0.00     0.107 A 
ATOM      9  C   UNL d   1     -38.559  13.376  17.162  0.00  0.00     0.016 A 
ATOM     10  C   UNL d   1     -38.568  13.410  17.987  0.00  0.00     0.033 A 
BRANCH   8  11
ATOM     11  S   UNL d   1     -38.237  13.978  15.902  0.00  0.00     0.302 S 
ATOM     12  O   UNL d   1     -38.116  14.760  15.879  0.00  0.00    -0.197 OA
ATOM     13  O   UNL d   1     -38.363  13.163  15.930  0.00  0.00    -0.197 OA
ATOM     14  N   UNL d   1     -38.224  13.948  15.082  0.00  0.00    -0.043 N 
ENDBRANCH   8  11
ENDBRANCH   3   5
ENDBRANCH   1   2
BRANCH   1  15
ATOM     15  N   UNL d   1     -39.460  14.643  20.604  0.00  0.00    -0.236 N 
ATOM     16  C   UNL d   1     -39.839  14.048  21.033  0.00  0.00     0.267 A 
ATOM     17  C   UNL d   1     -40.648  14.234  21.074  0.00  0.00     0.061 A 
ATOM     18  O   UNL d   1     -39.478  13.384  21.362  0.00  0.00    -0.267 OA
ATOM     19  C   UNL d   1     -41.299  13.854  21.425  0.00  0.00     0.005 A 
ATOM     20  C   UNL d   1     -40.767  14.952  20.665  0.00  0.00     0.061 A 
ATOM     21  C   UNL d   1     -42.050  14.180  21.371  0.00  0.00     0.000 A 
ATOM     22  C   UNL d   1     -42.163  14.891  20.966  0.00  0.00     0.000 A 
ATOM     23  C   UNL d   1     -41.526  15.275  20.615  0.00  0.00     0.005 A 
ATOM     24  C   UNL d   1     -40.034  15.206  20.374  0.00  0.00     0.267 A 
ATOM     25  O   UNL d   1     -39.900  15.888  19.939  0.00  0.00    -0.267 OA
ENDBRANCH   1  15
BRANCH   1  26
ATOM     26  C   UNL d   1     -38.210  15.327  20.662  0.00  0.00     0.022 C 
ATOM     27  C   UNL d   1     -37.944  15.395  21.436  0.00  0.00     0.002 C 
ATOM     28  C   UNL d   1     -38.027  15.917  20.115  0.00  0.00     0.002 C 
ENDBRANCH   1  26
TORSDOF 5
ENDMDL
MODEL 8
REMARK VINA RESULT:      -4.8      1.973      5.263
REMARK  5 active torsions:
REMARK  status: ('A' for Active; 'I' for Inactive)
REMARK    1  A    between atoms: C_8  and  N_1 
REMARK    2  A    between atoms: S_4  and  C_10 
REMARK    3  A    between atoms: C_5  and  C_8 
REMARK       I    between atoms: N_9  and  C_5 
REMARK    4  A    between atoms: C_20  and  C_8 
REMARK    5  A    between atoms: C_19  and  N_9 
ROOT
ATOM      1  C   UNL d   1     -46.000  13.254  22.396  0.00  0.00     0.140 C 
ENDROOT
BRANCH   1   2
ATOM      2  C   UNL d   1     -46.623  13.039  21.899  0.00  0.00     0.344 C 
ATOM      3  N   UNL d   1     -47.354  12.859  22.222  0.00  0.00    -0.363 NA
ATOM      4  O   UNL d   1     -46.506  13.008  21.082  0.00  0.00    -0.249 OA
BRANCH   3   5
ATOM      5  C   UNL d   1     -48.093  12.674  22.516  0.00  0.00     0.135 A 
ATOM      6  C   UNL d   1     -48.631  13.260  22.735  0.00  0.00     0.033 A 
ATOM      7  C   UNL d   1     -49.374  13.058  23.031  0.00  0.00     0.016 A 
ATOM      8  C   UNL d   1     -49.577  12.256  23.106  0.00  0.00     0.107 A 
ATOM      9  C   UNL d   1     -49.039  11.671  22.888  0.00  0.00     0.016 A 
ATOM     10  C   UNL d   1     -48.297  11.881  22.592  0.00  0.00     0.033 A 
BRANCH   8  11
ATOM     11  S   UNL d   1     -50.320  12.054  23.402  0.00  0.00     0.302 S 
ATOM     12  O   UNL d   1     -50.196  11.299  23.200  0.00  0.00    -0.197 OA
ATOM     13  O   UNL d   1     -50.446  12.842  23.612  0.00  0.00    -0.197 OA
ATOM     14  N   UNL d   1     -51.061  11.857  23.698  0.00  0.00    -0.043 N 
ENDBRANCH   8  11
ENDBRANCH   3   5
ENDBRANCH   1   2
BRANCH   1  15
ATOM     15  N   UNL d   1     -45.323  12.782  22.436  0.00  0.00    -0.236 N 
ATOM     16  C   UNL d   1     -44.627  12.885  22.003  0.00  0.00     0.267 A 
ATOM     17  C   UNL d   1     -44.097  12.284  22.220  0.00  0.00     0.061 A 
ATOM     18  O   UNL d   1     -44.485  13.480  21.451  0.00  0.00    -0.267 OA
ATOM     19  C   UNL d   1     -43.322  12.099  21.980  0.00  0.00     0.005 A 
ATOM     20  C   UNL d   1     -44.470  11.806  22.793  0.00  0.00     0.061 A 
ATOM     21  C   UNL d   1     -42.930  11.454  22.301  0.00  0.00     0.000 A 
ATOM     22  C   UNL d   1     -43.303  10.984  22.868  0.00  0.00     0.000 A 
ATOM     23  C   UNL d   1     -44.069  11.159  23.113  0.00  0.00     0.005 A 
ATOM     24  C   UNL d   1     -45.229  12.112  22.928  0.00  0.00     0.267 A 
ATOM     25  O   UNL d   1     -45.783  11.810  23.451  0.00  0.00    -0.267 OA
ENDBRANCH   1  15
BRANCH   1  26
ATOM     26  C   UNL d   1     -46.058  13.933  22.845  0.00  0.00     0.022 C 
ATOM     27  C   UNL d   1     -46.057  13.895  23.666  0.00  0.00     0.002 C 
ATOM     28  C   UNL d   1     -46.118  14.666  22.472  0.00  0.00     0.002 C 
ENDBRANCH   1  26
TORSDOF 5
ENDMDL
MODEL 9
REMARK VINA RESULT:      -4.8      6.304      9.932
REMARK  5 active torsions:
REMARK  status: ('A' for Active; 'I' for Inactive)
REMARK    1  A    between atoms: C_8  and  N_1 
REMARK    2  A    between atoms: S_4  and  C_10 
REMARK    3  A    between atoms: C_5  and  C_8 
REMARK       I    between atoms: N_9  and  C_5 
REMARK    4  A    between atoms: C_20  and  C_8 
REMARK    5  A    between atoms: C_19  and  N_9 
ROOT
ATOM      1  C   UNL d   1     -38.881  14.750  19.559  0.00  0.00     0.140 C 
ENDROOT
BRANCH   1   2
ATOM      2  C   UNL d   1     -39.604  15.120  19.701  0.00  0.00     0.344 C 
ATOM      3  N   UNL d   1     -40.225  14.688  20.017  0.00  0.00    -0.363 NA
ATOM      4  O   UNL d   1     -39.698  15.922  19.526  0.00  0.00    -0.249 OA
BRANCH   3   5
ATOM      5  C   UNL d   1     -40.860  14.281  20.329  0.00  0.00     0.135 A 
ATOM      6  C   UNL d   1     -40.888  14.069  21.126  0.00  0.00     0.033 A 
ATOM      7  C   UNL d   1     -41.537  13.658  21.428  0.00  0.00     0.016 A 
ATOM      8  C   UNL d   1     -42.164  13.460  20.921  0.00  0.00     0.107 A 
ATOM      9  C   UNL d   1     -42.136  13.673  20.125  0.00  0.00     0.016 A 
ATOM     10  C   UNL d   1     -41.483  14.084  19.831  0.00  0.00     0.033 A 
BRANCH   8  11
ATOM     11  S   UNL d   1     -42.813  13.050  21.224  0.00  0.00     0.302 S 
ATOM     12  O   UNL d   1     -42.806  13.512  21.866  0.00  0.00    -0.197 OA
ATOM     13  O   UNL d   1     -42.817  12.570  20.553  0.00  0.00    -0.197 OA
ATOM     14  N   UNL d   1     -43.458  12.639  21.521  0.00  0.00    -0.043 N 
ENDBRANCH   8  11
ENDBRANCH   3   5
ENDBRANCH   1   2
BRANCH   1  15
ATOM     15  N   UNL d   1     -38.696  14.485  18.799  0.00  0.00    -0.236 N 
ATOM     16  C   UNL d   1     -38.632  13.698  18.557  0.00  0.00     0.267 A 
ATOM     17  C   UNL d   1     -38.438  13.691  17.749  0.00  0.00     0.061 A 
ATOM     18  O   UNL d   1     -38.741  13.035  19.033  0.00  0.00    -0.267 OA
ATOM     19  C   UNL d   1     -38.302  13.077  17.204  0.00  0.00     0.005 A 
ATOM     20  C   UNL d   1     -38.382  14.484  17.491  0.00  0.00     0.061 A 
ATOM     21  C   UNL d   1     -38.116  13.248  16.424  0.00  0.00     0.000 A 
ATOM     22  C   UNL d   1     -38.062  14.033  16.174  0.00  0.00     0.000 A 
ATOM     23  C   UNL d   1     -38.194  14.647  16.704  0.00  0.00     0.005 A 
ATOM     24  C   UNL d   1     -38.542  14.975  18.140  0.00  0.00     0.267 A 
ATOM     25  O   UNL d   1     -38.546  15.795  18.130  0.00  0.00    -0.267 OA
ENDBRANCH   1  15
BRANCH   1  26
ATOM     26  C   UNL d   1     -38.351  14.648  20.173  0.00  0.00     0.022 C 
ATOM     27  C   UNL d   1     -38.222  13.905  20.496  0.00  0.00     0.002 C 
ATOM     28  C   UNL d   1     -37.942  15.299  20.471  0.00  0.00     0.002 C 
ENDBRANCH   1  26
TORSDOF 5
ENDMDL
