MODEL 1
REMARK VINA RESULT:      -5.0      0.000      0.000
REMARK  5 active torsions:
REMARK  status: ('A' for Active; 'I' for Inactive)
REMARK    1  A    between atoms: N_6  and  S_1 
REMARK    2  A    between atoms: C_11  and  S_1 
REMARK    3  A    between atoms: N_2  and  C_16 
REMARK       I    between atoms: C_9  and  N_8 
REMARK    4  A    between atoms: C_10  and  C_9 
REMARK    5  A    between atoms: C_16  and  C_10 
ROOT
ATOM      1  N   UNL d   1     -45.653  13.120  22.330  0.00  0.00    -0.226 N 
ATOM      2  N   UNL d   1     -44.086  12.866  21.897  0.00  0.00    -0.269 N 
ATOM      3  C   UNL d   1     -43.299  12.747  21.677  0.00  0.00     0.267 C 
ATOM      4  C   UNL d   1     -45.212  13.733  22.003  0.00  0.00     0.111 A 
ATOM      5  C   UNL d   1     -45.311  12.365  22.446  0.00  0.00     0.111 A 
ATOM      6  C   UNL d   1     -44.426  13.606  21.785  0.00  0.00     0.103 A 
ATOM      7  C   UNL d   1     -44.525  12.237  22.229  0.00  0.00     0.103 A 
ATOM      8  O   UNL d   1     -42.952  12.007  21.787  0.00  0.00    -0.267 OA
ENDROOT
BRANCH   3   9
ATOM      9  C   UNL d   1     -42.866  13.365  21.351  0.00  0.00     0.082 C 
BRANCH   9  10
ATOM     10  C   UNL d   1     -42.044  13.304  21.306  0.00  0.00     0.105 C 
BRANCH  10  11
ATOM     11  N   UNL d   1     -41.596  13.969  21.101  0.00  0.00    -0.228 N 
ATOM     12  N   UNL d   1     -41.869  14.649  20.723  0.00  0.00    -0.165 NA
ATOM     13  C   UNL d   1     -41.237  15.171  20.627  0.00  0.00     0.103 A 
ATOM     14  C   UNL d   1     -41.265  15.920  20.273  0.00  0.00     0.022 C 
ATOM     15  C   UNL d   1     -40.565  14.815  20.946  0.00  0.00     0.037 A 
ATOM     16  C   UNL d   1     -40.784  14.071  21.241  0.00  0.00     0.084 A 
ATOM     17  C   UNL d   1     -39.809  15.139  20.970  0.00  0.00     0.003 C 
ATOM     18  C   UNL d   1     -40.276  13.532  21.607  0.00  0.00     0.021 C 
ENDBRANCH  10  11
ENDBRANCH   9  10
ENDBRANCH   3   9
BRANCH   1  19
ATOM     19  S   UNL d   1     -46.443  13.248  22.548  0.00  0.00     0.271 S 
ATOM     20  O   UNL d   1     -46.689  13.038  21.781  0.00  0.00    -0.200 OA
ATOM     21  O   UNL d   1     -46.199  13.456  23.309  0.00  0.00    -0.200 OA
BRANCH  19  22
ATOM     22  C   UNL d   1     -47.237  13.377  22.768  0.00  0.00     0.104 A 
ATOM     23  C   UNL d   1     -47.693  12.746  23.023  0.00  0.00     0.014 A 
ATOM     24  C   UNL d   1     -48.479  12.869  23.241  0.00  0.00     0.012 A 
ATOM     25  C   UNL d   1     -48.807  13.631  23.202  0.00  0.00     0.058 A 
ATOM     26  C   UNL d   1     -48.343  14.273  22.942  0.00  0.00     0.012 A 
ATOM     27 CL   UNL d   1     -49.593  13.758  23.419  0.00  0.00    -0.082 Cl
ATOM     28  C   UNL d   1     -47.549  14.144  22.723  0.00  0.00     0.014 A 
ENDBRANCH  19  22
ENDBRANCH   1  19
TORSDOF 5
ENDMDL
MODEL 2
REMARK VINA RESULT:      -3.9      2.812      6.274
REMARK  5 active torsions:
REMARK  status: ('A' for Active; 'I' for Inactive)
REMARK    1  A    between atoms: N_6  and  S_1 
REMARK    2  A    between atoms: C_11  and  S_1 
REMARK    3  A    between atoms: N_2  and  C_16 
REMARK       I    between atoms: C_9  and  N_8 
REMARK    4  A    between atoms: C_10  and  C_9 
REMARK    5  A    between atoms: C_16  and  C_10 
ROOT
ATOM      1  N   UNL d   1     -41.760  13.870  20.832  0.00  0.00    -0.226 N 
ATOM      2  N   UNL d   1     -43.024  13.056  21.500  0.00  0.00    -0.269 N 
ATOM      3  C   UNL d   1     -43.664  12.655  21.834  0.00  0.00     0.267 C 
ATOM      4  C   UNL d   1     -42.491  14.240  20.913  0.00  0.00     0.111 A 
ATOM      5  C   UNL d   1     -41.653  13.080  21.086  0.00  0.00     0.111 A 
ATOM      6  C   UNL d   1     -43.125  13.832  21.249  0.00  0.00     0.103 A 
ATOM      7  C   UNL d   1     -42.286  12.672  21.422  0.00  0.00     0.103 A 
ATOM      8  O   UNL d   1     -43.569  11.876  22.089  0.00  0.00    -0.267 OA
ENDROOT
BRANCH   3   9
ATOM      9  C   UNL d   1     -44.390  13.032  21.913  0.00  0.00     0.082 C 
BRANCH   9  10
ATOM     10  C   UNL d   1     -44.983  12.679  22.365  0.00  0.00     0.105 C 
BRANCH  10  11
ATOM     11  N   UNL d   1     -45.665  13.110  22.553  0.00  0.00    -0.228 N 
ATOM     12  N   UNL d   1     -45.794  13.912  22.412  0.00  0.00    -0.165 NA
ATOM     13  C   UNL d   1     -46.546  14.111  22.686  0.00  0.00     0.103 A 
ATOM     14  C   UNL d   1     -46.901  14.860  22.655  0.00  0.00     0.022 C 
ATOM     15  C   UNL d   1     -46.889  13.430  23.001  0.00  0.00     0.037 A 
ATOM     16  C   UNL d   1     -46.346  12.809  22.919  0.00  0.00     0.084 A 
ATOM     17  C   UNL d   1     -47.638  13.374  23.337  0.00  0.00     0.003 C 
ATOM     18  C   UNL d   1     -46.469  12.029  23.164  0.00  0.00     0.021 C 
ENDBRANCH  10  11
ENDBRANCH   9  10
ENDBRANCH   3   9
BRANCH   1  19
ATOM     19  S   UNL d   1     -41.123  14.280  20.495  0.00  0.00     0.271 S 
ATOM     20  O   UNL d   1     -41.142  13.769  19.837  0.00  0.00    -0.200 OA
ATOM     21  O   UNL d   1     -41.104  14.786  21.146  0.00  0.00    -0.200 OA
BRANCH  19  22
ATOM     22  C   UNL d   1     -40.482  14.693  20.156  0.00  0.00     0.104 A 
ATOM     23  C   UNL d   1     -39.938  15.064  20.642  0.00  0.00     0.014 A 
ATOM     24  C   UNL d   1     -39.303  15.473  20.311  0.00  0.00     0.012 A 
ATOM     25  C   UNL d   1     -39.215  15.508  19.486  0.00  0.00     0.058 A 
ATOM     26  C   UNL d   1     -39.770  15.130  18.991  0.00  0.00     0.012 A 
ATOM     27 CL   UNL d   1     -38.581  15.916  19.151  0.00  0.00    -0.082 Cl
ATOM     28  C   UNL d   1     -40.410  14.718  19.329  0.00  0.00     0.014 A 
ENDBRANCH  19  22
ENDBRANCH   1  19
TORSDOF 5
ENDMDL
MODEL 3
REMARK VINA RESULT:      -3.9      3.366      6.243
REMARK  5 active torsions:
REMARK  status: ('A' for Active; 'I' for Inactive)
REMARK    1  A    between atoms: N_6  and  S_1 
REMARK    2  A    between atoms: C_11  and  S_1 
REMARK    3  A    between atoms: N_2  and  C_16 
REMARK       I    between atoms: C_9  and  N_8 
REMARK    4  A    between atoms: C_10  and  C_9 
REMARK    5  A    between atoms: C_16  and  C_10 
ROOT
ATOM      1  N   UNL d   1     -45.508  12.365  22.930  0.00  0.00    -0.226 N 
ATOM      2  N   UNL d   1     -46.477  13.660  22.625  0.00  0.00    -0.269 N 
ATOM      3  C   UNL d   1     -46.969  14.306  22.477  0.00  0.00     0.267 C 
ATOM      4  C   UNL d   1     -46.268  12.394  23.246  0.00  0.00     0.111 A 
ATOM      5  C   UNL d   1     -45.222  12.990  22.453  0.00  0.00     0.111 A 
ATOM      6  C   UNL d   1     -46.754  13.044  23.093  0.00  0.00     0.103 A 
ATOM      7  C   UNL d   1     -45.707  13.639  22.300  0.00  0.00     0.103 A 
ATOM      8  O   UNL d   1     -46.696  14.928  22.008  0.00  0.00    -0.267 OA
ENDROOT
BRANCH   3   9
ATOM      9  C   UNL d   1     -47.726  14.328  22.796  0.00  0.00     0.082 C 
BRANCH   9  10
ATOM     10  C   UNL d   1     -48.296  14.817  22.454  0.00  0.00     0.105 C 
BRANCH  10  11
ATOM     11  N   UNL d   1     -49.099  14.649  22.567  0.00  0.00    -0.228 N 
ATOM     12  N   UNL d   1     -49.515  14.003  22.267  0.00  0.00    -0.165 NA
ATOM     13  C   UNL d   1     -50.300  14.054  22.516  0.00  0.00     0.103 A 
ATOM     14  C   UNL d   1     -50.909  13.519  22.341  0.00  0.00     0.022 C 
ATOM     15  C   UNL d   1     -50.375  14.736  22.975  0.00  0.00     0.037 A 
ATOM     16  C   UNL d   1     -49.634  15.106  23.008  0.00  0.00     0.084 A 
ATOM     17  C   UNL d   1     -51.064  15.003  23.337  0.00  0.00     0.003 C 
ATOM     18  C   UNL d   1     -49.466  15.807  23.413  0.00  0.00     0.021 C 
ENDBRANCH  10  11
ENDBRANCH   9  10
ENDBRANCH   3   9
BRANCH   1  19
ATOM     19  S   UNL d   1     -45.021  11.712  23.084  0.00  0.00     0.271 S 
ATOM     20  O   UNL d   1     -44.507  11.953  22.474  0.00  0.00    -0.200 OA
ATOM     21  O   UNL d   1     -45.530  11.474  23.688  0.00  0.00    -0.200 OA
BRANCH  19  22
ATOM     22  C   UNL d   1     -44.530  11.056  23.238  0.00  0.00     0.104 A 
ATOM     23  C   UNL d   1     -44.865  10.350  23.483  0.00  0.00     0.014 A 
ATOM     24  C   UNL d   1     -44.383   9.698  23.638  0.00  0.00     0.012 A 
ATOM     25  C   UNL d   1     -43.560   9.758  23.544  0.00  0.00     0.058 A 
ATOM     26  C   UNL d   1     -43.219  10.477  23.294  0.00  0.00     0.012 A 
ATOM     27 CL   UNL d   1     -43.074   9.109  23.697  0.00  0.00    -0.082 Cl
ATOM     28  C   UNL d   1     -43.709  11.133  23.140  0.00  0.00     0.014 A 
ENDBRANCH  19  22
ENDBRANCH   1  19
TORSDOF 5
ENDMDL
MODEL 4
REMARK VINA RESULT:      -3.8      2.425      6.330
REMARK  5 active torsions:
REMARK  status: ('A' for Active; 'I' for Inactive)
REMARK    1  A    between atoms: N_6  and  S_1 
REMARK    2  A    between atoms: C_11  and  S_1 
REMARK    3  A    between atoms: N_2  and  C_16 
REMARK       I    between atoms: C_9  and  N_8 
REMARK    4  A    between atoms: C_10  and  C_9 
REMARK    5  A    between atoms: C_16  and  C_10 
ROOT
ATOM      1  N   UNL d   1     -45.271  12.834  22.382  0.00  0.00    -0.226 N 
ATOM      2  N   UNL d   1     -46.785  12.647  22.999  0.00  0.00    -0.269 N 
ATOM      3  C   UNL d   1     -47.547  12.562  23.306  0.00  0.00     0.267 C 
ATOM      4  C   UNL d   1     -45.818  13.448  22.325  0.00  0.00     0.111 A 
ATOM      5  C   UNL d   1     -45.479  12.113  22.753  0.00  0.00     0.111 A 
ATOM      6  C   UNL d   1     -46.577  13.354  22.634  0.00  0.00     0.103 A 
ATOM      7  C   UNL d   1     -46.238  12.019  23.062  0.00  0.00     0.103 A 
ATOM      8  O   UNL d   1     -47.762  11.855  23.673  0.00  0.00    -0.267 OA
ENDROOT
BRANCH   3   9
ATOM      9  C   UNL d   1     -48.087  13.179  23.245  0.00  0.00     0.082 C 
BRANCH   9  10
ATOM     10  C   UNL d   1     -48.863  13.017  23.016  0.00  0.00     0.105 C 
BRANCH  10  11
ATOM     11  N   UNL d   1     -49.391  13.643  22.896  0.00  0.00    -0.228 N 
ATOM     12  N   UNL d   1     -49.388  14.372  23.281  0.00  0.00    -0.165 NA
ATOM     13  C   UNL d   1     -50.011  14.828  22.991  0.00  0.00     0.103 A 
ATOM     14  C   UNL d   1     -50.210  15.598  23.226  0.00  0.00     0.022 C 
ATOM     15  C   UNL d   1     -50.407  14.382  22.421  0.00  0.00     0.037 A 
ATOM     16  C   UNL d   1     -50.025  13.648  22.360  0.00  0.00     0.084 A 
ATOM     17  C   UNL d   1     -51.064  14.621  21.988  0.00  0.00     0.003 C 
ATOM     18  C   UNL d   1     -50.245  13.035  21.851  0.00  0.00     0.021 C 
ENDBRANCH  10  11
ENDBRANCH   9  10
ENDBRANCH   3   9
BRANCH   1  19
ATOM     19  S   UNL d   1     -44.508  12.929  22.071  0.00  0.00     0.271 S 
ATOM     20  O   UNL d   1     -44.330  12.140  22.270  0.00  0.00    -0.200 OA
ATOM     21  O   UNL d   1     -44.685  13.710  21.874  0.00  0.00    -0.200 OA
BRANCH  19  22
ATOM     22  C   UNL d   1     -43.741  13.023  21.758  0.00  0.00     0.104 A 
ATOM     23  C   UNL d   1     -43.227  12.387  21.750  0.00  0.00     0.014 A 
ATOM     24  C   UNL d   1     -42.467  12.476  21.442  0.00  0.00     0.012 A 
ATOM     25  C   UNL d   1     -42.224  13.211  21.140  0.00  0.00     0.058 A 
ATOM     26  C   UNL d   1     -42.748  13.859  21.149  0.00  0.00     0.012 A 
ATOM     27 CL   UNL d   1     -41.465  13.305  20.831  0.00  0.00    -0.082 Cl
ATOM     28  C   UNL d   1     -43.515  13.764  21.461  0.00  0.00     0.014 A 
ENDBRANCH  19  22
ENDBRANCH   1  19
TORSDOF 5
ENDMDL
