MODEL 1
REMARK VINA RESULT:      84.1      0.000      0.000
REMARK  3 active torsions:
REMARK  status: ('A' for Active; 'I' for Inactive)
REMARK    1  A    between atoms: C_2  and  C_1 
REMARK    2  A    between atoms: N_12  and  C_6 
REMARK    3  A    between atoms: C_15  and  N_12 
ROOT
ATOM      1  C   UNL d   1     -57.162 -99.523 -43.907  0.00  0.00     0.082 A 
ATOM      2  C   UNL d   1     -57.652 -99.378 -43.254  0.00  0.00     0.302 A 
ATOM      3  C   UNL d   1     -57.466 -99.481 -44.685  0.00  0.00     0.009 A 
ATOM      4  O   UNL d   1     -58.453 -99.188 -43.375  0.00  0.00    -0.273 OA
ATOM      5  C   UNL d   1     -58.267 -99.291 -44.785  0.00  0.00     0.025 A 
ATOM      6  C   UNL d   1     -58.754 -99.146 -44.135  0.00  0.00     0.103 A 
ATOM      7  O   UNL d   1     -57.351 -99.420 -42.493  0.00  0.00    -0.259 OA
ATOM      8  C   UNL d   1     -58.574 -99.248 -45.552  0.00  0.00     0.026 A 
ATOM      9  C   UNL d   1     -59.553 -98.958 -44.261  0.00  0.00     0.027 A 
ATOM     10  C   UNL d   1     -59.363 -99.061 -45.668  0.00  0.00     0.094 A 
ATOM     11  C   UNL d   1     -59.854 -98.915 -45.021  0.00  0.00     0.026 A 
ATOM     12  O   UNL d   1     -59.666 -99.018 -46.425  0.00  0.00    -0.328 OA
ATOM     13  C   UNL d   1     -59.959 -98.978 -47.196  0.00  0.00     0.181 C 
ENDROOT
BRANCH   1  14
ATOM     14  C   UNL d   1     -56.373 -99.710 -43.789  0.00  0.00     0.095 A 
ATOM     15  N   UNL d   1     -56.053-100.039 -43.114  0.00  0.00    -0.221 NA
ATOM     16  C   UNL d   1     -55.249-100.131 -43.236  0.00  0.00     0.194 A 
ATOM     17  S   UNL d   1     -55.067 -99.858 -43.994  0.00  0.00    -0.046 SA
ATOM     18  C   UNL d   1     -55.768 -99.595 -44.338  0.00  0.00     0.058 A 
BRANCH  16  19
ATOM     19  N   UNL d   1     -54.711-100.441 -42.704  0.00  0.00    -0.221 NA
BRANCH  19  20
ATOM     20  C   UNL d   1     -54.864-101.159 -42.345  0.00  0.00     0.087 A 
ATOM     21  C   UNL d   1     -54.964-101.197 -41.526  0.00  0.00     0.061 A 
ATOM     22  C   UNL d   1     -55.117-101.916 -41.166  0.00  0.00     0.197 A 
ATOM     23  O   UNL d   1     -55.217-101.950 -40.352  0.00  0.00    -0.286 OA
ATOM     24  C   UNL d   1     -55.171-102.605 -41.623  0.00  0.00     0.042 A 
ATOM     25  C   UNL d   1     -55.071-102.566 -42.433  0.00  0.00     0.005 A 
ATOM     26  C   UNL d   1     -54.917-101.844 -42.802  0.00  0.00     0.019 A 
ENDBRANCH  19  20
ENDBRANCH  16  19
ENDBRANCH   1  14
TORSDOF 3
ENDMDL
