MODEL 1
REMARK VINA RESULT:      -2.5      0.000      0.000
REMARK  3 active torsions:
REMARK  status: ('A' for Active; 'I' for Inactive)
REMARK       I    between atoms: C_2  and  N_1 
REMARK    1  A    between atoms: C_6  and  C_2 
REMARK    2  A    between atoms: O_14  and  C_9 
REMARK    3  A    between atoms: O_16  and  C_11 
ROOT
ATOM      1  C   UNL d   1      30.642  16.775 -24.498  0.00  0.00     0.060 A 
ATOM      2  C   UNL d   1      31.217  17.196 -24.088  0.00  0.00     0.031 A 
ATOM      3  C   UNL d   1      32.005  16.965 -24.120  0.00  0.00     0.116 A 
ATOM      4  C   UNL d   1      32.222  16.303 -24.568  0.00  0.00     0.116 A 
ATOM      5  C   UNL d   1      30.859  16.112 -24.946  0.00  0.00     0.007 A 
ATOM      6  C   UNL d   1      31.649  15.877 -24.980  0.00  0.00     0.026 A 
ENDROOT
BRANCH   1   7
ATOM      7  C   UNL d   1      29.855  17.010 -24.463  0.00  0.00     0.280 C 
ATOM      8  N   UNL d   1      29.319  16.575 -24.017  0.00  0.00    -0.195 N 
ATOM      9  N   UNL d   1      28.509  16.742 -23.929  0.00  0.00    -0.163 NA
ATOM     10  C   UNL d   1      29.486  15.898 -23.581  0.00  0.00     0.088 A 
ATOM     11  C   UNL d   1      28.181  16.166 -23.437  0.00  0.00     0.103 A 
ATOM     12  C   UNL d   1      27.388  16.121 -23.202  0.00  0.00     0.022 C 
ATOM     13  C   UNL d   1      28.779  15.645 -23.220  0.00  0.00     0.040 A 
ATOM     14  C   UNL d   1      30.225  15.533 -23.510  0.00  0.00     0.021 C 
ATOM     15  O   UNL d   1      29.605  17.680 -24.874  0.00  0.00    -0.265 OA
ENDBRANCH   1   7
BRANCH   3  16
ATOM     16  O   UNL d   1      32.577  17.390 -23.709  0.00  0.00    -0.326 OA
ATOM     17  C   UNL d   1      32.471  18.196 -23.568  0.00  0.00     0.181 C 
ENDBRANCH   3  16
BRANCH   4  18
ATOM     18  O   UNL d   1      33.009  16.071 -24.601  0.00  0.00    -0.326 OA
ATOM     19  C   UNL d   1      33.241  15.455 -25.096  0.00  0.00     0.181 C 
ENDBRANCH   4  18
TORSDOF 3
ENDMDL
MODEL 2
REMARK VINA RESULT:      -2.4      1.358      1.985
REMARK  3 active torsions:
REMARK  status: ('A' for Active; 'I' for Inactive)
REMARK       I    between atoms: C_2  and  N_1 
REMARK    1  A    between atoms: C_6  and  C_2 
REMARK    2  A    between atoms: O_14  and  C_9 
REMARK    3  A    between atoms: O_16  and  C_11 
ROOT
ATOM      1  C   UNL d   1      31.790  16.900 -23.997  0.00  0.00     0.060 A 
ATOM      2  C   UNL d   1      32.111  17.315 -23.364  0.00  0.00     0.031 A 
ATOM      3  C   UNL d   1      32.561  17.990 -23.493  0.00  0.00     0.116 A 
ATOM      4  C   UNL d   1      32.693  18.255 -24.267  0.00  0.00     0.116 A 
ATOM      5  C   UNL d   1      31.922  17.165 -24.771  0.00  0.00     0.007 A 
ATOM      6  C   UNL d   1      32.374  17.842 -24.905  0.00  0.00     0.026 A 
ENDROOT
BRANCH   1   7
ATOM      7  C   UNL d   1      31.340  16.226 -23.863  0.00  0.00     0.280 C 
ATOM      8  N   UNL d   1      30.522  16.258 -23.939  0.00  0.00    -0.195 N 
ATOM      9  N   UNL d   1      29.995  15.626 -23.823  0.00  0.00    -0.163 NA
ATOM     10  C   UNL d   1      30.080  16.921 -24.144  0.00  0.00     0.088 A 
ATOM     11  C   UNL d   1      29.229  15.902 -23.956  0.00  0.00     0.103 A 
ATOM     12  C   UNL d   1      28.534  15.456 -23.901  0.00  0.00     0.022 C 
ATOM     13  C   UNL d   1      29.277  16.700 -24.155  0.00  0.00     0.040 A 
ATOM     14  C   UNL d   1      30.378  17.675 -24.310  0.00  0.00     0.021 C 
ATOM     15  O   UNL d   1      31.708  15.518 -23.653  0.00  0.00    -0.265 OA
ENDBRANCH   1   7
BRANCH   3  16
ATOM     16  O   UNL d   1      32.881  18.402 -22.857  0.00  0.00    -0.326 OA
ATOM     17  C   UNL d   1      33.239  17.991 -22.237  0.00  0.00     0.181 C 
ENDBRANCH   3  16
BRANCH   4  18
ATOM     18  O   UNL d   1      33.143  18.929 -24.398  0.00  0.00    -0.326 OA
ATOM     19  C   UNL d   1      33.060  19.356 -25.097  0.00  0.00     0.181 C 
ENDBRANCH   4  18
TORSDOF 3
ENDMDL
MODEL 3
REMARK VINA RESULT:      -2.3      1.586      2.732
REMARK  3 active torsions:
REMARK  status: ('A' for Active; 'I' for Inactive)
REMARK       I    between atoms: C_2  and  N_1 
REMARK    1  A    between atoms: C_6  and  C_2 
REMARK    2  A    between atoms: O_14  and  C_9 
REMARK    3  A    between atoms: O_16  and  C_11 
ROOT
ATOM      1  C   UNL d   1      32.357  17.736 -23.879  0.00  0.00     0.060 A 
ATOM      2  C   UNL d   1      32.401  18.296 -23.278  0.00  0.00     0.031 A 
ATOM      3  C   UNL d   1      32.694  19.048 -23.430  0.00  0.00     0.116 A 
ATOM      4  C   UNL d   1      32.948  19.244 -24.194  0.00  0.00     0.116 A 
ATOM      5  C   UNL d   1      32.610  17.932 -24.643  0.00  0.00     0.007 A 
ATOM      6  C   UNL d   1      32.905  18.686 -24.800  0.00  0.00     0.026 A 
ENDROOT
BRANCH   1   7
ATOM      7  C   UNL d   1      32.063  16.985 -23.722  0.00  0.00     0.280 C 
ATOM      8  N   UNL d   1      31.290  16.797 -23.928  0.00  0.00    -0.195 N 
ATOM      9  N   UNL d   1      30.916  16.065 -23.806  0.00  0.00    -0.163 NA
ATOM     10  C   UNL d   1      30.749  17.300 -24.291  0.00  0.00     0.088 A 
ATOM     11  C   UNL d   1      30.144  16.119 -24.095  0.00  0.00     0.103 A 
ATOM     12  C   UNL d   1      29.577  15.516 -24.086  0.00  0.00     0.022 C 
ATOM     13  C   UNL d   1      30.038  16.879 -24.395  0.00  0.00     0.040 A 
ATOM     14  C   UNL d   1      30.886  18.085 -24.514  0.00  0.00     0.021 C 
ATOM     15  O   UNL d   1      32.543  16.420 -23.359  0.00  0.00    -0.265 OA
ENDBRANCH   1   7
BRANCH   3  16
ATOM     16  O   UNL d   1      32.737  19.605 -22.826  0.00  0.00    -0.326 OA
ATOM     17  C   UNL d   1      32.897  19.364 -22.053  0.00  0.00     0.181 C 
ENDBRANCH   3  16
BRANCH   4  18
ATOM     18  O   UNL d   1      33.241  19.996 -24.348  0.00  0.00    -0.326 OA
ATOM     19  C   UNL d   1      33.161  20.329 -25.097  0.00  0.00     0.181 C 
ENDBRANCH   4  18
TORSDOF 3
ENDMDL
MODEL 4
REMARK VINA RESULT:      -1.8      2.278      3.937
REMARK  3 active torsions:
REMARK  status: ('A' for Active; 'I' for Inactive)
REMARK       I    between atoms: C_2  and  N_1 
REMARK    1  A    between atoms: C_6  and  C_2 
REMARK    2  A    between atoms: O_14  and  C_9 
REMARK    3  A    between atoms: O_16  and  C_11 
ROOT
ATOM      1  C   UNL d   1      32.579  18.464 -24.043  0.00  0.00     0.060 A 
ATOM      2  C   UNL d   1      31.824  18.147 -24.119  0.00  0.00     0.031 A 
ATOM      3  C   UNL d   1      31.722  17.342 -24.249  0.00  0.00     0.116 A 
ATOM      4  C   UNL d   1      32.384  16.846 -24.305  0.00  0.00     0.116 A 
ATOM      5  C   UNL d   1      33.241  17.969 -24.099  0.00  0.00     0.007 A 
ATOM      6  C   UNL d   1      33.142  17.160 -24.230  0.00  0.00     0.026 A 
ENDROOT
BRANCH   1   7
ATOM      7  C   UNL d   1      32.677  19.270 -23.913  0.00  0.00     0.280 C 
ATOM      8  N   UNL d   1      32.838  19.544 -23.156  0.00  0.00    -0.195 N 
ATOM      9  N   UNL d   1      32.950  20.339 -22.938  0.00  0.00    -0.163 NA
ATOM     10  C   UNL d   1      32.916  19.084 -22.479  0.00  0.00     0.088 A 
ATOM     11  C   UNL d   1      33.098  20.364 -22.126  0.00  0.00     0.103 A 
ATOM     12  C   UNL d   1      33.241  21.045 -21.678  0.00  0.00     0.022 C 
ATOM     13  C   UNL d   1      33.078  19.593 -21.840  0.00  0.00     0.040 A 
ATOM     14  C   UNL d   1      32.847  18.260 -22.438  0.00  0.00     0.021 C 
ATOM     15  O   UNL d   1      32.613  19.801 -24.541  0.00  0.00    -0.265 OA
ENDBRANCH   1   7
BRANCH   3  16
ATOM     16  O   UNL d   1      30.965  17.028 -24.325  0.00  0.00    -0.326 OA
ATOM     17  C   UNL d   1      30.334  17.519 -24.530  0.00  0.00     0.181 C 
ENDBRANCH   3  16
BRANCH   4  18
ATOM     18  O   UNL d   1      32.283  16.042 -24.435  0.00  0.00    -0.326 OA
ATOM     19  C   UNL d   1      32.927  15.568 -24.632  0.00  0.00     0.181 C 
ENDBRANCH   4  18
TORSDOF 3
ENDMDL
MODEL 5
REMARK VINA RESULT:      -1.7      1.614      3.573
REMARK  3 active torsions:
REMARK  status: ('A' for Active; 'I' for Inactive)
REMARK       I    between atoms: C_2  and  N_1 
REMARK    1  A    between atoms: C_6  and  C_2 
REMARK    2  A    between atoms: O_14  and  C_9 
REMARK    3  A    between atoms: O_16  and  C_11 
ROOT
ATOM      1  C   UNL d   1      30.836  16.100 -24.407  0.00  0.00     0.060 A 
ATOM      2  C   UNL d   1      30.493  15.941 -23.677  0.00  0.00     0.031 A 
ATOM      3  C   UNL d   1      29.702  15.725 -23.627  0.00  0.00     0.116 A 
ATOM      4  C   UNL d   1      29.246  15.668 -24.317  0.00  0.00     0.116 A 
ATOM      5  C   UNL d   1      30.381  16.043 -25.097  0.00  0.00     0.007 A 
ATOM      6  C   UNL d   1      29.586  15.827 -25.051  0.00  0.00     0.026 A 
ENDROOT
BRANCH   1   7
ATOM      7  C   UNL d   1      31.628  16.315 -24.452  0.00  0.00     0.280 C 
ATOM      8  N   UNL d   1      31.832  17.106 -24.543  0.00  0.00    -0.195 N 
ATOM      9  N   UNL d   1      32.605  17.408 -24.597  0.00  0.00    -0.163 NA
ATOM     10  C   UNL d   1      31.309  17.739 -24.597  0.00  0.00     0.088 A 
ATOM     11  C   UNL d   1      32.554  18.228 -24.685  0.00  0.00     0.103 A 
ATOM     12  C   UNL d   1      33.193  18.749 -24.759  0.00  0.00     0.022 C 
ATOM     13  C   UNL d   1      31.758  18.435 -24.685  0.00  0.00     0.040 A 
ATOM     14  C   UNL d   1      30.483  17.694 -24.569  0.00  0.00     0.021 C 
ATOM     15  O   UNL d   1      32.217  15.739 -24.406  0.00  0.00    -0.265 OA
ENDBRANCH   1   7
BRANCH   3  16
ATOM     16  O   UNL d   1      29.362  15.566 -22.895  0.00  0.00    -0.326 OA
ATOM     17  C   UNL d   1      29.841  15.460 -22.232  0.00  0.00     0.181 C 
ENDBRANCH   3  16
BRANCH   4  18
ATOM     18  O   UNL d   1      28.455  15.453 -24.269  0.00  0.00    -0.326 OA
ATOM     19  C   UNL d   1      27.975  15.480 -24.937  0.00  0.00     0.181 C 
ENDBRANCH   4  18
TORSDOF 3
ENDMDL
MODEL 6
REMARK VINA RESULT:      -0.7      1.495      3.514
REMARK  3 active torsions:
REMARK  status: ('A' for Active; 'I' for Inactive)
REMARK       I    between atoms: C_2  and  N_1 
REMARK    1  A    between atoms: C_6  and  C_2 
REMARK    2  A    between atoms: O_14  and  C_9 
REMARK    3  A    between atoms: O_16  and  C_11 
ROOT
ATOM      1  C   UNL d   1      29.867  16.591 -24.358  0.00  0.00     0.060 A 
ATOM      2  C   UNL d   1      29.429  17.159 -23.956  0.00  0.00     0.031 A 
ATOM      3  C   UNL d   1      28.633  17.034 -23.794  0.00  0.00     0.116 A 
ATOM      4  C   UNL d   1      28.269  16.330 -24.039  0.00  0.00     0.116 A 
ATOM      5  C   UNL d   1      29.503  15.887 -24.602  0.00  0.00     0.007 A 
ATOM      6  C   UNL d   1      28.704  15.758 -24.442  0.00  0.00     0.026 A 
ENDROOT
BRANCH   1   7
ATOM      7  C   UNL d   1      30.663  16.720 -24.517  0.00  0.00     0.280 C 
ATOM      8  N   UNL d   1      31.236  16.307 -24.097  0.00  0.00    -0.195 N 
ATOM      9  N   UNL d   1      32.059  16.377 -24.194  0.00  0.00    -0.163 NA
ATOM     10  C   UNL d   1      31.098  15.751 -23.506  0.00  0.00     0.088 A 
ATOM     11  C   UNL d   1      32.425  15.863 -23.662  0.00  0.00     0.103 A 
ATOM     12  C   UNL d   1      33.241  15.756 -23.572  0.00  0.00     0.022 C 
ATOM     13  C   UNL d   1      31.837  15.476 -23.236  0.00  0.00     0.040 A 
ATOM     14  C   UNL d   1      30.358  15.508 -23.227  0.00  0.00     0.021 C 
ATOM     15  O   UNL d   1      30.886  17.262 -25.097  0.00  0.00    -0.265 OA
ENDBRANCH   1   7
BRANCH   3  16
ATOM     16  O   UNL d   1      28.198  17.604 -23.392  0.00  0.00    -0.326 OA
ATOM     17  C   UNL d   1      28.068  18.343 -23.736  0.00  0.00     0.181 C 
ENDBRANCH   3  16
BRANCH   4  18
ATOM     18  O   UNL d   1      27.474  16.204 -23.878  0.00  0.00    -0.326 OA
ATOM     19  C   UNL d   1      27.147  15.453 -23.960  0.00  0.00     0.181 C 
ENDBRANCH   4  18
TORSDOF 3
ENDMDL
MODEL 7
REMARK VINA RESULT:       0.1      4.661      6.566
REMARK  3 active torsions:
REMARK  status: ('A' for Active; 'I' for Inactive)
REMARK       I    between atoms: C_2  and  N_1 
REMARK    1  A    between atoms: C_6  and  C_2 
REMARK    2  A    between atoms: O_14  and  C_9 
REMARK    3  A    between atoms: O_16  and  C_11 
ROOT
ATOM      1  C   UNL d   1      32.984  21.697 -21.760  0.00  0.00     0.060 A 
ATOM      2  C   UNL d   1      32.606  22.422 -21.680  0.00  0.00     0.031 A 
ATOM      3  C   UNL d   1      32.481  22.747 -20.936  0.00  0.00     0.116 A 
ATOM      4  C   UNL d   1      32.738  22.341 -20.261  0.00  0.00     0.116 A 
ATOM      5  C   UNL d   1      33.241  21.290 -21.085  0.00  0.00     0.007 A 
ATOM      6  C   UNL d   1      33.117  21.613 -20.336  0.00  0.00     0.026 A 
ENDROOT
BRANCH   1   7
ATOM      7  C   UNL d   1      33.107  21.375 -22.506  0.00  0.00     0.280 C 
ATOM      8  N   UNL d   1      33.096  20.559 -22.607  0.00  0.00    -0.195 N 
ATOM      9  N   UNL d   1      33.211  20.154 -23.323  0.00  0.00    -0.163 NA
ATOM     10  C   UNL d   1      32.970  20.000 -22.017  0.00  0.00     0.088 A 
ATOM     11  C   UNL d   1      33.155  19.344 -23.172  0.00  0.00     0.103 A 
ATOM     12  C   UNL d   1      33.234  18.738 -23.730  0.00  0.00     0.022 C 
ATOM     13  C   UNL d   1      33.007  19.245 -22.368  0.00  0.00     0.040 A 
ATOM     14  C   UNL d   1      32.832  20.156 -21.217  0.00  0.00     0.021 C 
ATOM     15  O   UNL d   1      33.241  21.869 -23.153  0.00  0.00    -0.265 OA
ENDBRANCH   1   7
BRANCH   3  16
ATOM     16  O   UNL d   1      32.102  23.474 -20.861  0.00  0.00    -0.326 OA
ATOM     17  C   UNL d   1      31.446  23.648 -21.331  0.00  0.00     0.181 C 
ENDBRANCH   3  16
BRANCH   4  18
ATOM     18  O   UNL d   1      32.613  22.665 -19.517  0.00  0.00    -0.326 OA
ATOM     19  C   UNL d   1      33.057  22.409 -18.872  0.00  0.00     0.181 C 
ENDBRANCH   4  18
TORSDOF 3
ENDMDL
