MODEL 1
REMARK VINA RESULT:      -7.7      0.000      0.000
REMARK  6 active torsions:
REMARK  status: ('A' for Active; 'I' for Inactive)
REMARK    1  A    between atoms: C_8  and  N_1 
REMARK    2  A    between atoms: C_6  and  C_3 
REMARK    3  A    between atoms: C_7  and  C_6 
REMARK       I    between atoms: N_11  and  C_7 
REMARK    4  A    between atoms: C_9  and  C_8 
REMARK       I    between atoms: N_12  and  C_9 
REMARK    5  A    between atoms: C_17  and  N_11 
REMARK    6  A    between atoms: C_16  and  N_12 
ROOT
ATOM      1  N   UNL d   1      51.400  34.105  52.649  0.00  0.00    -0.230 N 
ATOM      2  C   UNL d   1      50.993  34.479  53.265  0.00  0.00     0.299 A 
ATOM      3  C   UNL d   1      50.206  34.475  52.192  0.00  0.00     0.095 A 
ATOM      4  C   UNL d   1      50.913  34.103  51.984  0.00  0.00     0.274 A 
ATOM      5  S   UNL d   1      50.257  34.704  52.973  0.00  0.00    -0.022 SA
ATOM      6  O   UNL d   1      51.280  34.600  54.029  0.00  0.00    -0.259 OA
ATOM      7  O   UNL d   1      51.101  33.784  51.244  0.00  0.00    -0.266 OA
ENDROOT
BRANCH   1   8
ATOM      8  C   UNL d   1      52.163  33.790  52.694  0.00  0.00     0.149 C 
BRANCH   8   9
ATOM      9  C   UNL d   1      52.273  33.019  52.968  0.00  0.00     0.297 C 
ATOM     10  N   UNL d   1      52.948  32.605  52.759  0.00  0.00    -0.207 NA
ATOM     11  O   UNL d   1      51.701  32.667  53.452  0.00  0.00    -0.264 OA
BRANCH  10  12
ATOM     12  C   UNL d   1      53.060  31.831  53.033  0.00  0.00     0.085 A 
ATOM     13  C   UNL d   1      53.499  31.701  53.715  0.00  0.00     0.019 A 
ATOM     14  C   UNL d   1      53.611  30.932  53.989  0.00  0.00     0.002 A 
ATOM     15  C   UNL d   1      53.282  30.295  53.576  0.00  0.00     0.000 A 
ATOM     16  C   UNL d   1      52.838  30.434  52.886  0.00  0.00     0.002 A 
ATOM     17  C   UNL d   1      53.391  29.527  53.845  0.00  0.00     0.000 C 
ATOM     18  C   UNL d   1      52.729  31.202  52.617  0.00  0.00     0.019 A 
ENDBRANCH  10  12
ENDBRANCH   8   9
ENDBRANCH   1   8
BRANCH   3  19
ATOM     19  C   UNL d   1      49.564  34.591  51.686  0.00  0.00     0.074 C 
BRANCH  19  20
ATOM     20  C   UNL d   1      48.871  34.926  51.974  0.00  0.00     0.280 C 
ATOM     21  N   UNL d   1      48.382  35.361  51.483  0.00  0.00    -0.208 NA
ATOM     22  O   UNL d   1      48.661  34.825  52.769  0.00  0.00    -0.265 OA
BRANCH  21  23
ATOM     23  C   UNL d   1      47.691  35.695  51.775  0.00  0.00     0.085 A 
ATOM     24  C   UNL d   1      47.726  36.375  52.234  0.00  0.00     0.020 A 
ATOM     25  C   UNL d   1      47.030  36.709  52.526  0.00  0.00     0.013 A 
ATOM     26  C   UNL d   1      46.306  36.365  52.360  0.00  0.00     0.058 A 
ATOM     27  C   UNL d   1      46.268  35.677  51.896  0.00  0.00     0.013 A 
ATOM     28 CL   UNL d   1      45.609  36.698  52.653  0.00  0.00    -0.082 Cl
ATOM     29  C   UNL d   1      46.964  35.343  51.604  0.00  0.00     0.020 A 
ENDBRANCH  21  23
ENDBRANCH  19  20
ENDBRANCH   3  19
TORSDOF 6
ENDMDL
MODEL 2
REMARK VINA RESULT:      -7.1      2.322      6.455
REMARK  6 active torsions:
REMARK  status: ('A' for Active; 'I' for Inactive)
REMARK    1  A    between atoms: C_8  and  N_1 
REMARK    2  A    between atoms: C_6  and  C_3 
REMARK    3  A    between atoms: C_7  and  C_6 
REMARK       I    between atoms: N_11  and  C_7 
REMARK    4  A    between atoms: C_9  and  C_8 
REMARK       I    between atoms: N_12  and  C_9 
REMARK    5  A    between atoms: C_17  and  N_11 
REMARK    6  A    between atoms: C_16  and  N_12 
ROOT
ATOM      1  N   UNL d   1      49.432  34.976  52.015  0.00  0.00    -0.230 N 
ATOM      2  C   UNL d   1      49.793  34.447  51.490  0.00  0.00     0.299 A 
ATOM      3  C   UNL d   1      50.237  34.182  52.717  0.00  0.00     0.095 A 
ATOM      4  C   UNL d   1      49.707  34.813  52.775  0.00  0.00     0.274 A 
ATOM      5  S   UNL d   1      50.288  33.961  51.934  0.00  0.00    -0.022 SA
ATOM      6  O   UNL d   1      49.672  34.419  50.675  0.00  0.00    -0.259 OA
ATOM      7  O   UNL d   1      49.490  35.210  53.467  0.00  0.00    -0.266 OA
ENDROOT
BRANCH   1   8
ATOM      8  C   UNL d   1      48.890  35.567  51.810  0.00  0.00     0.149 C 
BRANCH   8   9
ATOM      9  C   UNL d   1      48.084  35.395  51.791  0.00  0.00     0.297 C 
ATOM     10  N   UNL d   1      47.536  35.999  51.874  0.00  0.00    -0.207 NA
ATOM     11  O   UNL d   1      47.830  34.613  51.688  0.00  0.00    -0.264 OA
BRANCH  10  12
ATOM     12  C   UNL d   1      46.726  35.828  51.854  0.00  0.00     0.085 A 
ATOM     13  C   UNL d   1      46.350  35.722  51.131  0.00  0.00     0.019 A 
ATOM     14  C   UNL d   1      45.544  35.552  51.110  0.00  0.00     0.002 A 
ATOM     15  C   UNL d   1      45.117  35.488  51.817  0.00  0.00     0.000 A 
ATOM     16  C   UNL d   1      45.504  35.596  52.545  0.00  0.00     0.002 A 
ATOM     17  C   UNL d   1      44.314  35.319  51.801  0.00  0.00     0.000 C 
ATOM     18  C   UNL d   1      46.308  35.766  52.560  0.00  0.00     0.019 A 
ENDBRANCH  10  12
ENDBRANCH   8   9
ENDBRANCH   1   8
BRANCH   3  19
ATOM     19  C   UNL d   1      50.640  33.842  53.352  0.00  0.00     0.074 C 
BRANCH  19  20
ATOM     20  C   UNL d   1      51.457  33.754  53.317  0.00  0.00     0.280 C 
ATOM     21  N   UNL d   1      51.841  33.226  53.811  0.00  0.00    -0.208 NA
ATOM     22  O   UNL d   1      51.900  34.201  52.779  0.00  0.00    -0.265 OA
BRANCH  21  23
ATOM     23  C   UNL d   1      52.657  33.141  53.774  0.00  0.00     0.085 A 
ATOM     24  C   UNL d   1      53.142  33.649  54.200  0.00  0.00     0.020 A 
ATOM     25  C   UNL d   1      53.962  33.562  54.161  0.00  0.00     0.013 A 
ATOM     26  C   UNL d   1      54.292  32.972  53.701  0.00  0.00     0.058 A 
ATOM     27  C   UNL d   1      53.804  32.457  53.269  0.00  0.00     0.013 A 
ATOM     28 CL   UNL d   1      55.112  32.884  53.662  0.00  0.00    -0.082 Cl
ATOM     29  C   UNL d   1      52.984  32.545  53.308  0.00  0.00     0.020 A 
ENDBRANCH  21  23
ENDBRANCH  19  20
ENDBRANCH   3  19
TORSDOF 6
ENDMDL
MODEL 3
REMARK VINA RESULT:      -6.6      2.296      6.315
REMARK  6 active torsions:
REMARK  status: ('A' for Active; 'I' for Inactive)
REMARK    1  A    between atoms: C_8  and  N_1 
REMARK    2  A    between atoms: C_6  and  C_3 
REMARK    3  A    between atoms: C_7  and  C_6 
REMARK       I    between atoms: N_11  and  C_7 
REMARK    4  A    between atoms: C_9  and  C_8 
REMARK       I    between atoms: N_12  and  C_9 
REMARK    5  A    between atoms: C_17  and  N_11 
REMARK    6  A    between atoms: C_16  and  N_12 
ROOT
ATOM      1  N   UNL d   1      50.805  34.288  52.966  0.00  0.00    -0.230 N 
ATOM      2  C   UNL d   1      50.661  33.725  53.556  0.00  0.00     0.299 A 
ATOM      3  C   UNL d   1      51.692  33.306  52.826  0.00  0.00     0.095 A 
ATOM      4  C   UNL d   1      51.443  34.028  52.514  0.00  0.00     0.274 A 
ATOM      5  S   UNL d   1      51.214  33.122  53.461  0.00  0.00    -0.022 SA
ATOM      6  O   UNL d   1      50.070  33.768  54.130  0.00  0.00    -0.259 OA
ATOM      7  O   UNL d   1      51.773  34.423  51.865  0.00  0.00    -0.266 OA
ENDROOT
BRANCH   1   8
ATOM      8  C   UNL d   1      50.380  34.988  52.852  0.00  0.00     0.149 C 
BRANCH   8   9
ATOM      9  C   UNL d   1      49.621  34.961  52.531  0.00  0.00     0.297 C 
ATOM     10  N   UNL d   1      49.132  35.616  52.583  0.00  0.00    -0.207 NA
ATOM     11  O   UNL d   1      49.356  34.271  52.156  0.00  0.00    -0.264 OA
BRANCH  10  12
ATOM     12  C   UNL d   1      48.369  35.589  52.260  0.00  0.00     0.085 A 
ATOM     13  C   UNL d   1      48.263  35.327  51.489  0.00  0.00     0.019 A 
ATOM     14  C   UNL d   1      47.506  35.300  51.167  0.00  0.00     0.002 A 
ATOM     15  C   UNL d   1      46.856  35.537  51.621  0.00  0.00     0.000 A 
ATOM     16  C   UNL d   1      46.970  35.801  52.400  0.00  0.00     0.002 A 
ATOM     17  C   UNL d   1      46.098  35.511  51.304  0.00  0.00     0.000 C 
ATOM     18  C   UNL d   1      47.728  35.826  52.717  0.00  0.00     0.019 A 
ENDBRANCH  10  12
ENDBRANCH   8   9
ENDBRANCH   1   8
BRANCH   3  19
ATOM     19  C   UNL d   1      52.319  32.854  52.536  0.00  0.00     0.074 C 
BRANCH  19  20
ATOM     20  C   UNL d   1      52.579  32.198  52.956  0.00  0.00     0.280 C 
ATOM     21  N   UNL d   1      52.574  31.454  52.614  0.00  0.00    -0.208 NA
ATOM     22  O   UNL d   1      52.850  32.283  53.734  0.00  0.00    -0.265 OA
BRANCH  21  23
ATOM     23  C   UNL d   1      52.835  30.800  53.037  0.00  0.00     0.085 A 
ATOM     24  C   UNL d   1      53.626  30.738  53.249  0.00  0.00     0.020 A 
ATOM     25  C   UNL d   1      53.886  30.080  53.674  0.00  0.00     0.013 A 
ATOM     26  C   UNL d   1      53.359  29.491  53.884  0.00  0.00     0.058 A 
ATOM     27  C   UNL d   1      52.558  29.551  53.671  0.00  0.00     0.013 A 
ATOM     28 CL   UNL d   1      53.618  28.832  54.310  0.00  0.00    -0.082 Cl
ATOM     29  C   UNL d   1      52.299  30.209  53.246  0.00  0.00     0.020 A 
ENDBRANCH  21  23
ENDBRANCH  19  20
ENDBRANCH   3  19
TORSDOF 6
ENDMDL
