MODEL 1
REMARK VINA RESULT:      -7.5      0.000      0.000
REMARK  5 active torsions:
REMARK  status: ('A' for Active; 'I' for Inactive)
REMARK    1  A    between atoms: O_8  and  S_1 
REMARK    2  A    between atoms: C_9  and  S_1 
REMARK    3  A    between atoms: C_7  and  C_2 
REMARK    4  A    between atoms: C_20  and  C_7 
REMARK    5  A    between atoms: C_14  and  O_8 
ROOT
ATOM      1  C   UNL d   1     -49.536  12.950  22.685  0.00  0.00     0.139 A 
ATOM      2  C   UNL d   1     -48.544  12.095  22.931  0.00  0.00     0.064 A 
ATOM      3  C   UNL d   1     -49.330  12.152  22.687  0.00  0.00     0.220 A 
ATOM      4  C   UNL d   1     -48.265  12.860  23.082  0.00  0.00     0.105 A 
ATOM      5  O   UNL d   1     -48.880  13.386  22.929  0.00  0.00    -0.304 OA
ATOM      6  C   UNL d   1     -47.483  12.970  23.339  0.00  0.00     0.050 A 
ATOM      7  C   UNL d   1     -48.040  11.440  23.038  0.00  0.00     0.007 A 
ATOM      8  C   UNL d   1     -46.987  12.322  23.444  0.00  0.00     0.116 A 
ATOM      9  O   UNL d   1     -49.818  11.522  22.480  0.00  0.00    -0.284 OA
ATOM     10  C   UNL d   1     -47.266  11.557  23.293  0.00  0.00     0.026 A 
ENDROOT
BRANCH   8  11
ATOM     11  O   UNL d   1     -46.215  12.432  23.698  0.00  0.00    -0.227 OA
BRANCH  11  12
ATOM     12  S   UNL d   1     -45.604  12.499  23.160  0.00  0.00     0.304 S 
ATOM     13  O   UNL d   1     -45.459  11.694  23.218  0.00  0.00    -0.193 OA
ATOM     14  O   UNL d   1     -45.749  13.303  23.101  0.00  0.00    -0.193 OA
BRANCH  12  15
ATOM     15  C   UNL d   1     -44.988  12.567  22.617  0.00  0.00     0.111 A 
ATOM     16  C   UNL d   1     -44.374  12.017  22.617  0.00  0.00     0.013 A 
ATOM     17  C   UNL d   1     -43.754  12.085  22.071  0.00  0.00     0.001 A 
ATOM     18  C   UNL d   1     -43.756  12.706  21.531  0.00  0.00     0.000 A 
ATOM     19  C   UNL d   1     -44.370  13.260  21.529  0.00  0.00     0.001 A 
ATOM     20  C   UNL d   1     -43.140  12.774  20.989  0.00  0.00     0.000 C 
ATOM     21  C   UNL d   1     -44.982  13.189  22.071  0.00  0.00     0.013 A 
ENDBRANCH  12  15
ENDBRANCH  11  12
ENDBRANCH   8  11
BRANCH   1  22
ATOM     22  C   UNL d   1     -50.275  13.261  22.476  0.00  0.00     0.029 C 
BRANCH  22  23
ATOM     23  C   UNL d   1     -50.482  14.015  22.719  0.00  0.00     0.021 A 
ATOM     24  C   UNL d   1     -50.313  14.664  22.234  0.00  0.00     0.099 A 
ATOM     25  N   UNL d   1     -50.519  15.426  22.472  0.00  0.00    -0.242 NA
ATOM     26  C   UNL d   1     -50.895  15.536  23.197  0.00  0.00     0.099 A 
ATOM     27  C   UNL d   1     -51.064  14.887  23.683  0.00  0.00     0.021 A 
ATOM     28  C   UNL d   1     -50.856  14.132  23.439  0.00  0.00     0.003 A 
ENDBRANCH  22  23
ENDBRANCH   1  22
TORSDOF 5
ENDMDL
MODEL 2
REMARK VINA RESULT:      -4.9      8.271      9.687
REMARK  5 active torsions:
REMARK  status: ('A' for Active; 'I' for Inactive)
REMARK    1  A    between atoms: O_8  and  S_1 
REMARK    2  A    between atoms: C_9  and  S_1 
REMARK    3  A    between atoms: C_7  and  C_2 
REMARK    4  A    between atoms: C_20  and  C_7 
REMARK    5  A    between atoms: C_14  and  O_8 
ROOT
ATOM      1  C   UNL d   1     -39.969  15.636  17.975  0.00  0.00     0.139 A 
ATOM      2  C   UNL d   1     -40.576  15.680  19.162  0.00  0.00     0.064 A 
ATOM      3  C   UNL d   1     -40.703  15.609  18.350  0.00  0.00     0.220 A 
ATOM      4  C   UNL d   1     -39.761  15.751  19.289  0.00  0.00     0.105 A 
ATOM      5  O   UNL d   1     -39.388  15.723  18.555  0.00  0.00    -0.304 OA
ATOM      6  C   UNL d   1     -39.470  15.831  20.063  0.00  0.00     0.050 A 
ATOM      7  C   UNL d   1     -41.100  15.690  19.809  0.00  0.00     0.007 A 
ATOM      8  C   UNL d   1     -39.988  15.841  20.701  0.00  0.00     0.116 A 
ATOM      9  O   UNL d   1     -41.435  15.527  17.981  0.00  0.00    -0.284 OA
ATOM     10  C   UNL d   1     -40.804  15.770  20.574  0.00  0.00     0.026 A 
ENDROOT
BRANCH   8  11
ATOM     11  O   UNL d   1     -39.701  15.920  21.464  0.00  0.00    -0.227 OA
BRANCH  11  12
ATOM     12  S   UNL d   1     -39.382  15.280  21.859  0.00  0.00     0.304 S 
ATOM     13  O   UNL d   1     -38.627  15.522  21.650  0.00  0.00    -0.193 OA
ATOM     14  O   UNL d   1     -40.135  15.037  22.068  0.00  0.00    -0.193 OA
BRANCH  12  15
ATOM     15  C   UNL d   1     -39.060  14.634  22.258  0.00  0.00     0.111 A 
ATOM     16  C   UNL d   1     -38.264  14.634  22.470  0.00  0.00     0.013 A 
ATOM     17  C   UNL d   1     -37.940  13.985  22.871  0.00  0.00     0.001 A 
ATOM     18  C   UNL d   1     -38.419  13.342  23.054  0.00  0.00     0.000 A 
ATOM     19  C   UNL d   1     -39.219  13.339  22.842  0.00  0.00     0.001 A 
ATOM     20  C   UNL d   1     -38.099  12.696  23.452  0.00  0.00     0.000 C 
ATOM     21  C   UNL d   1     -39.536  13.983  22.446  0.00  0.00     0.013 A 
ENDBRANCH  12  15
ENDBRANCH  11  12
ENDBRANCH   8  11
BRANCH   1  22
ATOM     22  C   UNL d   1     -39.837  15.584  17.160  0.00  0.00     0.029 C 
BRANCH  22  23
ATOM     23  C   UNL d   1     -39.315  15.025  16.867  0.00  0.00     0.021 A 
ATOM     24  C   UNL d   1     -38.500  15.159  16.917  0.00  0.00     0.099 A 
ATOM     25  N   UNL d   1     -37.968  14.600  16.625  0.00  0.00    -0.242 NA
ATOM     26  C   UNL d   1     -38.256  13.907  16.283  0.00  0.00     0.099 A 
ATOM     27  C   UNL d   1     -39.071  13.773  16.233  0.00  0.00     0.021 A 
ATOM     28  C   UNL d   1     -39.593  14.333  16.526  0.00  0.00     0.003 A 
ENDBRANCH  22  23
ENDBRANCH   1  22
TORSDOF 5
ENDMDL
MODEL 3
REMARK VINA RESULT:      -4.8      2.199      5.608
REMARK  5 active torsions:
REMARK  status: ('A' for Active; 'I' for Inactive)
REMARK    1  A    between atoms: O_8  and  S_1 
REMARK    2  A    between atoms: C_9  and  S_1 
REMARK    3  A    between atoms: C_7  and  C_2 
REMARK    4  A    between atoms: C_20  and  C_7 
REMARK    5  A    between atoms: C_14  and  O_8 
ROOT
ATOM      1  C   UNL d   1     -44.530  12.494  22.091  0.00  0.00     0.139 A 
ATOM      2  C   UNL d   1     -45.586  12.680  22.883  0.00  0.00     0.064 A 
ATOM      3  C   UNL d   1     -44.959  12.171  22.717  0.00  0.00     0.220 A 
ATOM      4  C   UNL d   1     -45.545  13.319  22.358  0.00  0.00     0.105 A 
ATOM      5  O   UNL d   1     -44.891  13.202  21.870  0.00  0.00    -0.304 OA
ATOM      6  C   UNL d   1     -46.114  13.923  22.399  0.00  0.00     0.050 A 
ATOM      7  C   UNL d   1     -46.197  12.645  23.449  0.00  0.00     0.007 A 
ATOM      8  C   UNL d   1     -46.715  13.887  22.958  0.00  0.00     0.116 A 
ATOM      9  O   UNL d   1     -44.792  11.466  23.108  0.00  0.00    -0.284 OA
ATOM     10  C   UNL d   1     -46.757  13.248  23.483  0.00  0.00     0.026 A 
ENDROOT
BRANCH   8  11
ATOM     11  O   UNL d   1     -47.276  14.484  22.998  0.00  0.00    -0.227 OA
BRANCH  11  12
ATOM     12  S   UNL d   1     -48.028  14.371  22.700  0.00  0.00     0.304 S 
ATOM     13  O   UNL d   1     -48.244  13.974  23.385  0.00  0.00    -0.193 OA
ATOM     14  O   UNL d   1     -47.814  14.767  22.017  0.00  0.00    -0.193 OA
BRANCH  12  15
ATOM     15  C   UNL d   1     -48.787  14.257  22.400  0.00  0.00     0.111 A 
ATOM     16  C   UNL d   1     -48.905  13.765  21.749  0.00  0.00     0.013 A 
ATOM     17  C   UNL d   1     -49.668  13.650  21.446  0.00  0.00     0.001 A 
ATOM     18  C   UNL d   1     -50.305  14.030  21.800  0.00  0.00     0.000 A 
ATOM     19  C   UNL d   1     -50.191  14.525  22.453  0.00  0.00     0.001 A 
ATOM     20  C   UNL d   1     -51.063  13.917  21.500  0.00  0.00     0.000 C 
ATOM     21  C   UNL d   1     -49.435  14.636  22.750  0.00  0.00     0.013 A 
ENDBRANCH  12  15
ENDBRANCH  11  12
ENDBRANCH   8  11
BRANCH   1  22
ATOM     22  C   UNL d   1     -43.853  12.166  21.744  0.00  0.00     0.029 C 
BRANCH  22  23
ATOM     23  C   UNL d   1     -43.226  12.650  21.540  0.00  0.00     0.021 A 
ATOM     24  C   UNL d   1     -42.601  12.760  22.072  0.00  0.00     0.099 A 
ATOM     25  N   UNL d   1     -41.965  13.246  21.874  0.00  0.00    -0.242 NA
ATOM     26  C   UNL d   1     -41.957  13.622  21.140  0.00  0.00     0.099 A 
ATOM     27  C   UNL d   1     -42.582  13.513  20.608  0.00  0.00     0.021 A 
ATOM     28  C   UNL d   1     -43.210  13.028  20.813  0.00  0.00     0.003 A 
ENDBRANCH  22  23
ENDBRANCH   1  22
TORSDOF 5
ENDMDL
