MODEL 1
REMARK VINA RESULT:      67.0      0.000      0.000
REMARK  4 active torsions:
REMARK  status: ('A' for Active; 'I' for Inactive)
REMARK    1  A    between atoms: C_10  and  C_4 
REMARK       I    between atoms: N_11  and  C_10 
REMARK    2  A    between atoms: C_12  and  C_19 
REMARK    3  A    between atoms: O_26  and  C_12 
REMARK    4  A    between atoms: C_27  and  O_26 
ROOT
ATOM      1  C   UNL d   1     -51.318  24.374  33.518  0.00  0.00     0.154 A 
ATOM      2  C   UNL d   1     -51.573  25.153  33.448  0.00  0.00     0.093 A 
ATOM      3  N   UNL d   1     -51.874  23.754  33.519  0.00  0.00    -0.211 NA
ATOM      4  C   UNL d   1     -50.241  25.162  33.544  0.00  0.00     0.122 A 
ATOM      5  N   UNL d   1     -50.498  24.379  33.577  0.00  0.00    -0.285 N 
ATOM      6  C   UNL d   1     -52.381  25.323  33.378  0.00  0.00     0.269 A 
ATOM      7  N   UNL d   1     -52.933  24.714  33.379  0.00  0.00    -0.259 N 
ATOM      8  C   UNL d   1     -52.681  23.920  33.449  0.00  0.00     0.140 A 
ATOM      9  C   UNL d   1     -50.911  25.637  33.464  0.00  0.00     0.030 A 
ATOM     10  C   UNL d   1     -53.738  24.880  33.309  0.00  0.00     0.084 A 
ATOM     11  O   UNL d   1     -52.634  26.108  33.308  0.00  0.00    -0.266 OA
ATOM     12  C   UNL d   1     -53.224  23.313  33.450  0.00  0.00     0.064 A 
ATOM     13  C   UNL d   1     -54.283  24.265  33.311  0.00  0.00     0.018 A 
ATOM     14  C   UNL d   1     -54.024  23.474  33.382  0.00  0.00    -0.008 A 
ATOM     15  C   UNL d   1     -50.015  23.710  33.656  0.00  0.00     0.101 C 
ENDROOT
BRANCH   4  16
ATOM     16  C   UNL d   1     -49.456  25.423  33.583  0.00  0.00     0.281 C 
ATOM     17  N   UNL d   1     -49.288  26.167  33.894  0.00  0.00    -0.271 N 
ATOM     18  C   UNL d   1     -49.895  26.653  34.165  0.00  0.00     0.083 A 
ATOM     19  C   UNL d   1     -48.503  26.428  33.933  0.00  0.00     0.083 A 
ATOM     20  C   UNL d   1     -49.722  27.394  34.473  0.00  0.00     0.025 A 
ATOM     21  C   UNL d   1     -48.937  27.656  34.513  0.00  0.00     0.067 A 
ATOM     22  C   UNL d   1     -48.331  27.174  34.244  0.00  0.00     0.025 A 
ATOM     23  O   UNL d   1     -48.850  24.937  33.312  0.00  0.00    -0.265 OA
BRANCH  21  24
ATOM     24  C   UNL d   1     -48.764  28.401  34.823  0.00  0.00     0.300 C 
ATOM     25  O   UNL d   1     -49.336  28.803  35.267  0.00  0.00    -0.259 OA
BRANCH  24  26
ATOM     26  O   UNL d   1     -48.026  28.742  34.692  0.00  0.00    -0.271 OA
BRANCH  26  27
ATOM     27  C   UNL d   1     -47.804  29.406  35.122  0.00  0.00     0.126 C 
ATOM     28  C   UNL d   1     -47.220  29.338  35.705  0.00  0.00     0.029 C 
ENDBRANCH  26  27
ENDBRANCH  24  26
ENDBRANCH  21  24
ENDBRANCH   4  16
TORSDOF 4
ENDMDL
