MODEL 1
REMARK VINA RESULT:      47.6      0.000      0.000
REMARK  3 active torsions:
REMARK  status: ('A' for Active; 'I' for Inactive)
REMARK    1  A    between atoms: C_3  and  C_1 
REMARK    2  A    between atoms: C_5  and  C_3 
REMARK    3  A    between atoms: C_11  and  C_5 
ROOT
ATOM      1  C   UNL d   1     -51.228  26.085  33.493  0.00  0.00     0.109 C 
ATOM      2  C   UNL d   1     -52.015  26.303  33.418  0.00  0.00     0.105 C 
ATOM      3  N   UNL d   1     -52.808  26.517  33.341  0.00  0.00    -0.191 NA
ENDROOT
BRANCH   1   4
ATOM      4  C   UNL d   1     -50.673  26.640  33.753  0.00  0.00     0.192 A 
ATOM      5  N   UNL d   1     -50.548  27.404  33.435  0.00  0.00    -0.220 NA
ATOM      6  C   UNL d   1     -49.938  27.768  33.865  0.00  0.00     0.106 A 
ATOM      7  C   UNL d   1     -49.587  28.512  33.798  0.00  0.00     0.021 A 
ATOM      8  C   UNL d   1     -49.681  27.237  34.450  0.00  0.00     0.119 A 
ATOM      9  C   UNL d   1     -48.980  28.727  34.313  0.00  0.00     0.002 A 
ATOM     10  C   UNL d   1     -48.722  28.196  34.898  0.00  0.00     0.002 A 
ATOM     11  C   UNL d   1     -49.073  27.453  34.965  0.00  0.00     0.026 A 
ATOM     12  O   UNL d   1     -50.130  26.542  34.384  0.00  0.00    -0.287 OA
ENDBRANCH   1   4
BRANCH   1  13
ATOM     13  C   UNL d   1     -50.990  25.317  33.311  0.00  0.00     0.014 C 
BRANCH  13  14
ATOM     14  C   UNL d   1     -51.484  24.677  33.488  0.00  0.00     0.004 A 
ATOM     15  C   UNL d   1     -52.299  24.756  33.392  0.00  0.00     0.021 A 
ATOM     16  C   UNL d   1     -52.793  24.117  33.568  0.00  0.00     0.099 A 
ATOM     17  N   UNL d   1     -52.470  23.407  33.837  0.00  0.00    -0.242 NA
ATOM     18  C   UNL d   1     -51.643  23.329  33.933  0.00  0.00     0.099 A 
ATOM     19  C   UNL d   1     -51.156  23.974  33.755  0.00  0.00     0.021 A 
ENDBRANCH  13  14
ENDBRANCH   1  13
TORSDOF 3
ENDMDL
