MODEL 1
REMARK VINA RESULT:      -2.7      0.000      0.000
REMARK  2 active torsions:
REMARK  status: ('A' for Active; 'I' for Inactive)
REMARK    1  A    between atoms: N_6  and  C_1 
REMARK    2  A    between atoms: C_7  and  C_2 
REMARK       I    between atoms: C_8  and  N_6 
ROOT
ATOM      1  C   UNL d   1      33.061  20.997 -22.099  0.00  0.00     0.119 A 
ATOM      2  C   UNL d   1      32.845  21.533 -21.542  0.00  0.00     0.084 A 
ATOM      3  S   UNL d   1      33.241  21.407 -22.804  0.00  0.00    -0.068 SA
ATOM      4  C   UNL d   1      32.883  22.272 -21.871  0.00  0.00     0.013 A 
ATOM      5  C   UNL d   1      33.130  22.193 -22.660  0.00  0.00     0.031 A 
ATOM      6  C   UNL d   1      32.724  23.019 -21.560  0.00  0.00     0.001 A 
ATOM      7  C   UNL d   1      33.212  22.873 -23.120  0.00  0.00     0.006 A 
ATOM      8  C   UNL d   1      32.812  23.694 -22.036  0.00  0.00     0.000 A 
ATOM      9  C   UNL d   1      33.051  23.605 -22.797  0.00  0.00     0.001 A 
ENDROOT
BRANCH   1  10
ATOM     10  N   UNL d   1      33.096  20.153 -21.977  0.00  0.00    -0.201 NA
ATOM     11  C   UNL d   1      33.183  19.630 -22.605  0.00  0.00     0.280 C 
ATOM     12  O   UNL d   1      33.241  19.918 -23.392  0.00  0.00    -0.265 OA
ATOM     13  C   UNL d   1      33.215  18.816 -22.474  0.00  0.00     0.068 C 
ENDBRANCH   1  10
BRANCH   2  14
ATOM     14  C   UNL d   1      32.622  21.333 -20.753  0.00  0.00     0.299 C 
ATOM     15  O   UNL d   1      31.810  21.305 -20.577  0.00  0.00    -0.264 OA
ATOM     16  N   UNL d   1      33.178  21.171 -20.173  0.00  0.00    -0.102 N 
ENDBRANCH   2  14
TORSDOF 2
ENDMDL
MODEL 2
REMARK VINA RESULT:      -2.4      4.594      5.924
REMARK  2 active torsions:
REMARK  status: ('A' for Active; 'I' for Inactive)
REMARK    1  A    between atoms: N_6  and  C_1 
REMARK    2  A    between atoms: C_7  and  C_2 
REMARK       I    between atoms: C_8  and  N_6 
ROOT
ATOM      1  C   UNL d   1      31.407  17.318 -24.432  0.00  0.00     0.119 A 
ATOM      2  C   UNL d   1      31.146  16.646 -24.079  0.00  0.00     0.084 A 
ATOM      3  S   UNL d   1      30.745  17.740 -24.717  0.00  0.00    -0.068 SA
ATOM      4  C   UNL d   1      30.338  16.628 -24.130  0.00  0.00     0.013 A 
ATOM      5  C   UNL d   1      30.088  17.313 -24.529  0.00  0.00     0.031 A 
ATOM      6  C   UNL d   1      29.785  16.077 -23.867  0.00  0.00     0.001 A 
ATOM      7  C   UNL d   1      29.281  17.426 -24.654  0.00  0.00     0.006 A 
ATOM      8  C   UNL d   1      28.975  16.206 -24.000  0.00  0.00     0.000 A 
ATOM      9  C   UNL d   1      28.745  16.870 -24.386  0.00  0.00     0.001 A 
ENDROOT
BRANCH   1  10
ATOM     10  N   UNL d   1      32.226  17.549 -24.498  0.00  0.00    -0.201 NA
ATOM     11  C   UNL d   1      32.445  18.272 -24.820  0.00  0.00     0.280 C 
ATOM     12  O   UNL d   1      31.861  18.808 -25.096  0.00  0.00    -0.265 OA
ATOM     13  C   UNL d   1      33.241  18.484 -24.879  0.00  0.00     0.068 C 
ENDBRANCH   1  10
BRANCH   2  14
ATOM     14  C   UNL d   1      31.651  16.072 -23.722  0.00  0.00     0.299 C 
ATOM     15  O   UNL d   1      31.792  16.135 -22.905  0.00  0.00    -0.264 OA
ATOM     16  N   UNL d   1      31.995  15.467 -24.156  0.00  0.00    -0.102 N 
ENDBRANCH   2  14
TORSDOF 2
ENDMDL
MODEL 3
REMARK VINA RESULT:      -2.4      4.587      5.874
REMARK  2 active torsions:
REMARK  status: ('A' for Active; 'I' for Inactive)
REMARK    1  A    between atoms: N_6  and  C_1 
REMARK    2  A    between atoms: C_7  and  C_2 
REMARK       I    between atoms: C_8  and  N_6 
ROOT
ATOM      1  C   UNL d   1      30.932  17.135 -24.328  0.00  0.00     0.119 A 
ATOM      2  C   UNL d   1      31.667  17.423 -24.189  0.00  0.00     0.084 A 
ATOM      3  S   UNL d   1      30.916  16.332 -24.101  0.00  0.00    -0.068 SA
ATOM      4  C   UNL d   1      32.121  16.828 -23.879  0.00  0.00     0.013 A 
ATOM      5  C   UNL d   1      31.650  16.145 -23.825  0.00  0.00     0.031 A 
ATOM      6  C   UNL d   1      32.908  16.809 -23.636  0.00  0.00     0.001 A 
ATOM      7  C   UNL d   1      31.987  15.455 -23.523  0.00  0.00     0.006 A 
ATOM      8  C   UNL d   1      33.232  16.106 -23.335  0.00  0.00     0.000 A 
ATOM      9  C   UNL d   1      32.768  15.453 -23.286  0.00  0.00     0.001 A 
ENDROOT
BRANCH   1  10
ATOM     10  N   UNL d   1      30.284  17.585 -24.654  0.00  0.00    -0.201 NA
ATOM     11  C   UNL d   1      29.506  17.326 -24.595  0.00  0.00     0.280 C 
ATOM     12  O   UNL d   1      29.329  16.602 -24.209  0.00  0.00    -0.265 OA
ATOM     13  C   UNL d   1      28.889  17.770 -24.915  0.00  0.00     0.068 C 
ENDBRANCH   1  10
BRANCH   2  14
ATOM     14  C   UNL d   1      31.903  18.218 -24.347  0.00  0.00     0.299 C 
ATOM     15  O   UNL d   1      31.887  18.759 -23.716  0.00  0.00    -0.264 OA
ATOM     16  N   UNL d   1      32.141  18.459 -25.094  0.00  0.00    -0.102 N 
ENDBRANCH   2  14
TORSDOF 2
ENDMDL
MODEL 4
REMARK VINA RESULT:      -2.3      4.790      5.490
REMARK  2 active torsions:
REMARK  status: ('A' for Active; 'I' for Inactive)
REMARK    1  A    between atoms: N_6  and  C_1 
REMARK    2  A    between atoms: C_7  and  C_2 
REMARK       I    between atoms: C_8  and  N_6 
ROOT
ATOM      1  C   UNL d   1      30.799  17.033 -24.353  0.00  0.00     0.119 A 
ATOM      2  C   UNL d   1      31.544  16.846 -24.120  0.00  0.00     0.084 A 
ATOM      3  S   UNL d   1      30.826  17.756 -24.769  0.00  0.00    -0.068 SA
ATOM      4  C   UNL d   1      32.044  17.430 -24.374  0.00  0.00     0.013 A 
ATOM      5  C   UNL d   1      31.595  17.999 -24.780  0.00  0.00     0.031 A 
ATOM      6  C   UNL d   1      32.859  17.526 -24.293  0.00  0.00     0.001 A 
ATOM      7  C   UNL d   1      31.980  18.656 -25.097  0.00  0.00     0.006 A 
ATOM      8  C   UNL d   1      33.232  18.193 -24.617  0.00  0.00     0.000 A 
ATOM      9  C   UNL d   1      32.788  18.736 -25.008  0.00  0.00     0.001 A 
ENDROOT
BRANCH   1  10
ATOM     10  N   UNL d   1      30.105  16.561 -24.196  0.00  0.00    -0.201 NA
ATOM     11  C   UNL d   1      29.349  16.839 -24.360  0.00  0.00     0.280 C 
ATOM     12  O   UNL d   1      29.240  17.603 -24.690  0.00  0.00    -0.265 OA
ATOM     13  C   UNL d   1      28.686  16.373 -24.203  0.00  0.00     0.068 C 
ENDBRANCH   1  10
BRANCH   2  14
ATOM     14  C   UNL d   1      31.744  16.153 -23.683  0.00  0.00     0.299 C 
ATOM     15  O   UNL d   1      31.699  16.191 -22.854  0.00  0.00    -0.264 OA
ATOM     16  N   UNL d   1      31.976  15.459 -24.053  0.00  0.00    -0.102 N 
ENDBRANCH   2  14
TORSDOF 2
ENDMDL
MODEL 5
REMARK VINA RESULT:      -2.1      2.602      5.212
REMARK  2 active torsions:
REMARK  status: ('A' for Active; 'I' for Inactive)
REMARK    1  A    between atoms: N_6  and  C_1 
REMARK    2  A    between atoms: C_7  and  C_2 
REMARK       I    between atoms: C_8  and  N_6 
ROOT
ATOM      1  C   UNL d   1      32.738  18.135 -23.305  0.00  0.00     0.119 A 
ATOM      2  C   UNL d   1      32.353  17.770 -23.908  0.00  0.00     0.084 A 
ATOM      3  S   UNL d   1      33.146  17.555 -22.864  0.00  0.00    -0.068 SA
ATOM      4  C   UNL d   1      32.503  16.976 -23.863  0.00  0.00     0.013 A 
ATOM      5  C   UNL d   1      32.999  16.841 -23.210  0.00  0.00     0.031 A 
ATOM      6  C   UNL d   1      32.255  16.345 -24.332  0.00  0.00     0.001 A 
ATOM      7  C   UNL d   1      33.235  16.069 -23.044  0.00  0.00     0.006 A 
ATOM      8  C   UNL d   1      32.502  15.572 -24.151  0.00  0.00     0.000 A 
ATOM      9  C   UNL d   1      32.981  15.455 -23.518  0.00  0.00     0.001 A 
ENDROOT
BRANCH   1  10
ATOM     10  N   UNL d   1      32.724  18.974 -23.154  0.00  0.00    -0.201 NA
ATOM     11  C   UNL d   1      32.968  19.286 -22.433  0.00  0.00     0.280 C 
ATOM     12  O   UNL d   1      33.239  18.779 -21.821  0.00  0.00    -0.265 OA
ATOM     13  C   UNL d   1      32.950  20.100 -22.298  0.00  0.00     0.068 C 
ENDBRANCH   1  10
BRANCH   2  14
ATOM     14  C   UNL d   1      31.878  18.172 -24.478  0.00  0.00     0.299 C 
ATOM     15  O   UNL d   1      32.267  18.568 -25.096  0.00  0.00    -0.264 OA
ATOM     16  N   UNL d   1      31.059  18.177 -24.433  0.00  0.00    -0.102 N 
ENDBRANCH   2  14
TORSDOF 2
ENDMDL
MODEL 6
REMARK VINA RESULT:      -1.5      5.766      6.441
REMARK  2 active torsions:
REMARK  status: ('A' for Active; 'I' for Inactive)
REMARK    1  A    between atoms: N_6  and  C_1 
REMARK    2  A    between atoms: C_7  and  C_2 
REMARK       I    between atoms: C_8  and  N_6 
ROOT
ATOM      1  C   UNL d   1      29.941  17.005 -24.409  0.00  0.00     0.119 A 
ATOM      2  C   UNL d   1      30.033  16.342 -23.967  0.00  0.00     0.084 A 
ATOM      3  S   UNL d   1      30.696  17.270 -24.649  0.00  0.00    -0.068 SA
ATOM      4  C   UNL d   1      30.824  16.175 -23.919  0.00  0.00     0.013 A 
ATOM      5  C   UNL d   1      31.238  16.756 -24.345  0.00  0.00     0.031 A 
ATOM      6  C   UNL d   1      31.233  15.568 -23.541  0.00  0.00     0.001 A 
ATOM      7  C   UNL d   1      32.061  16.710 -24.381  0.00  0.00     0.006 A 
ATOM      8  C   UNL d   1      32.062  15.536 -23.586  0.00  0.00     0.000 A 
ATOM      9  C   UNL d   1      32.452  16.102 -24.001  0.00  0.00     0.001 A 
ENDROOT
BRANCH   1  10
ATOM     10  N   UNL d   1      29.191  17.369 -24.594  0.00  0.00    -0.201 NA
ATOM     11  C   UNL d   1      29.146  18.123 -24.919  0.00  0.00     0.280 C 
ATOM     12  O   UNL d   1      29.846  18.558 -25.079  0.00  0.00    -0.265 OA
ATOM     13  C   UNL d   1      28.415  18.463 -25.093  0.00  0.00     0.068 C 
ENDBRANCH   1  10
BRANCH   2  14
ATOM     14  C   UNL d   1      29.395  15.909 -23.623  0.00  0.00     0.299 C 
ATOM     15  O   UNL d   1      28.920  15.453 -24.129  0.00  0.00    -0.264 OA
ATOM     16  N   UNL d   1      29.241  15.931 -22.818  0.00  0.00    -0.102 N 
ENDBRANCH   2  14
TORSDOF 2
ENDMDL
MODEL 7
REMARK VINA RESULT:      -1.4      2.974      3.948
REMARK  2 active torsions:
REMARK  status: ('A' for Active; 'I' for Inactive)
REMARK    1  A    between atoms: N_6  and  C_1 
REMARK    2  A    between atoms: C_7  and  C_2 
REMARK       I    between atoms: C_8  and  N_6 
ROOT
ATOM      1  C   UNL d   1      32.638  17.778 -23.353  0.00  0.00     0.119 A 
ATOM      2  C   UNL d   1      32.638  18.474 -23.753  0.00  0.00     0.084 A 
ATOM      3  S   UNL d   1      32.838  17.932 -22.557  0.00  0.00    -0.068 SA
ATOM      4  C   UNL d   1      32.832  19.066 -23.236  0.00  0.00     0.013 A 
ATOM      5  C   UNL d   1      32.957  18.726 -22.488  0.00  0.00     0.031 A 
ATOM      6  C   UNL d   1      32.914  19.879 -23.340  0.00  0.00     0.001 A 
ATOM      7  C   UNL d   1      33.164  19.218 -21.859  0.00  0.00     0.006 A 
ATOM      8  C   UNL d   1      33.122  20.361 -22.696  0.00  0.00     0.000 A 
ATOM      9  C   UNL d   1      33.241  20.022 -21.979  0.00  0.00     0.001 A 
ENDROOT
BRANCH   1  10
ATOM     10  N   UNL d   1      32.462  17.017 -23.697  0.00  0.00    -0.201 NA
ATOM     11  C   UNL d   1      32.755  16.320 -23.374  0.00  0.00     0.280 C 
ATOM     12  O   UNL d   1      33.241  16.341 -22.690  0.00  0.00    -0.265 OA
ATOM     13  C   UNL d   1      32.577  15.590 -23.716  0.00  0.00     0.068 C 
ENDBRANCH   1  10
BRANCH   2  14
ATOM     14  C   UNL d   1      32.462  18.548 -24.575  0.00  0.00     0.299 C 
ATOM     15  O   UNL d   1      33.095  18.686 -25.096  0.00  0.00    -0.264 OA
ATOM     16  N   UNL d   1      31.696  18.488 -24.861  0.00  0.00    -0.102 N 
ENDBRANCH   2  14
TORSDOF 2
ENDMDL
MODEL 8
REMARK VINA RESULT:      -1.2      5.435      5.938
REMARK  2 active torsions:
REMARK  status: ('A' for Active; 'I' for Inactive)
REMARK    1  A    between atoms: N_6  and  C_1 
REMARK    2  A    between atoms: C_7  and  C_2 
REMARK       I    between atoms: C_8  and  N_6 
ROOT
ATOM      1  C   UNL d   1      30.708  16.573 -23.889  0.00  0.00     0.119 A 
ATOM      2  C   UNL d   1      29.907  16.557 -23.846  0.00  0.00     0.084 A 
ATOM      3  S   UNL d   1      30.935  17.247 -24.327  0.00  0.00    -0.068 SA
ATOM      4  C   UNL d   1      29.617  17.201 -24.242  0.00  0.00     0.013 A 
ATOM      5  C   UNL d   1      30.260  17.632 -24.543  0.00  0.00     0.031 A 
ATOM      6  C   UNL d   1      28.846  17.461 -24.375  0.00  0.00     0.001 A 
ATOM      7  C   UNL d   1      30.110  18.320 -24.974  0.00  0.00     0.006 A 
ATOM      8  C   UNL d   1      28.711  18.155 -24.811  0.00  0.00     0.000 A 
ATOM      9  C   UNL d   1      29.340  18.563 -25.096  0.00  0.00     0.001 A 
ENDROOT
BRANCH   1  10
ATOM     10  N   UNL d   1      31.227  15.992 -23.542  0.00  0.00    -0.201 NA
ATOM     11  C   UNL d   1      32.042  16.022 -23.652  0.00  0.00     0.280 C 
ATOM     12  O   UNL d   1      32.385  16.633 -24.114  0.00  0.00    -0.265 OA
ATOM     13  C   UNL d   1      32.534  15.454 -23.310  0.00  0.00     0.068 C 
ENDBRANCH   1  10
BRANCH   2  14
ATOM     14  C   UNL d   1      29.466  15.959 -23.447  0.00  0.00     0.299 C 
ATOM     15  O   UNL d   1      28.995  15.453 -23.909  0.00  0.00    -0.264 OA
ATOM     16  N   UNL d   1      29.493  15.870 -22.632  0.00  0.00    -0.102 N 
ENDBRANCH   2  14
TORSDOF 2
ENDMDL
