MODEL 1
REMARK VINA RESULT:      10.5      0.000      0.000
REMARK  4 active torsions:
REMARK  status: ('A' for Active; 'I' for Inactive)
REMARK    1  A    between atoms: C_6  and  C_1 
REMARK    2  A    between atoms: O_15  and  C_6 
REMARK    3  A    between atoms: C_7  and  C_8 
REMARK    4  A    between atoms: C_16  and  O_15 
ROOT
ATOM      1  C   UNL d   1      13.456  12.486  -3.292  0.00  0.00     0.145 A 
ATOM      2  N   UNL d   1      13.370  11.901  -2.725  0.00  0.00    -0.240 NA
ATOM      3  C   UNL d   1      13.920  13.090  -2.977  0.00  0.00     0.026 A 
ATOM      4  C   UNL d   1      14.123  12.878  -2.207  0.00  0.00     0.019 A 
ATOM      5  C   UNL d   1      13.782  12.136  -2.045  0.00  0.00     0.082 A 
ATOM      6  C   UNL d   1      14.685  12.900  -0.886  0.00  0.00     0.065 A 
ATOM      7  C   UNL d   1      14.576  13.261  -1.625  0.00  0.00     0.008 A 
ATOM      8  C   UNL d   1      13.890  11.780  -1.313  0.00  0.00     0.019 A 
ATOM      9  C   UNL d   1      14.345  12.162  -0.727  0.00  0.00     0.008 A 
ENDROOT
BRANCH   1  10
ATOM     10  C   UNL d   1      13.136  12.478  -4.052  0.00  0.00     0.318 C 
ATOM     11  O   UNL d   1      12.782  13.153  -4.362  0.00  0.00    -0.257 OA
BRANCH  10  12
ATOM     12  O   UNL d   1      13.170  11.786  -4.507  0.00  0.00    -0.270 OA
BRANCH  12  13
ATOM     13  C   UNL d   1      12.953  11.807  -5.299  0.00  0.00     0.126 C 
ATOM     14  C   UNL d   1      13.525  11.780  -5.892  0.00  0.00     0.029 C 
ENDBRANCH  12  13
ENDBRANCH  10  12
ENDBRANCH   1  10
BRANCH   6  15
ATOM     15  C   UNL d   1      15.133  13.277  -0.309  0.00  0.00     0.211 C 
ATOM     16  O   UNL d   1      14.894  14.011  -0.018  0.00  0.00    -0.644 OA
ATOM     17  O   UNL d   1      15.821  12.924  -0.021  0.00  0.00    -0.644 OA
ENDBRANCH   6  15
TORSDOF 4
ENDMDL
