MODEL 1
REMARK VINA RESULT:      -8.1      0.000      0.000
REMARK  6 active torsions:
REMARK  status: ('A' for Active; 'I' for Inactive)
REMARK    1  A    between atoms: C_5  and  C_1 
REMARK    2  A    between atoms: O_8  and  C_5 
REMARK    3  A    between atoms: C_9  and  O_8 
REMARK    4  A    between atoms: C_14  and  C_10 
REMARK    5  A    between atoms: O_20  and  C_11 
REMARK    6  A    between atoms: O_21  and  C_16 
ROOT
ATOM      1  C   UNL d   1     -47.283  13.540  22.933  0.00  0.00     0.305 C 
ATOM      2  O   UNL d   1     -47.161  14.274  23.293  0.00  0.00    -0.259 OA
ENDROOT
BRANCH   1   3
ATOM      3  C   UNL d   1     -46.729  12.929  23.043  0.00  0.00     0.127 A 
ATOM      4  C   UNL d   1     -45.918  13.088  22.928  0.00  0.00     0.305 A 
ATOM      5  O   UNL d   1     -45.366  12.485  23.036  0.00  0.00    -0.271 OA
ATOM      6  O   UNL d   1     -45.673  13.840  22.709  0.00  0.00    -0.259 OA
ATOM      7  C   UNL d   1     -45.618  11.731  23.257  0.00  0.00     0.125 A 
ATOM      8  C   UNL d   1     -46.422  11.573  23.371  0.00  0.00     0.025 A 
ATOM      9  C   UNL d   1     -45.067  11.128  23.365  0.00  0.00     0.117 A 
ATOM     10  C   UNL d   1     -46.983  12.183  23.262  0.00  0.00     0.013 A 
ATOM     11  C   UNL d   1     -46.671  10.821  23.591  0.00  0.00     0.002 A 
ATOM     12  C   UNL d   1     -46.120  10.225  23.698  0.00  0.00     0.002 A 
ATOM     13  C   UNL d   1     -45.315  10.375  23.586  0.00  0.00     0.026 A 
BRANCH   9  14
ATOM     14  O   UNL d   1     -44.270  11.280  23.253  0.00  0.00    -0.326 OA
ATOM     15  C   UNL d   1     -43.710  10.679  23.364  0.00  0.00     0.181 C 
ENDBRANCH   9  14
ENDBRANCH   1   3
BRANCH   1  16
ATOM     16  O   UNL d   1     -47.951  13.415  22.466  0.00  0.00    -0.271 OA
BRANCH  16  17
ATOM     17  C   UNL d   1     -48.626  13.875  22.583  0.00  0.00     0.126 A 
ATOM     18  C   UNL d   1     -49.358  13.605  22.317  0.00  0.00     0.117 A 
ATOM     19  C   UNL d   1     -50.034  14.058  22.430  0.00  0.00     0.029 A 
ATOM     20  C   UNL d   1     -49.975  14.796  22.816  0.00  0.00     0.041 A 
ATOM     21  C   UNL d   1     -49.243  15.066  23.082  0.00  0.00     0.005 A 
ATOM     22  C   UNL d   1     -48.568  14.606  22.965  0.00  0.00     0.027 A 
BRANCH  18  23
ATOM     23  O   UNL d   1     -49.409  12.873  21.935  0.00  0.00    -0.326 OA
ATOM     24  C   UNL d   1     -50.147  12.537  21.775  0.00  0.00     0.181 C 
ENDBRANCH  18  23
BRANCH  20  25
ATOM     25  C   UNL d   1     -50.662  15.257  22.931  0.00  0.00     0.196 C 
ATOM     26  O   UNL d   1     -51.044  15.591  22.278  0.00  0.00    -0.287 OA
ATOM     27  C   UNL d   1     -50.955  15.378  23.698  0.00  0.00     0.045 C 
ENDBRANCH  20  25
ENDBRANCH  16  17
ENDBRANCH   1  16
TORSDOF 6
ENDMDL
MODEL 2
REMARK VINA RESULT:      -7.5      0.988      1.521
REMARK  6 active torsions:
REMARK  status: ('A' for Active; 'I' for Inactive)
REMARK    1  A    between atoms: C_5  and  C_1 
REMARK    2  A    between atoms: O_8  and  C_5 
REMARK    3  A    between atoms: C_9  and  O_8 
REMARK    4  A    between atoms: C_14  and  C_10 
REMARK    5  A    between atoms: O_20  and  C_11 
REMARK    6  A    between atoms: O_21  and  C_16 
ROOT
ATOM      1  C   UNL d   1     -47.071  13.484  22.833  0.00  0.00     0.305 C 
ATOM      2  O   UNL d   1     -47.124  14.118  23.361  0.00  0.00    -0.259 OA
ENDROOT
BRANCH   1   3
ATOM      3  C   UNL d   1     -46.346  13.086  22.736  0.00  0.00     0.127 A 
ATOM      4  C   UNL d   1     -46.202  12.391  23.175  0.00  0.00     0.305 A 
ATOM      5  O   UNL d   1     -45.485  11.994  23.081  0.00  0.00    -0.271 OA
ATOM      6  O   UNL d   1     -46.770  12.106  23.694  0.00  0.00    -0.259 OA
ATOM      7  C   UNL d   1     -44.918  12.285  22.558  0.00  0.00     0.125 A 
ATOM      8  C   UNL d   1     -45.061  12.974  22.123  0.00  0.00     0.025 A 
ATOM      9  C   UNL d   1     -44.201  11.888  22.464  0.00  0.00     0.117 A 
ATOM     10  C   UNL d   1     -45.787  13.379  22.216  0.00  0.00     0.013 A 
ATOM     11  C   UNL d   1     -44.494  13.263  21.601  0.00  0.00     0.002 A 
ATOM     12  C   UNL d   1     -43.784  12.865  21.512  0.00  0.00     0.002 A 
ATOM     13  C   UNL d   1     -43.634  12.177  21.943  0.00  0.00     0.026 A 
BRANCH   9  14
ATOM     14  O   UNL d   1     -44.056  11.206  22.893  0.00  0.00    -0.326 OA
ATOM     15  C   UNL d   1     -43.281  10.922  22.975  0.00  0.00     0.181 C 
ENDBRANCH   9  14
ENDBRANCH   1   3
BRANCH   1  16
ATOM     16  O   UNL d   1     -47.734  13.248  22.403  0.00  0.00    -0.271 OA
BRANCH  16  17
ATOM     17  C   UNL d   1     -48.424  13.699  22.431  0.00  0.00     0.126 A 
ATOM     18  C   UNL d   1     -49.146  13.359  22.223  0.00  0.00     0.117 A 
ATOM     19  C   UNL d   1     -49.836  13.803  22.249  0.00  0.00     0.029 A 
ATOM     20  C   UNL d   1     -49.804  14.602  22.486  0.00  0.00     0.041 A 
ATOM     21  C   UNL d   1     -49.081  14.942  22.694  0.00  0.00     0.005 A 
ATOM     22  C   UNL d   1     -48.391  14.491  22.666  0.00  0.00     0.027 A 
BRANCH  18  23
ATOM     23  O   UNL d   1     -49.171  12.566  21.989  0.00  0.00    -0.326 OA
ATOM     24  C   UNL d   1     -49.894  12.208  21.807  0.00  0.00     0.181 C 
ENDBRANCH  18  23
BRANCH  20  25
ATOM     25  C   UNL d   1     -50.505  15.055  22.512  0.00  0.00     0.196 C 
ATOM     26  O   UNL d   1     -50.906  15.229  21.810  0.00  0.00    -0.287 OA
ATOM     27  C   UNL d   1     -50.796  15.325  23.241  0.00  0.00     0.045 C 
ENDBRANCH  20  25
ENDBRANCH  16  17
ENDBRANCH   1  16
TORSDOF 6
ENDMDL
MODEL 3
REMARK VINA RESULT:      -6.7      1.273      5.088
REMARK  6 active torsions:
REMARK  status: ('A' for Active; 'I' for Inactive)
REMARK    1  A    between atoms: C_5  and  C_1 
REMARK    2  A    between atoms: O_8  and  C_5 
REMARK    3  A    between atoms: C_9  and  O_8 
REMARK    4  A    between atoms: C_14  and  C_10 
REMARK    5  A    between atoms: O_20  and  C_11 
REMARK    6  A    between atoms: O_21  and  C_16 
ROOT
ATOM      1  C   UNL d   1     -46.932  13.686  23.003  0.00  0.00     0.305 C 
ATOM      2  O   UNL d   1     -46.400  14.312  23.102  0.00  0.00    -0.259 OA
ENDROOT
BRANCH   1   3
ATOM      3  C   UNL d   1     -47.750  13.838  22.991  0.00  0.00     0.127 A 
ATOM      4  C   UNL d   1     -48.019  14.610  22.822  0.00  0.00     0.305 A 
ATOM      5  O   UNL d   1     -48.829  14.764  22.808  0.00  0.00    -0.271 OA
ATOM      6  O   UNL d   1     -47.480  15.210  22.670  0.00  0.00    -0.259 OA
ATOM      7  C   UNL d   1     -49.366  14.157  22.962  0.00  0.00     0.125 A 
ATOM      8  C   UNL d   1     -49.100  13.392  23.129  0.00  0.00     0.025 A 
ATOM      9  C   UNL d   1     -50.176  14.311  22.949  0.00  0.00     0.117 A 
ATOM     10  C   UNL d   1     -48.279  13.233  23.143  0.00  0.00     0.013 A 
ATOM     11  C   UNL d   1     -49.638  12.788  23.282  0.00  0.00     0.002 A 
ATOM     12  C   UNL d   1     -50.441  12.946  23.268  0.00  0.00     0.002 A 
ATOM     13  C   UNL d   1     -50.714  13.707  23.101  0.00  0.00     0.026 A 
BRANCH   9  14
ATOM     14  O   UNL d   1     -50.444  15.067  22.783  0.00  0.00    -0.326 OA
ATOM     15  C   UNL d   1     -51.060  15.398  23.227  0.00  0.00     0.181 C 
ENDBRANCH   9  14
ENDBRANCH   1   3
BRANCH   1  16
ATOM     16  O   UNL d   1     -46.652  12.915  22.918  0.00  0.00    -0.271 OA
BRANCH  16  17
ATOM     17  C   UNL d   1     -45.886  12.784  22.641  0.00  0.00     0.126 A 
ATOM     18  C   UNL d   1     -45.435  12.170  22.956  0.00  0.00     0.117 A 
ATOM     19  C   UNL d   1     -44.672  12.035  22.685  0.00  0.00     0.029 A 
ATOM     20  C   UNL d   1     -44.354  12.523  22.087  0.00  0.00     0.041 A 
ATOM     21  C   UNL d   1     -44.805  13.138  21.772  0.00  0.00     0.005 A 
ATOM     22  C   UNL d   1     -45.571  13.268  22.049  0.00  0.00     0.027 A 
BRANCH  18  23
ATOM     23  O   UNL d   1     -45.756  11.690  23.548  0.00  0.00    -0.326 OA
ATOM     24  C   UNL d   1     -45.522  10.900  23.615  0.00  0.00     0.181 C 
ENDBRANCH  18  23
BRANCH  20  25
ATOM     25  C   UNL d   1     -43.578  12.386  21.811  0.00  0.00     0.196 C 
ATOM     26  O   UNL d   1     -43.129  11.774  22.139  0.00  0.00    -0.287 OA
ATOM     27  C   UNL d   1     -43.262  12.864  21.211  0.00  0.00     0.045 C 
ENDBRANCH  20  25
ENDBRANCH  16  17
ENDBRANCH   1  16
TORSDOF 6
ENDMDL
MODEL 4
REMARK VINA RESULT:      -5.3      1.694      2.208
REMARK  6 active torsions:
REMARK  status: ('A' for Active; 'I' for Inactive)
REMARK    1  A    between atoms: C_5  and  C_1 
REMARK    2  A    between atoms: O_8  and  C_5 
REMARK    3  A    between atoms: C_9  and  O_8 
REMARK    4  A    between atoms: C_14  and  C_10 
REMARK    5  A    between atoms: O_20  and  C_11 
REMARK    6  A    between atoms: O_21  and  C_16 
ROOT
ATOM      1  C   UNL d   1     -46.801  12.940  22.908  0.00  0.00     0.305 C 
ATOM      2  O   UNL d   1     -46.971  13.180  23.681  0.00  0.00    -0.259 OA
ENDROOT
BRANCH   1   3
ATOM      3  C   UNL d   1     -46.010  12.858  22.666  0.00  0.00     0.127 A 
ATOM      4  C   UNL d   1     -45.648  13.477  22.238  0.00  0.00     0.305 A 
ATOM      5  O   UNL d   1     -44.863  13.399  21.997  0.00  0.00    -0.271 OA
ATOM      6  O   UNL d   1     -46.071  14.157  22.061  0.00  0.00    -0.259 OA
ATOM      7  C   UNL d   1     -44.443  12.713  22.178  0.00  0.00     0.125 A 
ATOM      8  C   UNL d   1     -44.801  12.099  22.601  0.00  0.00     0.025 A 
ATOM      9  C   UNL d   1     -43.658  12.635  21.936  0.00  0.00     0.117 A 
ATOM     10  C   UNL d   1     -45.596  12.176  22.847  0.00  0.00     0.013 A 
ATOM     11  C   UNL d   1     -44.379  11.416  22.780  0.00  0.00     0.002 A 
ATOM     12  C   UNL d   1     -43.601  11.343  22.538  0.00  0.00     0.002 A 
ATOM     13  C   UNL d   1     -43.236  11.952  22.115  0.00  0.00     0.026 A 
BRANCH   9  14
ATOM     14  O   UNL d   1     -43.300  13.241  21.517  0.00  0.00    -0.326 OA
ATOM     15  C   UNL d   1     -42.497  13.193  21.318  0.00  0.00     0.181 C 
ENDBRANCH   9  14
ENDBRANCH   1   3
BRANCH   1  16
ATOM     16  O   UNL d   1     -47.415  12.782  22.380  0.00  0.00    -0.271 OA
BRANCH  16  17
ATOM     17  C   UNL d   1     -48.171  12.619  22.665  0.00  0.00     0.126 A 
ATOM     18  C   UNL d   1     -48.832  12.800  22.206  0.00  0.00     0.117 A 
ATOM     19  C   UNL d   1     -49.588  12.641  22.485  0.00  0.00     0.029 A 
ATOM     20  C   UNL d   1     -49.684  12.293  23.237  0.00  0.00     0.041 A 
ATOM     21  C   UNL d   1     -49.024  12.111  23.696  0.00  0.00     0.005 A 
ATOM     22  C   UNL d   1     -48.267  12.274  23.411  0.00  0.00     0.027 A 
BRANCH  18  23
ATOM     23  O   UNL d   1     -48.728  13.145  21.462  0.00  0.00    -0.326 OA
ATOM     24  C   UNL d   1     -49.383  13.298  20.979  0.00  0.00     0.181 C 
ENDBRANCH  18  23
BRANCH  20  25
ATOM     25  C   UNL d   1     -50.453  12.130  23.521  0.00  0.00     0.196 C 
ATOM     26  O   UNL d   1     -50.973  12.754  23.675  0.00  0.00    -0.287 OA
ATOM     27  C   UNL d   1     -50.689  11.344  23.647  0.00  0.00     0.045 C 
ENDBRANCH  20  25
ENDBRANCH  16  17
ENDBRANCH   1  16
TORSDOF 6
ENDMDL
