MODEL 1
REMARK VINA RESULT:      53.0      0.000      0.000
REMARK  3 active torsions:
REMARK  status: ('A' for Active; 'I' for Inactive)
REMARK    1  A    between atoms: C_10  and  C_5 
REMARK    2  A    between atoms: C_16  and  C_10 
REMARK    3  A    between atoms: C_17  and  C_16 
ROOT
ATOM      1  C   UNL d   1     -52.072  24.625  33.342  0.00  0.00     0.111 A 
ATOM      2  C   UNL d   1     -50.632  24.665  33.331  0.00  0.00     0.062 A 
ATOM      3  C   UNL d   1     -52.002  23.745  33.343  0.00  0.00     0.213 A 
ATOM      4  C   UNL d   1     -50.589  23.869  33.332  0.00  0.00     0.101 A 
ATOM      5  C   UNL d   1     -51.376  25.045  33.336  0.00  0.00     0.018 A 
ATOM      6  O   UNL d   1     -51.272  23.410  33.338  0.00  0.00    -0.288 OA
ATOM      7  C   UNL d   1     -49.944  25.134  33.325  0.00  0.00     0.194 A 
ATOM      8  C   UNL d   1     -52.806  24.999  33.347  0.00  0.00     0.105 C 
ATOM      9  N   UNL d   1     -53.535  25.396  33.352  0.00  0.00    -0.191 NA
ATOM     10  C   UNL d   1     -49.854  23.494  33.327  0.00  0.00     0.002 A 
ATOM     11  C   UNL d   1     -49.159  23.914  33.321  0.00  0.00     0.042 A 
ATOM     12  C   UNL d   1     -49.219  24.789  33.320  0.00  0.00     0.019 A 
ATOM     13  O   UNL d   1     -49.994  25.991  33.325  0.00  0.00    -0.287 OA
ATOM     14  N   UNL d   1     -52.689  23.232  33.349  0.00  0.00    -0.120 N 
ATOM     15  C   UNL d   1     -48.711  23.211  33.319  0.00  0.00     0.009 C 
ATOM     16  C   UNL d   1     -48.392  24.192  33.315  0.00  0.00     0.009 C 
ENDROOT
BRANCH   5  17
ATOM     17  C   UNL d   1     -51.447  25.900  33.336  0.00  0.00     0.001 C 
BRANCH  17  18
ATOM     18  C   UNL d   1     -50.974  26.341  33.845  0.00  0.00     0.000 C 
BRANCH  18  19
ATOM     19  C   UNL d   1     -50.873  27.142  33.676  0.00  0.00     0.000 A 
ATOM     20  C   UNL d   1     -51.546  27.632  33.690  0.00  0.00     0.000 A 
ATOM     21  C   UNL d   1     -51.461  28.426  33.524  0.00  0.00     0.000 A 
ATOM     22  C   UNL d   1     -50.715  28.743  33.344  0.00  0.00     0.000 A 
ATOM     23  C   UNL d   1     -50.042  28.254  33.329  0.00  0.00     0.000 A 
ATOM     24  C   UNL d   1     -50.123  27.461  33.494  0.00  0.00     0.000 A 
ENDBRANCH  18  19
ENDBRANCH  17  18
ENDBRANCH   5  17
TORSDOF 3
ENDMDL
