MODEL 1
REMARK VINA RESULT:      83.5      0.000      0.000
REMARK  7 active torsions:
REMARK  status: ('A' for Active; 'I' for Inactive)
REMARK    1  A    between atoms: N_2  and  C_1 
REMARK       I    between atoms: C_6  and  N_2 
REMARK    2  A    between atoms: S_3  and  C_12 
REMARK    3  A    between atoms: C_28  and  N_4 
REMARK    4  A    between atoms: C_8  and  C_6 
REMARK    5  A    between atoms: C_15  and  C_11 
REMARK    6  A    between atoms: C_32  and  C_28 
REMARK    7  A    between atoms: O_31  and  C_32 
ROOT
ATOM      1  N   UNL d   1      14.540  15.057  -3.766  0.00  0.00    -0.184 NA
ATOM      2  C   UNL d   1      13.854  14.609  -3.699  0.00  0.00     0.281 C 
ATOM      3  O   UNL d   1      13.158  14.868  -4.057  0.00  0.00    -0.265 OA
ENDROOT
BRANCH   1   4
ATOM      4  C   UNL d   1      14.525  15.764  -4.192  0.00  0.00     0.182 A 
ATOM      5  N   UNL d   1      14.600  15.833  -5.005  0.00  0.00    -0.283 N 
ATOM      6  C   UNL d   1      14.554  16.632  -5.205  0.00  0.00     0.072 A 
ATOM      7  C   UNL d   1      14.594  17.026  -5.928  0.00  0.00     0.019 A 
ATOM      8  C   UNL d   1      14.450  17.060  -4.507  0.00  0.00     0.049 A 
ATOM      9  C   UNL d   1      14.529  17.846  -5.952  0.00  0.00     0.015 A 
ATOM     10  C   UNL d   1      14.425  18.273  -5.254  0.00  0.00     0.107 A 
ATOM     11  C   UNL d   1      14.385  17.880  -4.532  0.00  0.00     0.021 A 
ATOM     12  S   UNL d   1      14.432  16.521  -3.880  0.00  0.00    -0.048 SA
BRANCH   5  13
ATOM     13  C   UNL d   1      14.704  15.212  -5.541  0.00  0.00     0.108 C 
BRANCH  13  14
ATOM     14  C   UNL d   1      15.412  15.130  -5.951  0.00  0.00     0.135 C 
BRANCH  14  15
ATOM     15  O   UNL d   1      15.569  14.444  -6.374  0.00  0.00    -0.325 OA
ATOM     16  C   UNL d   1      16.319  14.094  -6.350  0.00  0.00     0.182 C 
ENDBRANCH  14  15
ENDBRANCH  13  14
ENDBRANCH   5  13
BRANCH  10  17
ATOM     17  S   UNL d   1      14.359  19.106  -5.281  0.00  0.00     0.302 S 
ATOM     18  O   UNL d   1      15.159  19.130  -5.472  0.00  0.00    -0.197 OA
ATOM     19  O   UNL d   1      13.553  19.079  -5.089  0.00  0.00    -0.197 OA
ATOM     20  N   UNL d   1      14.322  19.928  -5.315  0.00  0.00    -0.043 N 
ENDBRANCH  10  17
ENDBRANCH   1   4
BRANCH   2  21
ATOM     21  C   UNL d   1      13.862  13.901  -3.276  0.00  0.00     0.061 A 
ATOM     22  C   UNL d   1      14.215  13.863  -2.518  0.00  0.00     0.025 A 
ATOM     23  C   UNL d   1      14.223  13.155  -2.094  0.00  0.00     0.087 A 
ATOM     24  N   UNL d   1      13.875  12.473  -2.425  0.00  0.00    -0.245 NA
ATOM     25  C   UNL d   1      13.526  12.511  -3.173  0.00  0.00     0.082 A 
ATOM     26  C   UNL d   1      13.518  13.219  -3.597  0.00  0.00     0.022 A 
ATOM     27  C   UNL d   1      13.180  11.831  -3.501  0.00  0.00     0.019 A 
ATOM     28  C   UNL d   1      13.168  13.260  -4.348  0.00  0.00     0.002 A 
ATOM     29  C   UNL d   1      12.820  12.567  -4.672  0.00  0.00     0.000 A 
ATOM     30  C   UNL d   1      12.828  11.859  -4.249  0.00  0.00     0.002 A 
BRANCH  23  31
ATOM     31  C   UNL d   1      14.571  13.118  -1.350  0.00  0.00     0.047 A 
ATOM     32  S   UNL d   1      14.639  12.395  -0.959  0.00  0.00    -0.085 SA
ATOM     33  C   UNL d   1      15.006  12.519  -0.230  0.00  0.00     0.035 A 
ATOM     34  C   UNL d   1      15.162  13.329  -0.180  0.00  0.00     0.007 A 
ATOM     35  C   UNL d   1      14.897  13.701  -0.864  0.00  0.00     0.009 A 
ENDBRANCH  23  31
ENDBRANCH   2  21
TORSDOF 7
ENDMDL
