MODEL 1
REMARK VINA RESULT:     -11.1      0.000      0.000
REMARK  3 active torsions:
REMARK  status: ('A' for Active; 'I' for Inactive)
REMARK    1  A    between atoms: C_7  and  C_1 
REMARK    2  A    between atoms: C_12  and  C_6 
REMARK       I    between atoms: N_10  and  C_7 
REMARK    3  A    between atoms: C_13  and  N_10 
ROOT
ATOM      1  C   UNL d   1      51.546  34.110  52.805  0.00  0.00     0.108 A 
ATOM      2  C   UNL d   1      52.519  33.490  53.441  0.00  0.00     0.046 A 
ATOM      3  C   UNL d   1      51.904  33.382  52.910  0.00  0.00     0.116 A 
ATOM      4  C   UNL d   1      52.523  34.288  53.650  0.00  0.00     0.112 A 
ATOM      5  S   UNL d   1      51.910  34.658  53.244  0.00  0.00    -0.061 SA
ATOM      6  C   UNL d   1      53.076  32.979  53.765  0.00  0.00     0.028 A 
ATOM      7  N   UNL d   1      53.083  34.580  54.185  0.00  0.00    -0.239 NA
ATOM      8  C   UNL d   1      53.641  33.260  54.300  0.00  0.00     0.020 A 
ATOM      9  C   UNL d   1      53.644  34.058  54.509  0.00  0.00     0.082 A 
ATOM     10  N   UNL d   1      51.682  32.669  52.544  0.00  0.00    -0.147 N 
ATOM     11  C   UNL d   1      54.198  32.749  54.624  0.00  0.00     0.002 A 
ATOM     12  C   UNL d   1      54.205  34.350  55.043  0.00  0.00     0.019 A 
ATOM     13  C   UNL d   1      54.766  33.030  55.161  0.00  0.00     0.000 A 
ATOM     14  C   UNL d   1      54.770  33.828  55.370  0.00  0.00     0.002 A 
ENDROOT
BRANCH   1  15
ATOM     15  C   UNL d   1      50.900  34.278  52.319  0.00  0.00     0.287 C 
ATOM     16  N   UNL d   1      50.170  34.469  52.636  0.00  0.00    -0.208 NA
ATOM     17  O   UNL d   1      50.999  34.251  51.494  0.00  0.00    -0.265 OA
BRANCH  16  18
ATOM     18  C   UNL d   1      49.536  34.634  52.143  0.00  0.00     0.085 A 
ATOM     19  C   UNL d   1      48.904  35.094  52.416  0.00  0.00     0.018 A 
ATOM     20  C   UNL d   1      48.856  35.405  53.152  0.00  0.00     0.002 C 
ATOM     21  C   UNL d   1      48.267  35.252  51.901  0.00  0.00     0.002 A 
ATOM     22  C   UNL d   1      48.261  34.954  51.122  0.00  0.00     0.000 A 
ATOM     23  C   UNL d   1      48.901  34.498  50.870  0.00  0.00     0.002 A 
ATOM     24  C   UNL d   1      49.535  34.337  51.372  0.00  0.00     0.019 A 
ENDBRANCH  16  18
ENDBRANCH   1  15
BRANCH   6  25
ATOM     25  C   UNL d   1      53.073  32.186  53.557  0.00  0.00     0.100 A 
ATOM     26  O   UNL d   1      52.643  31.566  53.885  0.00  0.00    -0.305 OA
ATOM     27  C   UNL d   1      52.843  30.879  53.472  0.00  0.00     0.123 A 
ATOM     28  C   UNL d   1      53.377  31.067  52.910  0.00  0.00     0.029 A 
ATOM     29  C   UNL d   1      53.530  31.866  52.947  0.00  0.00     0.027 A 
ENDBRANCH   6  25
TORSDOF 3
ENDMDL
MODEL 2
REMARK VINA RESULT:      -9.5      1.152      2.298
REMARK  3 active torsions:
REMARK  status: ('A' for Active; 'I' for Inactive)
REMARK    1  A    between atoms: C_7  and  C_1 
REMARK    2  A    between atoms: C_12  and  C_6 
REMARK       I    between atoms: N_10  and  C_7 
REMARK    3  A    between atoms: C_13  and  N_10 
ROOT
ATOM      1  C   UNL d   1      50.608  34.087  52.960  0.00  0.00     0.108 A 
ATOM      2  C   UNL d   1      51.801  33.677  53.339  0.00  0.00     0.046 A 
ATOM      3  C   UNL d   1      51.290  34.318  53.349  0.00  0.00     0.116 A 
ATOM      4  C   UNL d   1      51.417  33.065  52.941  0.00  0.00     0.112 A 
ATOM      5  S   UNL d   1      50.676  33.339  52.713  0.00  0.00    -0.061 SA
ATOM      6  C   UNL d   1      52.560  33.562  53.634  0.00  0.00     0.028 A 
ATOM      7  N   UNL d   1      51.789  32.334  52.836  0.00  0.00    -0.239 NA
ATOM      8  C   UNL d   1      52.941  32.835  53.534  0.00  0.00     0.020 A 
ATOM      9  C   UNL d   1      52.557  32.223  53.136  0.00  0.00     0.082 A 
ATOM     10  N   UNL d   1      51.432  35.063  53.689  0.00  0.00    -0.147 N 
ATOM     11  C   UNL d   1      53.700  32.719  53.829  0.00  0.00     0.002 A 
ATOM     12  C   UNL d   1      52.930  31.491  53.030  0.00  0.00     0.019 A 
ATOM     13  C   UNL d   1      54.085  31.989  53.729  0.00  0.00     0.000 A 
ATOM     14  C   UNL d   1      53.701  31.377  53.331  0.00  0.00     0.002 A 
ENDROOT
BRANCH   1  15
ATOM     15  C   UNL d   1      49.933  34.546  52.830  0.00  0.00     0.287 C 
ATOM     16  N   UNL d   1      49.492  34.466  52.145  0.00  0.00    -0.208 NA
ATOM     17  O   UNL d   1      49.703  35.096  53.409  0.00  0.00    -0.265 OA
BRANCH  16  18
ATOM     18  C   UNL d   1      48.824  34.927  52.028  0.00  0.00     0.085 A 
ATOM     19  C   UNL d   1      48.432  34.915  51.299  0.00  0.00     0.018 A 
ATOM     20  C   UNL d   1      48.658  34.473  50.672  0.00  0.00     0.002 C 
ATOM     21  C   UNL d   1      47.754  35.390  51.197  0.00  0.00     0.002 A 
ATOM     22  C   UNL d   1      47.471  35.872  51.817  0.00  0.00     0.000 A 
ATOM     23  C   UNL d   1      47.877  35.869  52.535  0.00  0.00     0.002 A 
ATOM     24  C   UNL d   1      48.548  35.402  52.645  0.00  0.00     0.019 A 
ENDBRANCH  16  18
ENDBRANCH   1  15
BRANCH   6  25
ATOM     25  C   UNL d   1      52.942  34.170  54.029  0.00  0.00     0.100 A 
ATOM     26  O   UNL d   1      52.960  34.334  54.834  0.00  0.00    -0.305 OA
ATOM     27  C   UNL d   1      53.424  35.009  54.941  0.00  0.00     0.123 A 
ATOM     28  C   UNL d   1      53.684  35.253  54.227  0.00  0.00     0.029 A 
ATOM     29  C   UNL d   1      53.398  34.750  53.655  0.00  0.00     0.027 A 
ENDBRANCH   6  25
TORSDOF 3
ENDMDL
