MODEL 1
REMARK VINA RESULT:      46.4      0.000      0.000
REMARK  4 active torsions:
REMARK  status: ('A' for Active; 'I' for Inactive)
REMARK    1  A    between atoms: C_2  and  S_1 
REMARK    2  A    between atoms: N_3  and  S_1 
REMARK    3  A    between atoms: C_7  and  N_3 
REMARK    4  A    between atoms: C_8  and  C_4 
ROOT
ATOM      1  S   UNL d   1      14.909  14.397  -0.530  0.00  0.00     0.285 S 
ATOM      2  O   UNL d   1      15.556  14.377  -0.015  0.00  0.00    -0.198 OA
ATOM      3  O   UNL d   1      14.257  14.419  -1.050  0.00  0.00    -0.198 OA
ENDROOT
BRANCH   1   4
ATOM      4  C   UNL d   1      14.836  13.568  -0.476  0.00  0.00     0.105 A 
ATOM      5  C   UNL d   1      14.109  13.235  -0.273  0.00  0.00     0.012 A 
ATOM      6  C   UNL d   1      14.031  12.417  -0.218  0.00  0.00     0.001 A 
ATOM      7  C   UNL d   1      13.446  13.722  -0.122  0.00  0.00     0.001 C 
ATOM      8  C   UNL d   1      13.304  12.084  -0.016  0.00  0.00     0.000 C 
ATOM      9  C   UNL d   1      14.692  11.924  -0.369  0.00  0.00     0.000 A 
ATOM     10  C   UNL d   1      15.419  12.267  -0.573  0.00  0.00     0.001 A 
ATOM     11  C   UNL d   1      15.492  13.087  -0.626  0.00  0.00     0.012 A 
ATOM     12  C   UNL d   1      16.083  11.779  -0.724  0.00  0.00     0.000 C 
ATOM     13  C   UNL d   1      16.214  13.431  -0.828  0.00  0.00     0.001 C 
ENDBRANCH   1   4
BRANCH   1  14
ATOM     14  N   UNL d   1      14.979  15.223  -0.586  0.00  0.00    -0.158 NA
BRANCH  14  15
ATOM     15  C   UNL d   1      14.906  15.596  -1.322  0.00  0.00     0.100 A 
ATOM     16  C   UNL d   1      15.105  16.398  -1.403  0.00  0.00     0.083 A 
ATOM     17  C   UNL d   1      15.033  16.770  -2.133  0.00  0.00     0.008 A 
ATOM     18  C   UNL d   1      14.762  16.348  -2.787  0.00  0.00     0.000 A 
ATOM     19  C   UNL d   1      14.563  15.553  -2.711  0.00  0.00     0.002 A 
ATOM     20  C   UNL d   1      14.634  15.173  -1.976  0.00  0.00     0.020 A 
BRANCH  16  21
ATOM     21  C   UNL d   1      15.377  16.824  -0.751  0.00  0.00     0.212 C 
ATOM     22  O   UNL d   1      14.864  17.014  -0.134  0.00  0.00    -0.644 OA
ATOM     23  O   UNL d   1      16.166  17.063  -0.712  0.00  0.00    -0.644 OA
ENDBRANCH  16  21
ENDBRANCH  14  15
ENDBRANCH   1  14
TORSDOF 4
ENDMDL
