MODEL 1
REMARK VINA RESULT:       7.1      0.000      0.000
REMARK  4 active torsions:
REMARK  status: ('A' for Active; 'I' for Inactive)
REMARK    1  A    between atoms: C_4  and  C_1 
REMARK       I    between atoms: N_9  and  C_4 
REMARK    2  A    between atoms: C_7  and  C_13 
REMARK    3  A    between atoms: C_12  and  N_9 
REMARK    4  A    between atoms: C_13  and  C_12 
ROOT
ATOM      1  C   UNL d   1      45.511 -15.904  44.493  0.00  0.00     0.302 C 
ATOM      2  O   UNL d   1      44.955 -16.275  44.953  0.00  0.00    -0.263 OA
ATOM      3  N   UNL d   1      46.037 -16.361  44.025  0.00  0.00    -0.205 NA
ENDROOT
BRANCH   3   4
ATOM      4  C   UNL d   1      45.976 -17.176  44.043  0.00  0.00     0.102 C 
BRANCH   4   5
ATOM      5  C   UNL d   1      46.369 -17.636  43.478  0.00  0.00     0.021 C 
BRANCH   5   6
ATOM      6  C   UNL d   1      46.385 -18.454  43.548  0.00  0.00     0.002 A 
ATOM      7  C   UNL d   1      46.218 -18.927  42.881  0.00  0.00     0.000 A 
ATOM      8  C   UNL d   1      46.231 -19.749  42.939  0.00  0.00     0.000 A 
ATOM      9  C   UNL d   1      46.409 -20.115  43.659  0.00  0.00     0.000 A 
ATOM     10  C   UNL d   1      46.572 -19.649  44.313  0.00  0.00     0.000 A 
ATOM     11  C   UNL d   1      46.560 -18.820  44.254  0.00  0.00     0.000 A 
ENDBRANCH   5   6
ENDBRANCH   4   5
ENDBRANCH   3   4
BRANCH   1  12
ATOM     12  C   UNL d   1      45.567 -15.082  44.479  0.00  0.00     0.158 A 
ATOM     13  O   UNL d   1      45.140 -14.538  44.023  0.00  0.00    -0.296 OA
ATOM     14  C   UNL d   1      45.396 -13.770  44.206  0.00  0.00     0.134 A 
ATOM     15 BR   UNL d   1      45.106 -13.069  43.869  0.00  0.00    -0.022 Br
ATOM     16  C   UNL d   1      45.985 -13.843  44.779  0.00  0.00     0.034 A 
ATOM     17  C   UNL d   1      46.092 -14.637  44.948  0.00  0.00     0.032 A 
ENDBRANCH   1  12
TORSDOF 4
ENDMDL
MODEL 2
REMARK VINA RESULT:       8.7      2.110      4.704
REMARK  4 active torsions:
REMARK  status: ('A' for Active; 'I' for Inactive)
REMARK    1  A    between atoms: C_4  and  C_1 
REMARK       I    between atoms: N_9  and  C_4 
REMARK    2  A    between atoms: C_7  and  C_13 
REMARK    3  A    between atoms: C_12  and  N_9 
REMARK    4  A    between atoms: C_13  and  C_12 
ROOT
ATOM      1  C   UNL d   1      45.917 -17.566  43.262  0.00  0.00     0.302 C 
ATOM      2  O   UNL d   1      45.790 -17.187  42.556  0.00  0.00    -0.263 OA
ATOM      3  N   UNL d   1      45.920 -17.125  43.976  0.00  0.00    -0.205 NA
ENDROOT
BRANCH   3   4
ATOM      4  C   UNL d   1      45.793 -16.319  43.945  0.00  0.00     0.102 C 
BRANCH   4   5
ATOM      5  C   UNL d   1      45.806 -15.866  44.638  0.00  0.00     0.021 C 
BRANCH   5   6
ATOM      6  C   UNL d   1      45.616 -15.067  44.615  0.00  0.00     0.002 A 
ATOM      7  C   UNL d   1      46.201 -14.512  44.402  0.00  0.00     0.000 A 
ATOM      8  C   UNL d   1      46.024 -13.708  44.375  0.00  0.00     0.000 A 
ATOM      9  C   UNL d   1      45.263 -13.442  44.560  0.00  0.00     0.000 A 
ATOM     10  C   UNL d   1      44.690 -13.988  44.770  0.00  0.00     0.000 A 
ATOM     11  C   UNL d   1      44.869 -14.799  44.797  0.00  0.00     0.000 A 
ENDBRANCH   5   6
ENDBRANCH   4   5
ENDBRANCH   3   4
BRANCH   1  12
ATOM     12  C   UNL d   1      46.044 -18.379  43.288  0.00  0.00     0.158 A 
ATOM     13  O   UNL d   1      46.199 -18.863  43.942  0.00  0.00    -0.296 OA
ATOM     14  C   UNL d   1      46.287 -19.647  43.687  0.00  0.00     0.134 A 
ATOM     15 BR   UNL d   1      46.446 -20.301  44.173  0.00  0.00    -0.022 Br
ATOM     16  C   UNL d   1      46.184 -19.645  42.868  0.00  0.00     0.034 A 
ATOM     17  C   UNL d   1      46.037 -18.879  42.621  0.00  0.00     0.032 A 
ENDBRANCH   1  12
TORSDOF 4
ENDMDL
