MODEL 1
REMARK VINA RESULT:      66.1      0.000      0.000
REMARK  4 active torsions:
REMARK  status: ('A' for Active; 'I' for Inactive)
REMARK    1  A    between atoms: C_2  and  C_1 
REMARK    2  A    between atoms: C_7  and  O_14 
REMARK       I    between atoms: N_12  and  C_7 
REMARK    3  A    between atoms: O_14  and  C_11 
REMARK    4  A    between atoms: C_24  and  C_18 
ROOT
ATOM      1  C   UNL d   1      44.525 -16.991  39.299  0.00  0.00     0.099 A 
ATOM      2  C   UNL d   1      45.117 -17.564  39.301  0.00  0.00     0.202 A 
ATOM      3  C   UNL d   1      45.291 -17.984  39.998  0.00  0.00     0.062 A 
ATOM      4  C   UNL d   1      44.099 -16.831  39.994  0.00  0.00     0.129 A 
ATOM      5  C   UNL d   1      44.867 -17.824  40.688  0.00  0.00     0.105 A 
ATOM      6  O   UNL d   1      44.272 -17.250  40.691  0.00  0.00    -0.305 OA
ATOM      7  C   UNL d   1      45.627 -18.808  41.373  0.00  0.00     0.107 A 
ATOM      8  C   UNL d   1      45.883 -18.558  40.000  0.00  0.00     0.007 A 
ATOM      9  C   UNL d   1      45.036 -18.238  41.381  0.00  0.00     0.050 A 
ATOM     10  C   UNL d   1      46.047 -18.966  40.689  0.00  0.00     0.023 A 
ATOM     11  O   UNL d   1      45.539 -17.723  38.613  0.00  0.00    -0.286 OA
ENDROOT
BRANCH   1  12
ATOM     12  C   UNL d   1      44.352 -16.574  38.607  0.00  0.00     0.168 A 
ATOM     13  N   UNL d   1      43.619 -16.535  38.234  0.00  0.00    -0.225 NA
ATOM     14  C   UNL d   1      43.700 -16.055  37.559  0.00  0.00     0.101 A 
ATOM     15  C   UNL d   1      43.167 -15.821  36.984  0.00  0.00     0.021 A 
ATOM     16  C   UNL d   1      44.484 -15.801  37.522  0.00  0.00     0.101 A 
ATOM     17  C   UNL d   1      43.404 -15.332  36.364  0.00  0.00     0.002 A 
ATOM     18  C   UNL d   1      44.196 -15.079  36.331  0.00  0.00     0.002 A 
ATOM     19  C   UNL d   1      44.735 -15.316  36.912  0.00  0.00     0.021 A 
ATOM     20  N   UNL d   1      44.886 -16.124  38.171  0.00  0.00    -0.225 NA
ENDBRANCH   1  12
BRANCH  10  21
ATOM     21  C   UNL d   1      46.644 -19.545  40.695  0.00  0.00     0.002 C 
ATOM     22  C   UNL d   1      46.557 -20.228  40.239  0.00  0.00     0.000 C 
ENDBRANCH  10  21
BRANCH   7  23
ATOM     23  O   UNL d   1      45.796 -19.226  42.076  0.00  0.00    -0.259 OA
BRANCH  23  24
ATOM     24  C   UNL d   1      46.111 -18.830  42.730  0.00  0.00     0.378 C 
ATOM     25  N   UNL d   1      46.120 -19.195  43.469  0.00  0.00    -0.247 N 
ATOM     26  C   UNL d   1      46.437 -18.793  44.118  0.00  0.00     0.112 A 
ATOM     27  C   UNL d   1      45.813 -19.956  43.554  0.00  0.00     0.112 A 
ATOM     28  C   UNL d   1      46.446 -19.155  44.854  0.00  0.00     0.142 A 
ATOM     29  O   UNL d   1      46.140 -19.917  44.946  0.00  0.00    -0.300 OA
ATOM     30  C   UNL d   1      45.823 -20.318  44.297  0.00  0.00     0.142 A 
ATOM     31  O   UNL d   1      46.419 -18.069  42.644  0.00  0.00    -0.237 OA
ENDBRANCH  23  24
ENDBRANCH   7  23
TORSDOF 4
ENDMDL
MODEL 2
REMARK VINA RESULT:      67.0      1.720      6.093
REMARK  4 active torsions:
REMARK  status: ('A' for Active; 'I' for Inactive)
REMARK    1  A    between atoms: C_2  and  C_1 
REMARK    2  A    between atoms: C_7  and  O_14 
REMARK       I    between atoms: N_12  and  C_7 
REMARK    3  A    between atoms: O_14  and  C_11 
REMARK    4  A    between atoms: C_24  and  C_18 
ROOT
ATOM      1  C   UNL d   1      45.289 -17.796  40.243  0.00  0.00     0.099 A 
ATOM      2  C   UNL d   1      45.774 -17.349  39.749  0.00  0.00     0.202 A 
ATOM      3  C   UNL d   1      45.452 -16.964  39.085  0.00  0.00     0.062 A 
ATOM      4  C   UNL d   1      44.477 -17.863  40.080  0.00  0.00     0.129 A 
ATOM      5  C   UNL d   1      44.645 -17.031  38.923  0.00  0.00     0.105 A 
ATOM      6  O   UNL d   1      44.156 -17.478  39.417  0.00  0.00    -0.305 OA
ATOM      7  C   UNL d   1      44.814 -16.208  37.780  0.00  0.00     0.107 A 
ATOM      8  C   UNL d   1      45.937 -16.517  38.590  0.00  0.00     0.007 A 
ATOM      9  C   UNL d   1      44.323 -16.651  38.266  0.00  0.00     0.050 A 
ATOM     10  C   UNL d   1      45.613 -16.142  37.940  0.00  0.00     0.023 A 
ATOM     11  O   UNL d   1      46.577 -17.282  39.910  0.00  0.00    -0.286 OA
ENDROOT
BRANCH   1  12
ATOM     12  C   UNL d   1      45.607 -18.178  40.903  0.00  0.00     0.168 A 
ATOM     13  N   UNL d   1      45.791 -17.828  41.626  0.00  0.00    -0.225 NA
ATOM     14  C   UNL d   1      46.097 -18.419  42.126  0.00  0.00     0.101 A 
ATOM     15  C   UNL d   1      46.368 -18.398  42.898  0.00  0.00     0.021 A 
ATOM     16  C   UNL d   1      46.099 -19.129  41.706  0.00  0.00     0.101 A 
ATOM     17  C   UNL d   1      46.646 -19.082  43.265  0.00  0.00     0.002 A 
ATOM     18  C   UNL d   1      46.647 -19.797  42.837  0.00  0.00     0.002 A 
ATOM     19  C   UNL d   1      46.372 -19.817  42.057  0.00  0.00     0.021 A 
ATOM     20  N   UNL d   1      45.796 -18.978  40.950  0.00  0.00    -0.225 NA
ENDBRANCH   1  12
BRANCH  10  21
ATOM     21  C   UNL d   1      46.099 -15.690  37.438  0.00  0.00     0.002 C 
ATOM     22  C   UNL d   1      46.599 -15.115  37.759  0.00  0.00     0.000 C 
ENDBRANCH  10  21
BRANCH   7  23
ATOM     23  O   UNL d   1      44.485 -15.824  37.115  0.00  0.00    -0.259 OA
BRANCH  23  24
ATOM     24  C   UNL d   1      43.835 -16.152  36.724  0.00  0.00     0.378 C 
ATOM     25  N   UNL d   1      43.110 -15.760  36.725  0.00  0.00    -0.247 N 
ATOM     26  C   UNL d   1      42.465 -16.094  36.332  0.00  0.00     0.112 A 
ATOM     27  C   UNL d   1      43.036 -15.037  37.117  0.00  0.00     0.112 A 
ATOM     28  C   UNL d   1      41.743 -15.704  36.332  0.00  0.00     0.142 A 
ATOM     29  O   UNL d   1      41.662 -14.980  36.723  0.00  0.00    -0.300 OA
ATOM     30  C   UNL d   1      42.308 -14.646  37.116  0.00  0.00     0.142 A 
ATOM     31  O   UNL d   1      43.909 -16.875  36.332  0.00  0.00    -0.237 OA
ENDBRANCH  23  24
ENDBRANCH   7  23
TORSDOF 4
ENDMDL
MODEL 3
REMARK VINA RESULT:      67.6      1.151      6.138
REMARK  4 active torsions:
REMARK  status: ('A' for Active; 'I' for Inactive)
REMARK    1  A    between atoms: C_2  and  C_1 
REMARK    2  A    between atoms: C_7  and  O_14 
REMARK       I    between atoms: N_12  and  C_7 
REMARK    3  A    between atoms: O_14  and  C_11 
REMARK    4  A    between atoms: C_24  and  C_18 
ROOT
ATOM      1  C   UNL d   1      46.005 -18.708  41.498  0.00  0.00     0.099 A 
ATOM      2  C   UNL d   1      45.342 -18.292  41.242  0.00  0.00     0.202 A 
ATOM      3  C   UNL d   1      45.311 -17.990  40.467  0.00  0.00     0.062 A 
ATOM      4  C   UNL d   1      46.646 -18.828  40.982  0.00  0.00     0.129 A 
ATOM      5  C   UNL d   1      45.948 -18.109  39.955  0.00  0.00     0.105 A 
ATOM      6  O   UNL d   1      46.615 -18.526  40.208  0.00  0.00    -0.305 OA
ATOM      7  C   UNL d   1      45.256 -17.398  38.941  0.00  0.00     0.107 A 
ATOM      8  C   UNL d   1      44.648 -17.573  40.211  0.00  0.00     0.007 A 
ATOM      9  C   UNL d   1      45.921 -17.811  39.186  0.00  0.00     0.050 A 
ATOM     10  C   UNL d   1      44.625 -17.279  39.449  0.00  0.00     0.023 A 
ATOM     11  O   UNL d   1      44.708 -18.173  41.752  0.00  0.00    -0.286 OA
ENDROOT
BRANCH   1  12
ATOM     12  C   UNL d   1      46.037 -19.009  42.267  0.00  0.00     0.168 A 
ATOM     13  N   UNL d   1      46.492 -18.711  42.885  0.00  0.00    -0.225 NA
ATOM     14  C   UNL d   1      46.353 -19.183  43.557  0.00  0.00     0.101 A 
ATOM     15  C   UNL d   1      46.646 -19.153  44.320  0.00  0.00     0.021 A 
ATOM     16  C   UNL d   1      45.812 -19.769  43.345  0.00  0.00     0.101 A 
ATOM     17  C   UNL d   1      46.406 -19.704  44.885  0.00  0.00     0.002 A 
ATOM     18  C   UNL d   1      45.860 -20.293  44.666  0.00  0.00     0.002 A 
ATOM     19  C   UNL d   1      45.564 -20.324  43.894  0.00  0.00     0.021 A 
ATOM     20  N   UNL d   1      45.618 -19.659  42.546  0.00  0.00    -0.225 NA
ENDBRANCH   1  12
BRANCH  10  21
ATOM     21  C   UNL d   1      43.957 -16.858  39.186  0.00  0.00     0.002 C 
ATOM     22  C   UNL d   1      43.239 -16.937  39.587  0.00  0.00     0.000 C 
ENDBRANCH  10  21
BRANCH   7  23
ATOM     23  O   UNL d   1      45.231 -17.097  38.162  0.00  0.00    -0.259 OA
BRANCH  23  24
ATOM     24  C   UNL d   1      45.622 -16.394  37.975  0.00  0.00     0.378 C 
ATOM     25  N   UNL d   1      45.297 -15.873  37.425  0.00  0.00    -0.247 N 
ATOM     26  C   UNL d   1      45.694 -15.172  37.243  0.00  0.00     0.112 A 
ATOM     27  C   UNL d   1      44.578 -16.056  37.063  0.00  0.00     0.112 A 
ATOM     28  C   UNL d   1      45.371 -14.652  36.696  0.00  0.00     0.142 A 
ATOM     29  O   UNL d   1      44.651 -14.830  36.330  0.00  0.00    -0.300 OA
ATOM     30  C   UNL d   1      44.254 -15.531  36.512  0.00  0.00     0.142 A 
ATOM     31  O   UNL d   1      46.341 -16.211  38.337  0.00  0.00    -0.237 OA
ENDBRANCH  23  24
ENDBRANCH   7  23
TORSDOF 4
ENDMDL
