MODEL 1
REMARK VINA RESULT:      27.3      0.000      0.000
REMARK  2 active torsions:
REMARK  status: ('A' for Active; 'I' for Inactive)
REMARK    1  A    between atoms: C_5  and  C_1 
REMARK    2  A    between atoms: C_7  and  C_5 
ROOT
ATOM      1  C   UNL d   1     -50.887  25.441  33.440  0.00  0.00     0.158 A 
ATOM      2  C   UNL d   1     -50.122  25.746  33.478  0.00  0.00     0.131 A 
ATOM      3  O   UNL d   1     -51.532  25.962  33.388  0.00  0.00    -0.302 OA
ATOM      4  C   UNL d   1     -50.659  27.097  33.413  0.00  0.00     0.044 A 
ATOM      5  C   UNL d   1     -51.423  26.792  33.374  0.00  0.00     0.102 A 
ATOM      6  N   UNL d   1     -49.488  25.234  33.530  0.00  0.00    -0.146 N 
ATOM      7  C   UNL d   1     -50.550  27.920  33.399  0.00  0.00     0.004 A 
ATOM      8  C   UNL d   1     -52.068  27.313  33.322  0.00  0.00     0.025 A 
ATOM      9  C   UNL d   1     -51.190  28.435  33.348  0.00  0.00     0.000 A 
ATOM     10  C   UNL d   1     -51.954  28.130  33.309  0.00  0.00     0.002 A 
ENDROOT
BRANCH   1  11
ATOM     11  C   UNL d   1     -50.996  24.631  33.453  0.00  0.00     0.220 C 
ATOM     12  O   UNL d   1     -50.355  24.143  33.381  0.00  0.00    -0.284 OA
BRANCH  11  13
ATOM     13  C   UNL d   1     -51.720  24.302  33.535  0.00  0.00     0.041 A 
ATOM     14  C   UNL d   1     -51.810  23.533  33.817  0.00  0.00     0.003 A 
ATOM     15  C   UNL d   1     -52.573  23.206  33.897  0.00  0.00     0.000 A 
ATOM     16  C   UNL d   1     -53.253  23.665  33.687  0.00  0.00     0.000 A 
ATOM     17  C   UNL d   1     -53.144  24.436  33.405  0.00  0.00     0.000 A 
ATOM     18  C   UNL d   1     -54.013  23.348  33.762  0.00  0.00     0.000 C 
ATOM     19  C   UNL d   1     -52.400  24.762  33.325  0.00  0.00     0.003 A 
ENDBRANCH  11  13
ENDBRANCH   1  11
TORSDOF 2
ENDMDL
