MODEL 1
REMARK VINA RESULT:      15.3      0.000      0.000
REMARK  4 active torsions:
REMARK  status: ('A' for Active; 'I' for Inactive)
REMARK    1  A    between atoms: C_2  and  S_1 
REMARK    2  A    between atoms: N_3  and  S_1 
REMARK    3  A    between atoms: C_5  and  C_11 
REMARK    4  A    between atoms: O_20  and  C_8 
ROOT
ATOM      1  S   UNL d   1      46.144 -17.881  43.481  0.00  0.00     0.273 S 
ATOM      2  O   UNL d   1      46.646 -18.057  44.117  0.00  0.00    -0.200 OA
ATOM      3  O   UNL d   1      45.643 -17.710  42.843  0.00  0.00    -0.200 OA
ENDROOT
BRANCH   1   4
ATOM      4  C   UNL d   1      46.311 -18.619  43.162  0.00  0.00     0.128 A 
ATOM      5  C   UNL d   1      46.372 -18.713  42.346  0.00  0.00     0.044 A 
ATOM      6  C   UNL d   1      46.539 -19.454  42.025  0.00  0.00     0.141 A 
ATOM      7  F   UNL d   1      46.600 -19.547  41.206  0.00  0.00    -0.204 F 
ATOM      8  C   UNL d   1      46.646 -20.099  42.526  0.00  0.00     0.032 A 
ATOM      9  C   UNL d   1      46.585 -20.006  43.346  0.00  0.00     0.027 A 
ATOM     10  C   UNL d   1      46.418 -19.267  43.661  0.00  0.00     0.106 A 
BRANCH  10  11
ATOM     11  O   UNL d   1      46.355 -19.166  44.484  0.00  0.00    -0.327 OA
ATOM     12  C   UNL d   1      46.079 -19.791  44.954  0.00  0.00     0.181 C 
ENDBRANCH  10  11
ENDBRANCH   1   4
BRANCH   1  13
ATOM     13  N   UNL d   1      45.975 -17.137  43.803  0.00  0.00    -0.229 N 
ATOM     14  C   UNL d   1      46.294 -16.448  43.464  0.00  0.00     0.092 A 
ATOM     15  C   UNL d   1      46.125 -15.703  43.786  0.00  0.00     0.025 A 
ATOM     16  C   UNL d   1      45.638 -15.647  44.447  0.00  0.00     0.062 A 
ATOM     17  C   UNL d   1      45.316 -16.321  44.793  0.00  0.00     0.025 A 
ATOM     18  C   UNL d   1      45.484 -17.066  44.470  0.00  0.00     0.092 A 
BRANCH  16  19
ATOM     19  C   UNL d   1      45.469 -14.902  44.770  0.00  0.00     0.297 C 
ATOM     20  O   UNL d   1      44.689 -14.698  44.955  0.00  0.00    -0.264 OA
ATOM     21  N   UNL d   1      46.079 -14.355  44.909  0.00  0.00    -0.102 N 
ENDBRANCH  16  19
ENDBRANCH   1  13
TORSDOF 4
ENDMDL
MODEL 2
REMARK VINA RESULT:      18.3      2.018      4.360
REMARK  4 active torsions:
REMARK  status: ('A' for Active; 'I' for Inactive)
REMARK    1  A    between atoms: C_2  and  S_1 
REMARK    2  A    between atoms: N_3  and  S_1 
REMARK    3  A    between atoms: C_5  and  C_11 
REMARK    4  A    between atoms: O_20  and  C_8 
ROOT
ATOM      1  S   UNL d   1      45.804 -15.733  44.273  0.00  0.00     0.273 S 
ATOM      2  O   UNL d   1      46.276 -15.728  44.955  0.00  0.00    -0.200 OA
ATOM      3  O   UNL d   1      45.332 -15.733  43.591  0.00  0.00    -0.200 OA
ENDROOT
BRANCH   1   4
ATOM      4  C   UNL d   1      45.660 -14.933  44.383  0.00  0.00     0.128 A 
ATOM      5  C   UNL d   1      46.221 -14.375  44.153  0.00  0.00     0.044 A 
ATOM      6  C   UNL d   1      46.075 -13.571  44.263  0.00  0.00     0.141 A 
ATOM      7  F   UNL d   1      46.640 -13.012  44.032  0.00  0.00    -0.204 F 
ATOM      8  C   UNL d   1      45.366 -13.329  44.604  0.00  0.00     0.032 A 
ATOM      9  C   UNL d   1      44.801 -13.888  44.836  0.00  0.00     0.027 A 
ATOM     10  C   UNL d   1      44.950 -14.687  44.724  0.00  0.00     0.106 A 
BRANCH  10  11
ATOM     11  O   UNL d   1      44.387 -15.254  44.954  0.00  0.00    -0.327 OA
ATOM     12  C   UNL d   1      43.582 -15.058  44.952  0.00  0.00     0.181 C 
ENDBRANCH  10  11
ENDBRANCH   1   4
BRANCH   1  13
ATOM     13  N   UNL d   1      45.950 -16.541  44.162  0.00  0.00    -0.229 N 
ATOM     14  C   UNL d   1      45.950 -16.870  43.398  0.00  0.00     0.092 A 
ATOM     15  C   UNL d   1      46.097 -17.678  43.287  0.00  0.00     0.025 A 
ATOM     16  C   UNL d   1      46.242 -18.158  43.940  0.00  0.00     0.062 A 
ATOM     17  C   UNL d   1      46.245 -17.845  44.702  0.00  0.00     0.025 A 
ATOM     18  C   UNL d   1      46.099 -17.037  44.813  0.00  0.00     0.092 A 
BRANCH  16  19
ATOM     19  C   UNL d   1      46.388 -18.966  43.829  0.00  0.00     0.297 C 
ATOM     20  O   UNL d   1      46.568 -19.447  44.478  0.00  0.00    -0.264 OA
ATOM     21  N   UNL d   1      46.356 -19.301  43.069  0.00  0.00    -0.102 N 
ENDBRANCH  16  19
ENDBRANCH   1  13
TORSDOF 4
ENDMDL
