MODEL 1
REMARK VINA RESULT:      -4.2      0.000      0.000
REMARK  6 active torsions:
REMARK  status: ('A' for Active; 'I' for Inactive)
REMARK    1  A    between atoms: S_12  and  C_1 
REMARK    2  A    between atoms: C_2  and  S_11 
REMARK    3  A    between atoms: S_11  and  C_15 
REMARK    4  A    between atoms: C_16  and  S_12 
REMARK    5  A    between atoms: C_13  and  C_16 
REMARK    6  A    between atoms: C_15  and  C_13 
ROOT
ATOM      1  C   UNL d   1      58.313  -0.270  29.684  0.00  0.00     0.209 C 
ATOM      2  O   UNL d   1      58.661   0.374  29.284  0.00  0.00    -0.285 OA
ENDROOT
BRANCH   1   3
ATOM      3  C   UNL d   1      57.753  -0.128  30.282  0.00  0.00     0.080 C 
BRANCH   3   4
ATOM      4  S   UNL d   1      57.983   0.193  31.009  0.00  0.00    -0.058 SA
BRANCH   4   5
ATOM      5  C   UNL d   1      57.473   0.170  31.655  0.00  0.00     0.141 A 
ATOM      6  N   UNL d   1      56.777  -0.281  31.721  0.00  0.00    -0.232 NA
ATOM      7  C   UNL d   1      56.444  -0.133  32.462  0.00  0.00     0.088 A 
ATOM      8  C   UNL d   1      55.761  -0.421  32.825  0.00  0.00     0.020 A 
ATOM      9  C   UNL d   1      56.930   0.412  32.866  0.00  0.00     0.049 A 
ATOM     10  C   UNL d   1      55.555  -0.176  33.585  0.00  0.00     0.002 A 
ATOM     11  C   UNL d   1      56.041   0.369  33.988  0.00  0.00     0.001 A 
ATOM     12  C   UNL d   1      56.726   0.659  33.623  0.00  0.00     0.008 A 
ATOM     13  S   UNL d   1      57.566   0.600  32.369  0.00  0.00    -0.060 SA
ENDBRANCH   4   5
ENDBRANCH   3   4
ENDBRANCH   1   3
BRANCH   1  14
ATOM     14  C   UNL d   1      58.526  -1.040  29.485  0.00  0.00     0.080 C 
BRANCH  14  15
ATOM     15  S   UNL d   1      59.066  -1.181  28.874  0.00  0.00    -0.058 SA
BRANCH  15  16
ATOM     16  C   UNL d   1      59.465  -1.900  28.827  0.00  0.00     0.141 A 
ATOM     17  N   UNL d   1      59.139  -2.629  28.588  0.00  0.00    -0.232 NA
ATOM     18  C   UNL d   1      59.743  -3.203  28.626  0.00  0.00     0.088 A 
ATOM     19  C   UNL d   1      59.746  -4.004  28.457  0.00  0.00     0.020 A 
ATOM     20  C   UNL d   1      60.434  -2.835  28.885  0.00  0.00     0.049 A 
ATOM     21  C   UNL d   1      60.434  -4.450  28.544  0.00  0.00     0.002 A 
ATOM     22  C   UNL d   1      61.133  -4.074  28.807  0.00  0.00     0.001 A 
ATOM     23  C   UNL d   1      61.131  -3.267  28.977  0.00  0.00     0.008 A 
ATOM     24  S   UNL d   1      60.264  -2.025  29.011  0.00  0.00    -0.060 SA
ENDBRANCH  15  16
ENDBRANCH  14  15
ENDBRANCH   1  14
TORSDOF 6
ENDMDL
MODEL 2
REMARK VINA RESULT:      -3.6      1.036      5.945
REMARK  6 active torsions:
REMARK  status: ('A' for Active; 'I' for Inactive)
REMARK    1  A    between atoms: S_12  and  C_1 
REMARK    2  A    between atoms: C_2  and  S_11 
REMARK    3  A    between atoms: S_11  and  C_15 
REMARK    4  A    between atoms: C_16  and  S_12 
REMARK    5  A    between atoms: C_13  and  C_16 
REMARK    6  A    between atoms: C_15  and  C_13 
ROOT
ATOM      1  C   UNL d   1      57.574   0.439  30.662  0.00  0.00     0.209 C 
ATOM      2  O   UNL d   1      57.062   0.682  30.049  0.00  0.00    -0.285 OA
ENDROOT
BRANCH   1   3
ATOM      3  C   UNL d   1      58.254  -0.002  30.478  0.00  0.00     0.080 C 
BRANCH   3   4
ATOM      4  S   UNL d   1      58.607   0.055  29.731  0.00  0.00    -0.058 SA
BRANCH   4   5
ATOM      5  C   UNL d   1      59.105  -0.541  29.458  0.00  0.00     0.141 A 
ATOM      6  N   UNL d   1      58.924  -1.350  29.400  0.00  0.00    -0.232 NA
ATOM      7  C   UNL d   1      59.587  -1.741  29.099  0.00  0.00     0.088 A 
ATOM      8  C   UNL d   1      59.724  -2.536  28.926  0.00  0.00     0.020 A 
ATOM      9  C   UNL d   1      60.188  -1.178  28.966  0.00  0.00     0.049 A 
ATOM     10  C   UNL d   1      60.451  -2.780  28.624  0.00  0.00     0.002 A 
ATOM     11  C   UNL d   1      61.052  -2.217  28.492  0.00  0.00     0.001 A 
ATOM     12  C   UNL d   1      60.914  -1.418  28.665  0.00  0.00     0.008 A 
ATOM     13  S   UNL d   1      59.892  -0.436  29.188  0.00  0.00    -0.060 SA
ENDBRANCH   4   5
ENDBRANCH   3   4
ENDBRANCH   1   3
BRANCH   1  14
ATOM     14  C   UNL d   1      57.402   0.637  31.442  0.00  0.00     0.080 C 
BRANCH  14  15
ATOM     15  S   UNL d   1      57.245   0.046  32.000  0.00  0.00    -0.058 SA
BRANCH  15  16
ATOM     16  C   UNL d   1      56.709   0.180  32.611  0.00  0.00     0.141 A 
ATOM     17  N   UNL d   1      55.878   0.165  32.549  0.00  0.00    -0.232 NA
ATOM     18  C   UNL d   1      55.563   0.331  33.302  0.00  0.00     0.088 A 
ATOM     19  C   UNL d   1      54.791   0.389  33.570  0.00  0.00     0.020 A 
ATOM     20  C   UNL d   1      56.189   0.448  33.825  0.00  0.00     0.049 A 
ATOM     21  C   UNL d   1      54.632   0.564  34.360  0.00  0.00     0.002 A 
ATOM     22  C   UNL d   1      55.270   0.682  34.888  0.00  0.00     0.001 A 
ATOM     23  C   UNL d   1      56.046   0.624  34.619  0.00  0.00     0.008 A 
ATOM     24  S   UNL d   1      56.903   0.355  33.398  0.00  0.00    -0.060 SA
ENDBRANCH  15  16
ENDBRANCH  14  15
ENDBRANCH   1  14
TORSDOF 6
ENDMDL
MODEL 3
REMARK VINA RESULT:      -1.8      0.857      5.699
REMARK  6 active torsions:
REMARK  status: ('A' for Active; 'I' for Inactive)
REMARK    1  A    between atoms: S_12  and  C_1 
REMARK    2  A    between atoms: C_2  and  S_11 
REMARK    3  A    between atoms: S_11  and  C_15 
REMARK    4  A    between atoms: C_16  and  S_12 
REMARK    5  A    between atoms: C_13  and  C_16 
REMARK    6  A    between atoms: C_15  and  C_13 
ROOT
ATOM      1  C   UNL d   1      58.184  -0.035  29.955  0.00  0.00     0.209 C 
ATOM      2  O   UNL d   1      58.610   0.682  29.917  0.00  0.00    -0.285 OA
ENDROOT
BRANCH   1   3
ATOM      3  C   UNL d   1      58.409  -0.672  29.471  0.00  0.00     0.080 C 
BRANCH   3   4
ATOM      4  S   UNL d   1      58.315  -1.453  29.728  0.00  0.00    -0.058 SA
BRANCH   4   5
ATOM      5  C   UNL d   1      58.822  -2.044  29.460  0.00  0.00     0.141 A 
ATOM      6  N   UNL d   1      59.653  -2.027  29.472  0.00  0.00    -0.232 NA
ATOM      7  C   UNL d   1      59.930  -2.736  29.149  0.00  0.00     0.088 A 
ATOM      8  C   UNL d   1      60.694  -3.020  29.023  0.00  0.00     0.020 A 
ATOM      9  C   UNL d   1      59.272  -3.202  28.933  0.00  0.00     0.049 A 
ATOM     10  C   UNL d   1      60.814  -3.762  28.684  0.00  0.00     0.002 A 
ATOM     11  C   UNL d   1      60.157  -4.227  28.468  0.00  0.00     0.001 A 
ATOM     12  C   UNL d   1      59.389  -3.942  28.595  0.00  0.00     0.008 A 
ATOM     13  S   UNL d   1      58.588  -2.776  29.125  0.00  0.00    -0.060 SA
ENDBRANCH   4   5
ENDBRANCH   3   4
ENDBRANCH   1   3
BRANCH   1  14
ATOM     14  C   UNL d   1      57.545  -0.106  30.470  0.00  0.00     0.080 C 
BRANCH  14  15
ATOM     15  S   UNL d   1      57.570   0.247  31.219  0.00  0.00    -0.058 SA
BRANCH  15  16
ATOM     16  C   UNL d   1      56.966   0.113  31.763  0.00  0.00     0.141 A 
ATOM     17  N   UNL d   1      56.428   0.681  32.051  0.00  0.00    -0.232 NA
ATOM     18  C   UNL d   1      55.917   0.300  32.588  0.00  0.00     0.088 A 
ATOM     19  C   UNL d   1      55.289   0.577  33.034  0.00  0.00     0.020 A 
ATOM     20  C   UNL d   1      56.135  -0.494  32.633  0.00  0.00     0.049 A 
ATOM     21  C   UNL d   1      54.870   0.070  33.531  0.00  0.00     0.002 A 
ATOM     22  C   UNL d   1      55.093  -0.735  33.574  0.00  0.00     0.001 A 
ATOM     23  C   UNL d   1      55.725  -1.015  33.125  0.00  0.00     0.008 A 
ATOM     24  S   UNL d   1      56.786  -0.613  32.121  0.00  0.00    -0.060 SA
ENDBRANCH  15  16
ENDBRANCH  14  15
ENDBRANCH   1  14
TORSDOF 6
ENDMDL
