MODEL 1
REMARK VINA RESULT:      -2.7      0.000      0.000
REMARK  4 active torsions:
REMARK  status: ('A' for Active; 'I' for Inactive)
REMARK    1  A    between atoms: C_6  and  C_1 
REMARK    2  A    between atoms: C_8  and  N_3 
REMARK    3  A    between atoms: C_7  and  C_4 
REMARK    4  A    between atoms: O_16  and  C_13 
ROOT
ATOM      1  C   UNL d   1      32.501  22.176 -21.209  0.00  0.00     0.103 A 
ATOM      2  N   UNL d   1      33.206  23.409 -21.361  0.00  0.00    -0.165 NA
ATOM      3  N   UNL d   1      32.849  22.654 -22.510  0.00  0.00    -0.228 N 
ATOM      4  C   UNL d   1      32.858  22.843 -20.881  0.00  0.00     0.109 A 
ATOM      5  C   UNL d   1      32.501  22.088 -22.030  0.00  0.00     0.108 A 
ENDROOT
BRANCH   4   6
ATOM      6  C   UNL d   1      32.862  22.938 -20.065  0.00  0.00     0.020 A 
ATOM      7  C   UNL d   1      33.234  22.377 -19.586  0.00  0.00     0.004 A 
ATOM      8  C   UNL d   1      33.238  22.474 -18.760  0.00  0.00     0.024 A 
ATOM      9  C   UNL d   1      32.872  23.129 -18.423  0.00  0.00     0.094 A 
ATOM     10  C   UNL d   1      32.499  23.691 -18.902  0.00  0.00     0.024 A 
ATOM     11  C   UNL d   1      32.495  23.593 -19.728  0.00  0.00     0.004 A 
BRANCH   9  12
ATOM     12  O   UNL d   1      32.875  23.231 -17.574  0.00  0.00    -0.328 OA
ATOM     13  C   UNL d   1      32.152  23.407 -17.170  0.00  0.00     0.181 C 
ENDBRANCH   9  12
ENDBRANCH   4   6
BRANCH   1  14
ATOM     14  C   UNL d   1      32.152  21.609 -20.728  0.00  0.00     0.214 C 
ATOM     15  O   UNL d   1      32.565  20.927 -20.516  0.00  0.00    -0.644 OA
ATOM     16  O   UNL d   1      31.351  21.722 -20.440  0.00  0.00    -0.644 OA
ENDBRANCH   1  14
BRANCH   3  17
ATOM     17  C   UNL d   1      32.950  22.747 -23.324  0.00  0.00     0.083 A 
ATOM     18  C   UNL d   1      33.107  22.093 -23.798  0.00  0.00     0.019 A 
ATOM     19  C   UNL d   1      33.209  22.187 -24.612  0.00  0.00     0.002 A 
ATOM     20  C   UNL d   1      33.153  22.935 -24.950  0.00  0.00     0.000 A 
ATOM     21  C   UNL d   1      32.996  23.589 -24.476  0.00  0.00     0.002 A 
ATOM     22  C   UNL d   1      32.895  23.495 -23.663  0.00  0.00     0.019 A 
ENDBRANCH   3  17
TORSDOF 4
ENDMDL
MODEL 2
REMARK VINA RESULT:      -1.7      3.893      5.877
REMARK  4 active torsions:
REMARK  status: ('A' for Active; 'I' for Inactive)
REMARK    1  A    between atoms: C_6  and  C_1 
REMARK    2  A    between atoms: C_8  and  N_3 
REMARK    3  A    between atoms: C_7  and  C_4 
REMARK    4  A    between atoms: O_16  and  C_13 
ROOT
ATOM      1  C   UNL d   1      32.599  19.389 -23.344  0.00  0.00     0.103 A 
ATOM      2  N   UNL d   1      32.706  18.779 -22.057  0.00  0.00    -0.165 NA
ATOM      3  N   UNL d   1      32.743  20.194 -22.172  0.00  0.00    -0.228 N 
ATOM      4  C   UNL d   1      32.623  18.714 -22.870  0.00  0.00     0.109 A 
ATOM      5  C   UNL d   1      32.660  20.130 -22.985  0.00  0.00     0.108 A 
ENDROOT
BRANCH   4   6
ATOM      6  C   UNL d   1      32.563  17.974 -23.219  0.00  0.00     0.020 A 
ATOM      7  C   UNL d   1      31.823  17.683 -23.446  0.00  0.00     0.004 A 
ATOM      8  C   UNL d   1      31.763  16.933 -23.799  0.00  0.00     0.024 A 
ATOM      9  C   UNL d   1      32.440  16.482 -23.921  0.00  0.00     0.094 A 
ATOM     10  C   UNL d   1      33.180  16.773 -23.694  0.00  0.00     0.024 A 
ATOM     11  C   UNL d   1      33.240  17.523 -23.341  0.00  0.00     0.004 A 
BRANCH   9  12
ATOM     12  O   UNL d   1      32.381  15.711 -24.284  0.00  0.00    -0.328 OA
ATOM     13  C   UNL d   1      32.608  15.609 -25.093  0.00  0.00     0.181 C 
ENDBRANCH   9  12
ENDBRANCH   4   6
BRANCH   1  14
ATOM     14  C   UNL d   1      32.515  19.325 -24.158  0.00  0.00     0.214 C 
ATOM     15  O   UNL d   1      33.178  19.254 -24.644  0.00  0.00    -0.644 OA
ATOM     16  O   UNL d   1      31.733  19.331 -24.513  0.00  0.00    -0.644 OA
ENDBRANCH   1  14
BRANCH   3  17
ATOM     17  C   UNL d   1      32.818  20.821 -21.640  0.00  0.00     0.083 A 
ATOM     18  C   UNL d   1      32.611  21.584 -21.869  0.00  0.00     0.019 A 
ATOM     19  C   UNL d   1      32.686  22.210 -21.337  0.00  0.00     0.002 A 
ATOM     20  C   UNL d   1      32.968  22.072 -20.576  0.00  0.00     0.000 A 
ATOM     21  C   UNL d   1      33.175  21.310 -20.347  0.00  0.00     0.002 A 
ATOM     22  C   UNL d   1      33.100  20.684 -20.879  0.00  0.00     0.019 A 
ENDBRANCH   3  17
TORSDOF 4
ENDMDL
MODEL 3
REMARK VINA RESULT:      -1.3      1.828      2.288
REMARK  4 active torsions:
REMARK  status: ('A' for Active; 'I' for Inactive)
REMARK    1  A    between atoms: C_6  and  C_1 
REMARK    2  A    between atoms: C_8  and  N_3 
REMARK    3  A    between atoms: C_7  and  C_4 
REMARK    4  A    between atoms: O_16  and  C_13 
ROOT
ATOM      1  C   UNL d   1      32.612  21.887 -21.331  0.00  0.00     0.103 A 
ATOM      2  N   UNL d   1      33.240  20.876 -20.541  0.00  0.00    -0.165 NA
ATOM      3  N   UNL d   1      32.919  20.612 -21.899  0.00  0.00    -0.228 N 
ATOM      4  C   UNL d   1      32.931  21.632 -20.614  0.00  0.00     0.109 A 
ATOM      5  C   UNL d   1      32.609  21.368 -21.973  0.00  0.00     0.108 A 
ENDROOT
BRANCH   4   6
ATOM      6  C   UNL d   1      32.937  22.141 -19.971  0.00  0.00     0.020 A 
ATOM      7  C   UNL d   1      32.768  21.854 -19.214  0.00  0.00     0.004 A 
ATOM      8  C   UNL d   1      32.775  22.371 -18.563  0.00  0.00     0.024 A 
ATOM      9  C   UNL d   1      32.950  23.168 -18.674  0.00  0.00     0.094 A 
ATOM     10  C   UNL d   1      33.118  23.455 -19.431  0.00  0.00     0.024 A 
ATOM     11  C   UNL d   1      33.112  22.938 -20.082  0.00  0.00     0.004 A 
BRANCH   9  12
ATOM     12  O   UNL d   1      32.957  23.701 -18.007  0.00  0.00    -0.328 OA
ATOM     13  C   UNL d   1      32.652  23.444 -17.261  0.00  0.00     0.181 C 
ENDBRANCH   9  12
ENDBRANCH   4   6
BRANCH   1  14
ATOM     14  C   UNL d   1      32.302  22.644 -21.404  0.00  0.00     0.214 C 
ATOM     15  O   UNL d   1      32.764  23.260 -21.700  0.00  0.00    -0.644 OA
ATOM     16  O   UNL d   1      31.490  22.802 -21.172  0.00  0.00    -0.644 OA
ENDBRANCH   1  14
BRANCH   3  17
ATOM     17  C   UNL d   1      33.007  19.966 -22.405  0.00  0.00     0.083 A 
ATOM     18  C   UNL d   1      33.149  19.217 -22.096  0.00  0.00     0.019 A 
ATOM     19  C   UNL d   1      33.238  18.570 -22.602  0.00  0.00     0.002 A 
ATOM     20  C   UNL d   1      33.183  18.675 -23.416  0.00  0.00     0.000 A 
ATOM     21  C   UNL d   1      33.041  19.424 -23.725  0.00  0.00     0.002 A 
ATOM     22  C   UNL d   1      32.953  20.069 -23.220  0.00  0.00     0.019 A 
ENDBRANCH   3  17
TORSDOF 4
ENDMDL
MODEL 4
REMARK VINA RESULT:      -0.3      2.375      2.970
REMARK  4 active torsions:
REMARK  status: ('A' for Active; 'I' for Inactive)
REMARK    1  A    between atoms: C_6  and  C_1 
REMARK    2  A    between atoms: C_8  and  N_3 
REMARK    3  A    between atoms: C_7  and  C_4 
REMARK    4  A    between atoms: O_16  and  C_13 
ROOT
ATOM      1  C   UNL d   1      32.737  21.207 -22.481  0.00  0.00     0.103 A 
ATOM      2  N   UNL d   1      32.908  20.178 -21.504  0.00  0.00    -0.165 NA
ATOM      3  N   UNL d   1      32.897  19.846 -22.886  0.00  0.00    -0.228 N 
ATOM      4  C   UNL d   1      32.798  20.969 -21.694  0.00  0.00     0.109 A 
ATOM      5  C   UNL d   1      32.788  20.636 -23.075  0.00  0.00     0.108 A 
ENDROOT
BRANCH   4   6
ATOM      6  C   UNL d   1      32.749  21.530 -21.097  0.00  0.00     0.020 A 
ATOM      7  C   UNL d   1      33.241  22.195 -21.114  0.00  0.00     0.004 A 
ATOM      8  C   UNL d   1      33.190  22.763 -20.509  0.00  0.00     0.024 A 
ATOM      9  C   UNL d   1      32.650  22.662 -19.896  0.00  0.00     0.094 A 
ATOM     10  C   UNL d   1      32.158  21.998 -19.880  0.00  0.00     0.024 A 
ATOM     11  C   UNL d   1      32.209  21.430 -20.485  0.00  0.00     0.004 A 
BRANCH   9  12
ATOM     12  O   UNL d   1      32.596  23.245 -19.274  0.00  0.00    -0.328 OA
ATOM     13  C   UNL d   1      33.029  23.134 -18.556  0.00  0.00     0.181 C 
ENDBRANCH   9  12
ENDBRANCH   4   6
BRANCH   1  14
ATOM     14  C   UNL d   1      32.628  21.998 -22.671  0.00  0.00     0.214 C 
ATOM     15  O   UNL d   1      33.240  22.439 -23.006  0.00  0.00    -0.644 OA
ATOM     16  O   UNL d   1      31.871  22.377 -22.522  0.00  0.00    -0.644 OA
ENDBRANCH   1  14
BRANCH   3  17
ATOM     17  C   UNL d   1      32.971  19.146 -23.317  0.00  0.00     0.083 A 
ATOM     18  C   UNL d   1      33.082  18.430 -22.928  0.00  0.00     0.019 A 
ATOM     19  C   UNL d   1      33.156  17.731 -23.361  0.00  0.00     0.002 A 
ATOM     20  C   UNL d   1      33.118  17.749 -24.183  0.00  0.00     0.000 A 
ATOM     21  C   UNL d   1      33.007  18.465 -24.572  0.00  0.00     0.002 A 
ATOM     22  C   UNL d   1      32.933  19.164 -24.140  0.00  0.00     0.019 A 
ENDBRANCH   3  17
TORSDOF 4
ENDMDL
MODEL 5
REMARK VINA RESULT:       0.2      1.724      2.273
REMARK  4 active torsions:
REMARK  status: ('A' for Active; 'I' for Inactive)
REMARK    1  A    between atoms: C_6  and  C_1 
REMARK    2  A    between atoms: C_8  and  N_3 
REMARK    3  A    between atoms: C_7  and  C_4 
REMARK    4  A    between atoms: O_16  and  C_13 
ROOT
ATOM      1  C   UNL d   1      32.473  20.703 -21.466  0.00  0.00     0.103 A 
ATOM      2  N   UNL d   1      33.240  21.582 -22.291  0.00  0.00    -0.165 NA
ATOM      3  N   UNL d   1      32.867  20.301 -22.780  0.00  0.00    -0.228 N 
ATOM      4  C   UNL d   1      32.856  21.424 -21.584  0.00  0.00     0.109 A 
ATOM      5  C   UNL d   1      32.483  20.143 -22.073  0.00  0.00     0.108 A 
ENDROOT
BRANCH   4   6
ATOM      6  C   UNL d   1      32.850  21.986 -20.986  0.00  0.00     0.020 A 
ATOM      7  C   UNL d   1      32.599  22.758 -21.147  0.00  0.00     0.004 A 
ATOM      8  C   UNL d   1      32.594  23.326 -20.540  0.00  0.00     0.024 A 
ATOM      9  C   UNL d   1      32.838  23.119 -19.782  0.00  0.00     0.094 A 
ATOM     10  C   UNL d   1      33.089  22.348 -19.621  0.00  0.00     0.024 A 
ATOM     11  C   UNL d   1      33.094  21.780 -20.228  0.00  0.00     0.004 A 
BRANCH   9  12
ATOM     12  O   UNL d   1      32.833  23.702 -19.157  0.00  0.00    -0.328 OA
ATOM     13  C   UNL d   1      33.187  23.520 -18.410  0.00  0.00     0.181 C 
ENDBRANCH   9  12
ENDBRANCH   4   6
BRANCH   1  14
ATOM     14  C   UNL d   1      32.088  20.545 -20.759  0.00  0.00     0.214 C 
ATOM     15  O   UNL d   1      32.505  20.252 -20.110  0.00  0.00    -0.644 OA
ATOM     16  O   UNL d   1      31.243  20.684 -20.687  0.00  0.00    -0.644 OA
ENDBRANCH   1  14
BRANCH   3  17
ATOM     17  C   UNL d   1      32.988  19.888 -23.484  0.00  0.00     0.083 A 
ATOM     18  C   UNL d   1      33.064  19.069 -23.474  0.00  0.00     0.019 A 
ATOM     19  C   UNL d   1      33.185  18.656 -24.179  0.00  0.00     0.002 A 
ATOM     20  C   UNL d   1      33.229  19.064 -24.893  0.00  0.00     0.000 A 
ATOM     21  C   UNL d   1      33.154  19.884 -24.903  0.00  0.00     0.002 A 
ATOM     22  C   UNL d   1      33.033  20.296 -24.199  0.00  0.00     0.019 A 
ENDBRANCH   3  17
TORSDOF 4
ENDMDL
