MODEL 1
REMARK VINA RESULT:      36.8      0.000      0.000
REMARK  4 active torsions:
REMARK  status: ('A' for Active; 'I' for Inactive)
REMARK    1  A    between atoms: C_9  and  C_3 
REMARK    2  A    between atoms: C_11  and  C_7 
REMARK    3  A    between atoms: O_22  and  C_16 
REMARK    4  A    between atoms: O_23  and  C_17 
ROOT
ATOM      1  N   UNL d   1      46.298 -19.065  43.285  0.00  0.00    -0.186 N 
ATOM      2  N   UNL d   1      46.117 -18.272  43.465  0.00  0.00    -0.162 NA
ATOM      3  C   UNL d   1      46.335 -19.472  42.584  0.00  0.00     0.187 A 
ATOM      4  C   UNL d   1      46.482 -19.589  43.893  0.00  0.00     0.217 A 
ATOM      5  N   UNL d   1      46.541 -20.245  42.739  0.00  0.00    -0.127 NA
ATOM      6  N   UNL d   1      46.632 -20.321  43.540  0.00  0.00    -0.120 NA
ATOM      7  C   UNL d   1      46.124 -18.016  44.247  0.00  0.00     0.108 A 
ATOM      8  S   UNL d   1      46.485 -19.319  44.669  0.00  0.00    -0.045 SA
ATOM      9  C   UNL d   1      46.308 -18.538  44.861  0.00  0.00     0.059 A 
ENDROOT
BRANCH   3  10
ATOM     10  C   UNL d   1      46.184 -19.131  41.844  0.00  0.00     0.038 A 
ATOM     11  C   UNL d   1      45.783 -19.557  41.279  0.00  0.00     0.005 A 
ATOM     12  C   UNL d   1      45.632 -19.215  40.540  0.00  0.00     0.024 A 
ATOM     13  C   UNL d   1      45.892 -18.448  40.389  0.00  0.00     0.094 A 
ATOM     14  C   UNL d   1      46.296 -18.020  40.958  0.00  0.00     0.024 A 
ATOM     15  C   UNL d   1      46.443 -18.364  41.690  0.00  0.00     0.005 A 
BRANCH  13  16
ATOM     16  O   UNL d   1      45.751 -18.085  39.652  0.00  0.00    -0.328 OA
ATOM     17  C   UNL d   1      46.045 -17.313  39.497  0.00  0.00     0.181 C 
ENDBRANCH  13  16
ENDBRANCH   3  10
BRANCH   7  18
ATOM     18  C   UNL d   1      45.945 -17.233  44.421  0.00  0.00     0.020 A 
ATOM     19  C   UNL d   1      45.200 -16.926  44.241  0.00  0.00     0.004 A 
ATOM     20  C   UNL d   1      45.008 -16.142  44.411  0.00  0.00     0.024 A 
ATOM     21  C   UNL d   1      45.581 -15.650  44.771  0.00  0.00     0.094 A 
ATOM     22  C   UNL d   1      46.314 -15.944  44.950  0.00  0.00     0.024 A 
ATOM     23  C   UNL d   1      46.505 -16.740  44.776  0.00  0.00     0.004 A 
BRANCH  21  24
ATOM     24  O   UNL d   1      45.391 -14.862  44.942  0.00  0.00    -0.328 OA
ATOM     25  C   UNL d   1      45.374 -14.299  44.331  0.00  0.00     0.181 C 
ENDBRANCH  21  24
ENDBRANCH   7  18
TORSDOF 4
ENDMDL
MODEL 2
REMARK VINA RESULT:      38.8      0.787      4.035
REMARK  4 active torsions:
REMARK  status: ('A' for Active; 'I' for Inactive)
REMARK    1  A    between atoms: C_9  and  C_3 
REMARK    2  A    between atoms: C_11  and  C_7 
REMARK    3  A    between atoms: O_22  and  C_16 
REMARK    4  A    between atoms: O_23  and  C_17 
ROOT
ATOM      1  N   UNL d   1      46.274 -18.623  43.658  0.00  0.00    -0.186 N 
ATOM      2  N   UNL d   1      46.113 -18.347  42.888  0.00  0.00    -0.162 NA
ATOM      3  C   UNL d   1      46.234 -18.267  44.387  0.00  0.00     0.187 A 
ATOM      4  C   UNL d   1      46.528 -19.398  43.768  0.00  0.00     0.217 A 
ATOM      5  N   UNL d   1      46.459 -18.805  44.955  0.00  0.00    -0.127 NA
ATOM      6  N   UNL d   1      46.640 -19.501  44.580  0.00  0.00    -0.120 NA
ATOM      7  C   UNL d   1      46.207 -18.849  42.244  0.00  0.00     0.108 A 
ATOM      8  S   UNL d   1      46.617 -19.888  43.114  0.00  0.00    -0.045 SA
ATOM      9  C   UNL d   1      46.461 -19.628  42.349  0.00  0.00     0.059 A 
ENDROOT
BRANCH   3  10
ATOM     10  C   UNL d   1      46.000 -17.481  44.503  0.00  0.00     0.038 A 
ATOM     11  C   UNL d   1      46.550 -16.885  44.449  0.00  0.00     0.005 A 
ATOM     12  C   UNL d   1      46.316 -16.099  44.566  0.00  0.00     0.024 A 
ATOM     13  C   UNL d   1      45.525 -15.935  44.735  0.00  0.00     0.094 A 
ATOM     14  C   UNL d   1      44.972 -16.536  44.789  0.00  0.00     0.024 A 
ATOM     15  C   UNL d   1      45.211 -17.314  44.672  0.00  0.00     0.005 A 
BRANCH  13  16
ATOM     16  O   UNL d   1      45.267 -15.151  44.856  0.00  0.00    -0.328 OA
ATOM     17  C   UNL d   1      45.681 -14.511  44.503  0.00  0.00     0.181 C 
ENDBRANCH  13  16
ENDBRANCH   3  10
BRANCH   7  18
ATOM     18  C   UNL d   1      46.046 -18.574  41.487  0.00  0.00     0.020 A 
ATOM     19  C   UNL d   1      46.647 -18.536  40.921  0.00  0.00     0.004 A 
ATOM     20  C   UNL d   1      46.498 -18.261  40.157  0.00  0.00     0.024 A 
ATOM     21  C   UNL d   1      45.725 -18.017  39.954  0.00  0.00     0.094 A 
ATOM     22  C   UNL d   1      45.130 -18.051  40.503  0.00  0.00     0.024 A 
ATOM     23  C   UNL d   1      45.285 -18.331  41.277  0.00  0.00     0.004 A 
BRANCH  21  24
ATOM     24  O   UNL d   1      45.574 -17.741  39.188  0.00  0.00    -0.328 OA
ATOM     25  C   UNL d   1      44.964 -17.192  39.059  0.00  0.00     0.181 C 
ENDBRANCH  21  24
ENDBRANCH   7  18
TORSDOF 4
ENDMDL
