MODEL 1
REMARK VINA RESULT:      -3.5      0.000      0.000
REMARK  6 active torsions:
REMARK  status: ('A' for Active; 'I' for Inactive)
REMARK    1  A    between atoms: C_7  and  N_1 
REMARK    2  A    between atoms: C_9  and  C_7 
REMARK    3  A    between atoms: C_10  and  C_9 
REMARK       I    between atoms: N_13  and  C_10 
REMARK    4  A    between atoms: C_15  and  N_13 
REMARK    5  A    between atoms: C_18  and  C_15 
REMARK    6  A    between atoms: C_17  and  C_18 
ROOT
ATOM      1  C   UNL d   1      31.961  18.017 -24.397  0.00  0.00     0.090 C 
ENDROOT
BRANCH   1   2
ATOM      2  N   UNL d   1      31.454  17.370 -24.527  0.00  0.00    -0.249 N 
ATOM      3  C   UNL d   1      31.762  16.653 -24.769  0.00  0.00     0.208 A 
ATOM      4  N   UNL d   1      31.268  16.006 -24.901  0.00  0.00    -0.218 NA
ATOM      5  S   UNL d   1      32.576  16.568 -24.887  0.00  0.00    -0.038 SA
ATOM      6  C   UNL d   1      30.452  16.095 -24.783  0.00  0.00     0.088 A 
ATOM      7  C   UNL d   1      30.143  16.817 -24.538  0.00  0.00     0.074 A 
ATOM      8  C   UNL d   1      29.951  15.453 -24.912  0.00  0.00     0.019 A 
ATOM      9  C   UNL d   1      30.645  17.458 -24.409  0.00  0.00     0.268 A 
ATOM     10  C   UNL d   1      29.330  16.900 -24.422  0.00  0.00     0.006 A 
ATOM     11  O   UNL d   1      30.336  18.182 -24.165  0.00  0.00    -0.267 OA
ATOM     12  C   UNL d   1      28.827  16.259 -24.551  0.00  0.00     0.000 A 
ATOM     13  C   UNL d   1      29.132  15.538 -24.794  0.00  0.00     0.002 A 
ENDBRANCH   1   2
BRANCH   1  14
ATOM     14  C   UNL d   1      32.326  18.106 -23.667  0.00  0.00     0.082 C 
BRANCH  14  15
ATOM     15  C   UNL d   1      32.678  18.828 -23.463  0.00  0.00     0.281 C 
ATOM     16  O   UNL d   1      33.031  19.283 -24.049  0.00  0.00    -0.265 OA
ATOM     17  N   UNL d   1      32.669  19.077 -22.681  0.00  0.00    -0.206 NA
BRANCH  17  18
ATOM     18  C   UNL d   1      33.024  19.806 -22.475  0.00  0.00     0.102 C 
BRANCH  18  19
ATOM     19  C   UNL d   1      33.003  20.078 -21.704  0.00  0.00     0.021 C 
BRANCH  19  20
ATOM     20  C   UNL d   1      32.862  20.856 -21.546  0.00  0.00     0.002 A 
ATOM     21  C   UNL d   1      32.349  21.082 -20.932  0.00  0.00     0.000 A 
ATOM     22  C   UNL d   1      32.204  21.879 -20.769  0.00  0.00     0.000 A 
ATOM     23  C   UNL d   1      32.561  22.477 -21.208  0.00  0.00     0.000 A 
ATOM     24  C   UNL d   1      33.075  22.250 -21.823  0.00  0.00     0.000 A 
ATOM     25  C   UNL d   1      33.227  21.452 -21.995  0.00  0.00     0.000 A 
ENDBRANCH  19  20
ENDBRANCH  18  19
ENDBRANCH  17  18
ENDBRANCH  14  15
ENDBRANCH   1  14
TORSDOF 6
ENDMDL
MODEL 2
REMARK VINA RESULT:      -2.3      1.965      2.432
REMARK  6 active torsions:
REMARK  status: ('A' for Active; 'I' for Inactive)
REMARK    1  A    between atoms: C_7  and  N_1 
REMARK    2  A    between atoms: C_9  and  C_7 
REMARK    3  A    between atoms: C_10  and  C_9 
REMARK       I    between atoms: N_13  and  C_10 
REMARK    4  A    between atoms: C_15  and  N_13 
REMARK    5  A    between atoms: C_18  and  C_15 
REMARK    6  A    between atoms: C_17  and  C_18 
ROOT
ATOM      1  C   UNL d   1      32.502  18.895 -23.027  0.00  0.00     0.090 C 
ENDROOT
BRANCH   1   2
ATOM      2  N   UNL d   1      32.536  18.248 -23.549  0.00  0.00    -0.249 N 
ATOM      3  C   UNL d   1      32.315  18.342 -24.330  0.00  0.00     0.208 A 
ATOM      4  N   UNL d   1      32.345  17.707 -24.856  0.00  0.00    -0.218 NA
ATOM      5  S   UNL d   1      32.059  19.079 -24.604  0.00  0.00    -0.038 SA
ATOM      6  C   UNL d   1      32.602  16.970 -24.578  0.00  0.00     0.088 A 
ATOM      7  C   UNL d   1      32.824  16.875 -23.791  0.00  0.00     0.074 A 
ATOM      8  C   UNL d   1      32.635  16.329 -25.096  0.00  0.00     0.019 A 
ATOM      9  C   UNL d   1      32.791  17.516 -23.273  0.00  0.00     0.268 A 
ATOM     10  C   UNL d   1      33.080  16.139 -23.519  0.00  0.00     0.006 A 
ATOM     11  O   UNL d   1      33.013  17.423 -22.485  0.00  0.00    -0.267 OA
ATOM     12  C   UNL d   1      33.113  15.497 -24.037  0.00  0.00     0.000 A 
ATOM     13  C   UNL d   1      32.893  15.588 -24.821  0.00  0.00     0.002 A 
ENDBRANCH   1   2
BRANCH   1  14
ATOM     14  C   UNL d   1      33.193  19.291 -22.828  0.00  0.00     0.082 C 
BRANCH  14  15
ATOM     15  C   UNL d   1      33.182  19.878 -22.243  0.00  0.00     0.281 C 
ATOM     16  O   UNL d   1      33.115  19.658 -21.454  0.00  0.00    -0.265 OA
ATOM     17  N   UNL d   1      33.238  20.667 -22.460  0.00  0.00    -0.206 NA
BRANCH  17  18
ATOM     18  C   UNL d   1      33.227  21.260 -21.869  0.00  0.00     0.102 C 
BRANCH  18  19
ATOM     19  C   UNL d   1      33.062  22.038 -22.061  0.00  0.00     0.021 C 
BRANCH  19  20
ATOM     20  C   UNL d   1      32.790  22.551 -21.502  0.00  0.00     0.002 A 
ATOM     21  C   UNL d   1      32.218  23.124 -21.690  0.00  0.00     0.000 A 
ATOM     22  C   UNL d   1      31.939  23.651 -21.116  0.00  0.00     0.000 A 
ATOM     23  C   UNL d   1      32.217  23.627 -20.342  0.00  0.00     0.000 A 
ATOM     24  C   UNL d   1      32.790  23.053 -20.156  0.00  0.00     0.000 A 
ATOM     25  C   UNL d   1      33.077  22.519 -20.723  0.00  0.00     0.000 A 
ENDBRANCH  19  20
ENDBRANCH  18  19
ENDBRANCH  17  18
ENDBRANCH  14  15
ENDBRANCH   1  14
TORSDOF 6
ENDMDL
MODEL 3
REMARK VINA RESULT:      -2.2      1.059      1.408
REMARK  6 active torsions:
REMARK  status: ('A' for Active; 'I' for Inactive)
REMARK    1  A    between atoms: C_7  and  N_1 
REMARK    2  A    between atoms: C_9  and  C_7 
REMARK    3  A    between atoms: C_10  and  C_9 
REMARK       I    between atoms: N_13  and  C_10 
REMARK    4  A    between atoms: C_15  and  N_13 
REMARK    5  A    between atoms: C_18  and  C_15 
REMARK    6  A    between atoms: C_17  and  C_18 
ROOT
ATOM      1  C   UNL d   1      31.202  17.178 -24.082  0.00  0.00     0.090 C 
ENDROOT
BRANCH   1   2
ATOM      2  N   UNL d   1      30.513  16.743 -23.913  0.00  0.00    -0.249 N 
ATOM      3  C   UNL d   1      30.572  16.000 -23.577  0.00  0.00     0.208 A 
ATOM      4  N   UNL d   1      29.895  15.561 -23.405  0.00  0.00    -0.218 NA
ATOM      5  S   UNL d   1      31.314  15.679 -23.405  0.00  0.00    -0.038 SA
ATOM      6  C   UNL d   1      29.153  15.886 -23.578  0.00  0.00     0.088 A 
ATOM      7  C   UNL d   1      29.094  16.634 -23.917  0.00  0.00     0.074 A 
ATOM      8  C   UNL d   1      28.471  15.454 -23.410  0.00  0.00     0.019 A 
ATOM      9  C   UNL d   1      29.776  17.065 -24.085  0.00  0.00     0.268 A 
ATOM     10  C   UNL d   1      28.352  16.953 -24.088  0.00  0.00     0.006 A 
ATOM     11  O   UNL d   1      29.719  17.814 -24.423  0.00  0.00    -0.267 OA
ATOM     12  C   UNL d   1      27.669  16.522 -23.920  0.00  0.00     0.000 A 
ATOM     13  C   UNL d   1      27.724  15.776 -23.583  0.00  0.00     0.002 A 
ENDBRANCH   1   2
BRANCH   1  14
ATOM     14  C   UNL d   1      31.649  17.486 -23.466  0.00  0.00     0.082 C 
BRANCH  14  15
ATOM     15  C   UNL d   1      32.067  18.194 -23.569  0.00  0.00     0.281 C 
ATOM     16  O   UNL d   1      32.155  18.502 -24.326  0.00  0.00    -0.265 OA
ATOM     17  N   UNL d   1      32.385  18.575 -22.916  0.00  0.00    -0.206 NA
BRANCH  17  18
ATOM     18  C   UNL d   1      32.808  19.290 -23.020  0.00  0.00     0.102 C 
BRANCH  18  19
ATOM     19  C   UNL d   1      33.196  19.641 -22.392  0.00  0.00     0.021 C 
BRANCH  19  20
ATOM     20  C   UNL d   1      33.111  20.429 -22.243  0.00  0.00     0.002 A 
ATOM     21  C   UNL d   1      33.240  20.993 -22.840  0.00  0.00     0.000 A 
ATOM     22  C   UNL d   1      33.152  21.801 -22.687  0.00  0.00     0.000 A 
ATOM     23  C   UNL d   1      32.935  22.075 -21.942  0.00  0.00     0.000 A 
ATOM     24  C   UNL d   1      32.806  21.508 -21.346  0.00  0.00     0.000 A 
ATOM     25  C   UNL d   1      32.891  20.695 -21.488  0.00  0.00     0.000 A 
ENDBRANCH  19  20
ENDBRANCH  18  19
ENDBRANCH  17  18
ENDBRANCH  14  15
ENDBRANCH   1  14
TORSDOF 6
ENDMDL
