MODEL 1
REMARK VINA RESULT:      80.6      0.000      0.000
REMARK  8 active torsions:
REMARK  status: ('A' for Active; 'I' for Inactive)
REMARK    1  A    between atoms: C_8  and  C_5 
REMARK    2  A    between atoms: S_22  and  C_6 
REMARK    3  A    between atoms: C_9  and  C_7 
REMARK    4  A    between atoms: C_12  and  C_9 
REMARK    5  A    between atoms: C_25  and  S_22 
REMARK    6  A    between atoms: O_24  and  C_26 
REMARK    7  A    between atoms: C_27  and  O_24 
REMARK    8  A    between atoms: C_26  and  C_25 
ROOT
ATOM      1  C   UNL d   1      59.597  49.593  51.555  0.00  0.00     0.082 A 
ATOM      2  N   UNL d   1      59.080  49.623  50.890  0.00  0.00    -0.238 NA
ATOM      3  C   UNL d   1      57.945  49.651  51.798  0.00  0.00     0.092 A 
ATOM      4  C   UNL d   1      59.280  49.594  52.316  0.00  0.00     0.019 A 
ATOM      5  C   UNL d   1      58.462  49.622  52.439  0.00  0.00     0.019 A 
ATOM      6  C   UNL d   1      58.265  49.651  51.011  0.00  0.00     0.120 A 
ATOM      7  C   UNL d   1      60.419  49.562  51.610  0.00  0.00     0.018 A 
ATOM      8  C   UNL d   1      57.109  49.679  51.934  0.00  0.00     0.103 C 
ATOM      9  N   UNL d   1      56.281  49.708  52.068  0.00  0.00    -0.191 NA
ATOM     10  C   UNL d   1      59.914  49.562  52.844  0.00  0.00     0.002 A 
ATOM     11  C   UNL d   1      60.625  49.543  52.410  0.00  0.00     0.002 A 
ENDROOT
BRANCH   5  12
ATOM     12  C   UNL d   1      58.159  49.621  53.218  0.00  0.00     0.030 A 
ATOM     13  S   UNL d   1      58.675  49.614  53.844  0.00  0.00    -0.086 SA
ATOM     14  C   UNL d   1      58.242  49.615  54.540  0.00  0.00     0.035 A 
ATOM     15  C   UNL d   1      57.452  49.623  54.323  0.00  0.00     0.007 A 
ATOM     16  C   UNL d   1      57.412  49.626  53.506  0.00  0.00     0.007 A 
ENDBRANCH   5  12
BRANCH   6  17
ATOM     17  S   UNL d   1      57.759  49.679  50.361  0.00  0.00    -0.065 SA
BRANCH  17  18
ATOM     18  C   UNL d   1      57.672  49.016  49.866  0.00  0.00     0.064 C 
BRANCH  18  19
ATOM     19  C   UNL d   1      56.923  48.842  49.512  0.00  0.00     0.130 C 
BRANCH  19  20
ATOM     20  O   UNL d   1      56.264  48.725  50.001  0.00  0.00    -0.303 OA
BRANCH  20  21
ATOM     21  C   UNL d   1      56.140  47.965  50.350  0.00  0.00     0.123 C 
ATOM     22  C   UNL d   1      56.765  47.460  50.438  0.00  0.00     0.029 C 
ENDBRANCH  20  21
ENDBRANCH  19  20
ENDBRANCH  18  19
ENDBRANCH  17  18
ENDBRANCH   6  17
BRANCH   7  23
ATOM     23  C   UNL d   1      60.977  49.552  50.972  0.00  0.00     0.008 C 
BRANCH  23  24
ATOM     24  C   UNL d   1      61.215  48.821  50.649  0.00  0.00     0.029 A 
ATOM     25  S   UNL d   1      61.474  48.133  51.001  0.00  0.00    -0.086 SA
ATOM     26  C   UNL d   1      61.630  47.593  50.392  0.00  0.00     0.035 A 
ATOM     27  C   UNL d   1      61.464  47.963  49.695  0.00  0.00     0.007 A 
ATOM     28  C   UNL d   1      61.210  48.711  49.834  0.00  0.00     0.007 A 
ENDBRANCH  23  24
ENDBRANCH   7  23
TORSDOF 8
ENDMDL
MODEL 2
REMARK VINA RESULT:      82.2      2.230      4.368
REMARK  8 active torsions:
REMARK  status: ('A' for Active; 'I' for Inactive)
REMARK    1  A    between atoms: C_8  and  C_5 
REMARK    2  A    between atoms: S_22  and  C_6 
REMARK    3  A    between atoms: C_9  and  C_7 
REMARK    4  A    between atoms: C_12  and  C_9 
REMARK    5  A    between atoms: C_25  and  S_22 
REMARK    6  A    between atoms: O_24  and  C_26 
REMARK    7  A    between atoms: C_27  and  O_24 
REMARK    8  A    between atoms: C_26  and  C_25 
ROOT
ATOM      1  C   UNL d   1      58.772  48.224  50.814  0.00  0.00     0.082 A 
ATOM      2  N   UNL d   1      58.904  47.402  50.680  0.00  0.00    -0.238 NA
ATOM      3  C   UNL d   1      60.325  47.613  50.907  0.00  0.00     0.092 A 
ATOM      4  C   UNL d   1      59.412  48.715  50.989  0.00  0.00     0.019 A 
ATOM      5  C   UNL d   1      60.181  48.414  51.036  0.00  0.00     0.019 A 
ATOM      6  C   UNL d   1      59.671  47.101  50.726  0.00  0.00     0.120 A 
ATOM      7  C   UNL d   1      58.084  48.678  50.807  0.00  0.00     0.018 A 
ATOM      8  C   UNL d   1      61.116  47.314  50.957  0.00  0.00     0.103 C 
ATOM      9  N   UNL d   1      61.900  47.019  51.006  0.00  0.00    -0.191 NA
ATOM     10  C   UNL d   1      59.113  49.477  51.090  0.00  0.00     0.002 A 
ATOM     11  C   UNL d   1      58.287  49.460  50.978  0.00  0.00     0.002 A 
ENDROOT
BRANCH   5  12
ATOM     12  C   UNL d   1      60.817  48.926  51.215  0.00  0.00     0.030 A 
ATOM     13  S   UNL d   1      60.886  49.224  51.966  0.00  0.00    -0.086 SA
ATOM     14  C   UNL d   1      61.549  49.706  51.997  0.00  0.00     0.035 A 
ATOM     15  C   UNL d   1      61.880  49.694  51.248  0.00  0.00     0.007 A 
ATOM     16  C   UNL d   1      61.421  49.210  50.773  0.00  0.00     0.007 A 
ENDBRANCH   5  12
BRANCH   6  17
ATOM     17  S   UNL d   1      59.800  46.298  50.595  0.00  0.00    -0.065 SA
BRANCH  17  18
ATOM     18  C   UNL d   1      59.986  45.793  51.230  0.00  0.00     0.064 C 
BRANCH  18  19
ATOM     19  C   UNL d   1      59.919  44.954  51.142  0.00  0.00     0.130 C 
BRANCH  19  20
ATOM     20  O   UNL d   1      60.602  44.509  50.986  0.00  0.00    -0.303 OA
BRANCH  20  21
ATOM     21  C   UNL d   1      60.754  43.815  51.445  0.00  0.00     0.123 C 
ATOM     22  C   UNL d   1      61.459  43.427  51.360  0.00  0.00     0.029 C 
ENDBRANCH  20  21
ENDBRANCH  19  20
ENDBRANCH  18  19
ENDBRANCH  17  18
ENDBRANCH   6  17
BRANCH   7  23
ATOM     23  C   UNL d   1      57.294  48.411  50.653  0.00  0.00     0.008 C 
BRANCH  23  24
ATOM     24  C   UNL d   1      56.819  48.830  50.111  0.00  0.00     0.029 A 
ATOM     25  S   UNL d   1      56.620  49.619  50.064  0.00  0.00    -0.086 SA
ATOM     26  C   UNL d   1      56.129  49.705  49.402  0.00  0.00     0.035 A 
ATOM     27  C   UNL d   1      56.044  48.975  49.069  0.00  0.00     0.007 A 
ATOM     28  C   UNL d   1      56.458  48.431  49.488  0.00  0.00     0.007 A 
ENDBRANCH  23  24
ENDBRANCH   7  23
TORSDOF 8
ENDMDL
