MODEL 1
REMARK VINA RESULT:       7.6      0.000      0.000
REMARK  1 active torsions:
REMARK  status: ('A' for Active; 'I' for Inactive)
REMARK    1  A    between atoms: C_5  and  C_1 
ROOT
ATOM      1  C   UNL d   1      13.493  12.215  -3.036  0.00  0.00     0.164 A 
ATOM      2  O   UNL d   1      12.968  11.979  -2.357  0.00  0.00    -0.301 OA
ATOM      3  C   UNL d   1      14.237  12.313  -2.732  0.00  0.00     0.033 A 
ATOM      4  C   UNL d   1      14.242  12.165  -1.935  0.00  0.00     0.025 A 
ATOM      5  C   UNL d   1      13.462  11.960  -1.704  0.00  0.00     0.100 A 
ATOM      6  C   UNL d   1      14.853  12.188  -1.375  0.00  0.00     0.009 A 
ATOM      7  C   UNL d   1      13.307  11.781  -0.918  0.00  0.00     0.025 A 
ATOM      8  C   UNL d   1      14.683  12.005  -0.586  0.00  0.00     0.035 A 
ATOM      9  C   UNL d   1      13.903  11.800  -0.356  0.00  0.00     0.009 A 
ATOM     10 BR   UNL d   1      15.295  12.028  -0.025  0.00  0.00    -0.049 Br
ENDROOT
BRANCH   1  11
ATOM     11  C   UNL d   1      13.312  12.326  -3.833  0.00  0.00     0.235 C 
ATOM     12  O   UNL d   1      12.891  12.993  -4.087  0.00  0.00    -0.642 OA
ATOM     13  O   UNL d   1      13.540  11.779  -4.418  0.00  0.00    -0.642 OA
ENDBRANCH   1  11
TORSDOF 1
ENDMDL
MODEL 2
REMARK VINA RESULT:       8.5      1.960      3.186
REMARK  1 active torsions:
REMARK  status: ('A' for Active; 'I' for Inactive)
REMARK    1  A    between atoms: C_5  and  C_1 
ROOT
ATOM      1  C   UNL d   1      14.275  12.418  -1.616  0.00  0.00     0.164 A 
ATOM      2  O   UNL d   1      14.294  13.154  -2.118  0.00  0.00    -0.301 OA
ATOM      3  C   UNL d   1      13.913  11.845  -2.059  0.00  0.00     0.033 A 
ATOM      4  C   UNL d   1      13.700  12.136  -2.785  0.00  0.00     0.025 A 
ATOM      5  C   UNL d   1      13.934  12.940  -2.821  0.00  0.00     0.100 A 
ATOM      6  C   UNL d   1      13.320  11.779  -3.430  0.00  0.00     0.009 A 
ATOM      7  C   UNL d   1      13.784  13.374  -3.502  0.00  0.00     0.025 A 
ATOM      8  C   UNL d   1      13.175  12.229  -4.110  0.00  0.00     0.035 A 
ATOM      9  C   UNL d   1      13.409  13.033  -4.146  0.00  0.00     0.009 A 
ATOM     10 BR   UNL d   1      12.794  11.872  -4.757  0.00  0.00    -0.049 Br
ENDROOT
BRANCH   1  11
ATOM     11  C   UNL d   1      14.555  12.290  -0.851  0.00  0.00     0.235 C 
ATOM     12  O   UNL d   1      14.160  11.780  -0.331  0.00  0.00    -0.642 OA
ATOM     13  O   UNL d   1      15.242  12.662  -0.565  0.00  0.00    -0.642 OA
ENDBRANCH   1  11
TORSDOF 1
ENDMDL
