MODEL 1
REMARK VINA RESULT:      -9.3      0.000      0.000
REMARK  3 active torsions:
REMARK  status: ('A' for Active; 'I' for Inactive)
REMARK    1  A    between atoms: S_5  and  C_3 
REMARK    2  A    between atoms: C_12  and  S_5 
REMARK    3  A    between atoms: C_23  and  N_6 
ROOT
ATOM      1  C   UNL d   1      52.766  33.187  53.820  0.00  0.00     0.155 A 
ATOM      2  C   UNL d   1      52.632  33.991  53.838  0.00  0.00     0.092 A 
ATOM      3  C   UNL d   1      51.436  33.803  53.106  0.00  0.00     0.124 A 
ATOM      4  N   UNL d   1      53.435  32.877  54.180  0.00  0.00    -0.210 NA
ATOM      5  N   UNL d   1      52.247  32.690  53.454  0.00  0.00    -0.273 N 
ATOM      6  C   UNL d   1      51.572  32.989  53.089  0.00  0.00     0.181 A 
ATOM      7  C   UNL d   1      53.162  34.495  54.212  0.00  0.00     0.269 A 
ATOM      8  N   UNL d   1      53.827  34.184  54.569  0.00  0.00    -0.258 N 
ATOM      9  C   UNL d   1      51.966  34.302  53.480  0.00  0.00     0.022 A 
ATOM     10  C   UNL d   1      53.963  33.371  54.552  0.00  0.00     0.152 A 
ATOM     11  N   UNL d   1      51.036  32.476  52.710  0.00  0.00    -0.128 N 
ATOM     12  C   UNL d   1      54.362  34.679  54.945  0.00  0.00     0.084 A 
ATOM     13  O   UNL d   1      53.025  35.317  54.230  0.00  0.00    -0.266 OA
ATOM     14  C   UNL d   1      54.631  33.061  54.911  0.00  0.00     0.038 A 
ATOM     15  C   UNL d   1      55.023  34.368  55.300  0.00  0.00     0.019 A 
ATOM     16  C   UNL d   1      55.159  33.554  55.283  0.00  0.00     0.005 A 
ENDROOT
BRANCH   3  17
ATOM     17  S   UNL d   1      50.752  34.110  52.737  0.00  0.00     0.213 S 
ATOM     18  O   UNL d   1      51.184  34.294  52.049  0.00  0.00    -0.217 OA
ATOM     19  O   UNL d   1      50.316  33.927  53.423  0.00  0.00    -0.217 OA
BRANCH  17  20
ATOM     20  C   UNL d   1      50.058  34.412  52.383  0.00  0.00     0.088 A 
ATOM     21  C   UNL d   1      49.900  34.262  51.585  0.00  0.00     0.014 A 
ATOM     22  C   UNL d   1      49.212  34.563  51.238  0.00  0.00     0.030 A 
ATOM     23  C   UNL d   1      48.678  35.016  51.682  0.00  0.00     0.140 A 
ATOM     24  C   UNL d   1      48.844  35.165  52.491  0.00  0.00     0.030 A 
ATOM     25  F   UNL d   1      47.985  35.320  51.333  0.00  0.00    -0.204 F 
ATOM     26  C   UNL d   1      49.532  34.864  52.839  0.00  0.00     0.014 A 
ENDBRANCH  17  20
ENDBRANCH   3  17
BRANCH   5  27
ATOM     27  C   UNL d   1      52.385  31.863  53.436  0.00  0.00     0.083 C 
ATOM     28  C   UNL d   1      52.612  31.502  52.712  0.00  0.00     0.021 C 
ENDBRANCH   5  27
TORSDOF 3
ENDMDL
MODEL 2
REMARK VINA RESULT:      -8.9      1.166      2.369
REMARK  3 active torsions:
REMARK  status: ('A' for Active; 'I' for Inactive)
REMARK    1  A    between atoms: S_5  and  C_3 
REMARK    2  A    between atoms: C_12  and  S_5 
REMARK    3  A    between atoms: C_23  and  N_6 
ROOT
ATOM      1  C   UNL d   1      52.746  32.922  53.373  0.00  0.00     0.155 A 
ATOM      2  C   UNL d   1      52.096  32.499  53.117  0.00  0.00     0.092 A 
ATOM      3  C   UNL d   1      51.374  33.706  52.971  0.00  0.00     0.124 A 
ATOM      4  N   UNL d   1      53.436  32.526  53.576  0.00  0.00    -0.210 NA
ATOM      5  N   UNL d   1      52.718  33.725  53.431  0.00  0.00    -0.273 N 
ATOM      6  C   UNL d   1      52.032  34.134  53.230  0.00  0.00     0.181 A 
ATOM      7  C   UNL d   1      52.127  31.680  53.059  0.00  0.00     0.269 A 
ATOM      8  N   UNL d   1      52.815  31.289  53.261  0.00  0.00    -0.258 N 
ATOM      9  C   UNL d   1      51.409  32.891  52.915  0.00  0.00     0.022 A 
ATOM     10  C   UNL d   1      53.471  31.716  53.521  0.00  0.00     0.152 A 
ATOM     11  N   UNL d   1      52.004  34.964  53.290  0.00  0.00    -0.128 N 
ATOM     12  C   UNL d   1      52.855  30.472  53.207  0.00  0.00     0.084 A 
ATOM     13  O   UNL d   1      51.464  31.249  52.797  0.00  0.00    -0.266 OA
ATOM     14  C   UNL d   1      54.161  31.321  53.723  0.00  0.00     0.038 A 
ATOM     15  C   UNL d   1      53.540  30.084  53.408  0.00  0.00     0.019 A 
ATOM     16  C   UNL d   1      54.196  30.511  53.668  0.00  0.00     0.005 A 
ENDROOT
BRANCH   3  17
ATOM     17  S   UNL d   1      50.676  34.118  52.766  0.00  0.00     0.213 S 
ATOM     18  O   UNL d   1      50.979  34.290  52.009  0.00  0.00    -0.217 OA
ATOM     19  O   UNL d   1      50.370  33.948  53.522  0.00  0.00    -0.217 OA
BRANCH  17  20
ATOM     20  C   UNL d   1      49.972  34.526  52.578  0.00  0.00     0.088 A 
ATOM     21  C   UNL d   1      49.585  34.976  53.156  0.00  0.00     0.014 A 
ATOM     22  C   UNL d   1      48.888  35.378  52.965  0.00  0.00     0.030 A 
ATOM     23  C   UNL d   1      48.571  35.335  52.200  0.00  0.00     0.140 A 
ATOM     24  C   UNL d   1      48.967  34.877  51.619  0.00  0.00     0.030 A 
ATOM     25  F   UNL d   1      47.868  35.740  52.007  0.00  0.00    -0.204 F 
ATOM     26  C   UNL d   1      49.665  34.475  51.809  0.00  0.00     0.014 A 
ENDBRANCH  17  20
ENDBRANCH   3  17
BRANCH   5  27
ATOM     27  C   UNL d   1      53.386  34.159  53.695  0.00  0.00     0.083 C 
ATOM     28  C   UNL d   1      53.345  34.563  54.430  0.00  0.00     0.021 C 
ENDBRANCH   5  27
TORSDOF 3
ENDMDL
MODEL 3
REMARK VINA RESULT:      -6.7      2.270      5.104
REMARK  3 active torsions:
REMARK  status: ('A' for Active; 'I' for Inactive)
REMARK    1  A    between atoms: S_5  and  C_3 
REMARK    2  A    between atoms: C_12  and  S_5 
REMARK    3  A    between atoms: C_23  and  N_6 
ROOT
ATOM      1  C   UNL d   1      48.789  35.204  52.307  0.00  0.00     0.155 A 
ATOM      2  C   UNL d   1      49.048  35.242  53.080  0.00  0.00     0.092 A 
ATOM      3  C   UNL d   1      50.204  34.509  52.725  0.00  0.00     0.124 A 
ATOM      4  N   UNL d   1      48.078  35.555  52.097  0.00  0.00    -0.210 NA
ATOM      5  N   UNL d   1      49.226  34.826  51.744  0.00  0.00    -0.273 N 
ATOM      6  C   UNL d   1      49.942  34.471  51.942  0.00  0.00     0.181 A 
ATOM      7  C   UNL d   1      48.601  35.628  53.651  0.00  0.00     0.269 A 
ATOM      8  N   UNL d   1      47.893  35.976  53.440  0.00  0.00    -0.258 N 
ATOM      9  C   UNL d   1      49.756  34.894  53.291  0.00  0.00     0.022 A 
ATOM     10  C   UNL d   1      47.632  35.938  52.658  0.00  0.00     0.152 A 
ATOM     11  N   UNL d   1      50.393  34.080  51.361  0.00  0.00    -0.128 N 
ATOM     12  C   UNL d   1      47.441  36.364  54.003  0.00  0.00     0.084 A 
ATOM     13  O   UNL d   1      48.865  35.667  54.441  0.00  0.00    -0.266 OA
ATOM     14  C   UNL d   1      46.921  36.288  52.449  0.00  0.00     0.038 A 
ATOM     15  C   UNL d   1      46.736  36.709  53.791  0.00  0.00     0.019 A 
ATOM     16  C   UNL d   1      46.475  36.671  53.010  0.00  0.00     0.005 A 
ENDROOT
BRANCH   3  17
ATOM     17  S   UNL d   1      50.930  34.149  52.929  0.00  0.00     0.213 S 
ATOM     18  O   UNL d   1      50.535  33.465  53.197  0.00  0.00    -0.217 OA
ATOM     19  O   UNL d   1      51.327  34.830  52.662  0.00  0.00    -0.217 OA
BRANCH  17  20
ATOM     20  C   UNL d   1      51.664  33.804  53.128  0.00  0.00     0.088 A 
ATOM     21  C   UNL d   1      52.317  34.284  53.296  0.00  0.00     0.014 A 
ATOM     22  C   UNL d   1      53.042  33.937  53.493  0.00  0.00     0.030 A 
ATOM     23  C   UNL d   1      53.123  33.113  53.522  0.00  0.00     0.140 A 
ATOM     24  C   UNL d   1      52.457  32.631  53.350  0.00  0.00     0.030 A 
ATOM     25  F   UNL d   1      53.853  32.763  53.719  0.00  0.00    -0.204 F 
ATOM     26  C   UNL d   1      51.732  32.977  53.153  0.00  0.00     0.014 A 
ENDBRANCH  17  20
ENDBRANCH   3  17
BRANCH   5  27
ATOM     27  C   UNL d   1      48.960  34.788  50.950  0.00  0.00     0.083 C 
ATOM     28  C   UNL d   1      48.606  34.078  50.672  0.00  0.00     0.021 C 
ENDBRANCH   5  27
TORSDOF 3
ENDMDL
MODEL 4
REMARK VINA RESULT:      -6.5      2.960      4.959
REMARK  3 active torsions:
REMARK  status: ('A' for Active; 'I' for Inactive)
REMARK    1  A    between atoms: S_5  and  C_3 
REMARK    2  A    between atoms: C_12  and  S_5 
REMARK    3  A    between atoms: C_23  and  N_6 
ROOT
ATOM      1  C   UNL d   1      52.767  32.953  53.245  0.00  0.00     0.155 A 
ATOM      2  C   UNL d   1      52.133  32.448  53.345  0.00  0.00     0.092 A 
ATOM      3  C   UNL d   1      53.024  31.407  53.695  0.00  0.00     0.124 A 
ATOM      4  N   UNL d   1      52.637  33.731  53.019  0.00  0.00    -0.210 NA
ATOM      5  N   UNL d   1      53.521  32.696  53.366  0.00  0.00    -0.273 N 
ATOM      6  C   UNL d   1      53.665  31.917  53.593  0.00  0.00     0.181 A 
ATOM      7  C   UNL d   1      51.366  32.713  53.222  0.00  0.00     0.269 A 
ATOM      8  N   UNL d   1      51.239  33.488  52.996  0.00  0.00    -0.258 N 
ATOM      9  C   UNL d   1      52.260  31.674  53.571  0.00  0.00     0.022 A 
ATOM     10  C   UNL d   1      51.879  33.998  52.895  0.00  0.00     0.152 A 
ATOM     11  N   UNL d   1      54.445  31.652  53.718  0.00  0.00    -0.128 N 
ATOM     12  C   UNL d   1      50.476  33.760  52.871  0.00  0.00     0.084 A 
ATOM     13  O   UNL d   1      50.718  32.198  53.324  0.00  0.00    -0.266 OA
ATOM     14  C   UNL d   1      51.750  34.775  52.669  0.00  0.00     0.038 A 
ATOM     15  C   UNL d   1      50.352  34.532  52.647  0.00  0.00     0.019 A 
ATOM     16  C   UNL d   1      50.992  35.042  52.545  0.00  0.00     0.005 A 
ENDROOT
BRANCH   3  17
ATOM     17  S   UNL d   1      53.166  30.616  53.926  0.00  0.00     0.213 S 
ATOM     18  O   UNL d   1      53.132  30.360  53.132  0.00  0.00    -0.217 OA
ATOM     19  O   UNL d   1      53.200  30.867  54.719  0.00  0.00    -0.217 OA
BRANCH  17  20
ATOM     20  C   UNL d   1      53.308  29.831  54.173  0.00  0.00     0.088 A 
ATOM     21  C   UNL d   1      53.559  29.262  53.626  0.00  0.00     0.014 A 
ATOM     22  C   UNL d   1      53.699  28.486  53.875  0.00  0.00     0.030 A 
ATOM     23  C   UNL d   1      53.591  28.270  54.669  0.00  0.00     0.140 A 
ATOM     24  C   UNL d   1      53.337  28.852  55.218  0.00  0.00     0.030 A 
ATOM     25  F   UNL d   1      53.732  27.489  54.921  0.00  0.00    -0.204 F 
ATOM     26  C   UNL d   1      53.196  29.628  54.970  0.00  0.00     0.014 A 
ENDBRANCH  17  20
ENDBRANCH   3  17
BRANCH   5  27
ATOM     27  C   UNL d   1      54.173  33.214  53.263  0.00  0.00     0.083 C 
ATOM     28  C   UNL d   1      54.660  33.393  53.922  0.00  0.00     0.021 C 
ENDBRANCH   5  27
TORSDOF 3
ENDMDL
