MODEL 1
REMARK VINA RESULT:      -7.8      0.000      0.000
REMARK  5 active torsions:
REMARK  status: ('A' for Active; 'I' for Inactive)
REMARK    1  A    between atoms: N_2  and  S_1 
REMARK    2  A    between atoms: C_10  and  S_1 
REMARK    3  A    between atoms: C_4  and  C_3 
REMARK       I    between atoms: N_5  and  C_4 
REMARK    4  A    between atoms: C_6  and  N_5 
REMARK    5  A    between atoms: O_24  and  C_21 
ROOT
ATOM      1  N   UNL d   1      52.260  32.459  53.060  0.00  0.00    -0.226 N 
ATOM      2  C   UNL d   1      52.966  32.744  53.406  0.00  0.00     0.133 A 
ATOM      3  C   UNL d   1      52.160  31.653  52.935  0.00  0.00     0.092 A 
ATOM      4  C   UNL d   1      53.564  32.219  53.623  0.00  0.00     0.023 A 
ATOM      5  C   UNL d   1      52.755  31.122  53.150  0.00  0.00     0.018 A 
ATOM      6  C   UNL d   1      53.459  31.410  53.496  0.00  0.00     0.003 A 
ATOM      7  C   UNL d   1      52.659  30.316  53.027  0.00  0.00     0.002 A 
ATOM      8  C   UNL d   1      54.055  30.879  53.711  0.00  0.00     0.000 A 
ATOM      9  C   UNL d   1      53.251  29.794  53.242  0.00  0.00     0.000 A 
ATOM     10  C   UNL d   1      53.945  30.073  53.582  0.00  0.00     0.000 A 
ENDROOT
BRANCH   1  11
ATOM     11  S   UNL d   1      51.661  33.000  52.844  0.00  0.00     0.271 S 
ATOM     12  O   UNL d   1      51.284  32.852  53.555  0.00  0.00    -0.200 OA
ATOM     13  O   UNL d   1      52.048  33.138  52.139  0.00  0.00    -0.200 OA
BRANCH  11  14
ATOM     14  C   UNL d   1      51.072  33.530  52.635  0.00  0.00     0.104 A 
ATOM     15  C   UNL d   1      50.473  33.713  53.175  0.00  0.00     0.015 A 
ATOM     16  C   UNL d   1      49.884  34.244  52.965  0.00  0.00     0.025 A 
ATOM     17  C   UNL d   1      49.885  34.596  52.217  0.00  0.00     0.094 A 
ATOM     18  C   UNL d   1      50.484  34.409  51.684  0.00  0.00     0.025 A 
ATOM     19  C   UNL d   1      51.081  33.875  51.889  0.00  0.00     0.015 A 
BRANCH  17  20
ATOM     20  O   UNL d   1      49.295  35.126  52.007  0.00  0.00    -0.328 OA
ATOM     21  C   UNL d   1      48.698  34.891  51.485  0.00  0.00     0.181 C 
ENDBRANCH  17  20
ENDBRANCH  11  14
ENDBRANCH   1  11
BRANCH   2  22
ATOM     22  C   UNL d   1      53.063  33.560  53.530  0.00  0.00     0.298 C 
ATOM     23  N   UNL d   1      53.122  33.850  54.298  0.00  0.00    -0.181 NA
ATOM     24  O   UNL d   1      53.099  34.074  52.883  0.00  0.00    -0.264 OA
BRANCH  23  25
ATOM     25  C   UNL d   1      53.218  34.658  54.426  0.00  0.00     0.197 A 
ATOM     26  N   UNL d   1      53.528  35.346  53.911  0.00  0.00    -0.219 NA
ATOM     27  C   UNL d   1      53.482  36.089  54.395  0.00  0.00     0.108 A 
ATOM     28  C   UNL d   1      53.148  35.881  55.209  0.00  0.00     0.059 A 
ATOM     29  S   UNL d   1      52.984  34.998  55.230  0.00  0.00    -0.046 SA
ENDBRANCH  23  25
ENDBRANCH   2  22
TORSDOF 5
ENDMDL
MODEL 2
REMARK VINA RESULT:      -6.9      1.356      3.258
REMARK  5 active torsions:
REMARK  status: ('A' for Active; 'I' for Inactive)
REMARK    1  A    between atoms: N_2  and  S_1 
REMARK    2  A    between atoms: C_10  and  S_1 
REMARK    3  A    between atoms: C_4  and  C_3 
REMARK       I    between atoms: N_5  and  C_4 
REMARK    4  A    between atoms: C_6  and  N_5 
REMARK    5  A    between atoms: O_24  and  C_21 
ROOT
ATOM      1  N   UNL d   1      53.158  33.637  53.876  0.00  0.00    -0.226 N 
ATOM      2  C   UNL d   1      53.594  32.924  53.839  0.00  0.00     0.133 A 
ATOM      3  C   UNL d   1      53.432  34.263  54.333  0.00  0.00     0.092 A 
ATOM      4  C   UNL d   1      54.299  32.846  54.260  0.00  0.00     0.023 A 
ATOM      5  C   UNL d   1      54.137  34.190  54.758  0.00  0.00     0.018 A 
ATOM      6  C   UNL d   1      54.570  33.476  54.718  0.00  0.00     0.003 A 
ATOM      7  C   UNL d   1      54.414  34.812  55.216  0.00  0.00     0.002 A 
ATOM      8  C   UNL d   1      55.276  33.404  55.142  0.00  0.00     0.000 A 
ATOM      9  C   UNL d   1      55.113  34.736  55.634  0.00  0.00     0.000 A 
ATOM     10  C   UNL d   1      55.542  34.036  55.598  0.00  0.00     0.000 A 
ENDROOT
BRANCH   1  11
ATOM     11  S   UNL d   1      52.446  33.705  53.445  0.00  0.00     0.271 S 
ATOM     12  O   UNL d   1      52.872  33.978  52.802  0.00  0.00    -0.200 OA
ATOM     13  O   UNL d   1      52.034  33.432  54.094  0.00  0.00    -0.200 OA
BRANCH  11  14
ATOM     14  C   UNL d   1      51.748  33.774  53.020  0.00  0.00     0.104 A 
ATOM     15  C   UNL d   1      51.034  33.535  53.362  0.00  0.00     0.015 A 
ATOM     16  C   UNL d   1      50.336  33.604  52.936  0.00  0.00     0.025 A 
ATOM     17  C   UNL d   1      50.342  33.909  52.169  0.00  0.00     0.094 A 
ATOM     18  C   UNL d   1      51.057  34.145  51.835  0.00  0.00     0.025 A 
ATOM     19  C   UNL d   1      51.765  34.079  52.257  0.00  0.00     0.015 A 
BRANCH  17  20
ATOM     20  O   UNL d   1      49.645  33.978  51.743  0.00  0.00    -0.328 OA
ATOM     21  C   UNL d   1      49.191  34.667  51.807  0.00  0.00     0.181 C 
ENDBRANCH  17  20
ENDBRANCH  11  14
ENDBRANCH   1  11
BRANCH   2  22
ATOM     22  C   UNL d   1      53.314  32.295  53.375  0.00  0.00     0.298 C 
ATOM     23  N   UNL d   1      53.245  31.544  53.706  0.00  0.00    -0.181 NA
ATOM     24  O   UNL d   1      53.107  32.425  52.585  0.00  0.00    -0.264 OA
BRANCH  23  25
ATOM     25  C   UNL d   1      52.968  30.918  53.250  0.00  0.00     0.197 A 
ATOM     26  N   UNL d   1      52.924  30.761  52.351  0.00  0.00    -0.219 NA
ATOM     27  C   UNL d   1      52.556  29.962  52.232  0.00  0.00     0.108 A 
ATOM     28  C   UNL d   1      52.366  29.610  53.042  0.00  0.00     0.059 A 
ATOM     29  S   UNL d   1      52.619  30.198  53.672  0.00  0.00    -0.046 SA
ENDBRANCH  23  25
ENDBRANCH   2  22
TORSDOF 5
ENDMDL
MODEL 3
REMARK VINA RESULT:      -6.8      1.713      3.519
REMARK  5 active torsions:
REMARK  status: ('A' for Active; 'I' for Inactive)
REMARK    1  A    between atoms: N_2  and  S_1 
REMARK    2  A    between atoms: C_10  and  S_1 
REMARK    3  A    between atoms: C_4  and  C_3 
REMARK       I    between atoms: N_5  and  C_4 
REMARK    4  A    between atoms: C_6  and  N_5 
REMARK    5  A    between atoms: O_24  and  C_21 
ROOT
ATOM      1  N   UNL d   1      53.491  31.260  53.863  0.00  0.00    -0.226 N 
ATOM      2  C   UNL d   1      52.882  31.313  53.293  0.00  0.00     0.133 A 
ATOM      3  C   UNL d   1      53.713  30.527  54.161  0.00  0.00     0.092 A 
ATOM      4  C   UNL d   1      52.502  30.631  53.027  0.00  0.00     0.023 A 
ATOM      5  C   UNL d   1      53.336  29.840  53.899  0.00  0.00     0.018 A 
ATOM      6  C   UNL d   1      52.727  29.897  53.328  0.00  0.00     0.003 A 
ATOM      7  C   UNL d   1      53.554  29.106  54.193  0.00  0.00     0.002 A 
ATOM      8  C   UNL d   1      52.350  29.210  53.066  0.00  0.00     0.000 A 
ATOM      9  C   UNL d   1      53.178  28.429  53.930  0.00  0.00     0.000 A 
ATOM     10  C   UNL d   1      52.579  28.480  53.370  0.00  0.00     0.000 A 
ENDROOT
BRANCH   1  11
ATOM     11  S   UNL d   1      53.870  31.957  54.126  0.00  0.00     0.271 S 
ATOM     12  O   UNL d   1      53.371  31.973  54.774  0.00  0.00    -0.200 OA
ATOM     13  O   UNL d   1      54.361  31.929  53.474  0.00  0.00    -0.200 OA
BRANCH  11  14
ATOM     14  C   UNL d   1      54.240  32.641  54.385  0.00  0.00     0.104 A 
ATOM     15  C   UNL d   1      54.003  32.991  55.097  0.00  0.00     0.015 A 
ATOM     16  C   UNL d   1      54.374  33.676  55.356  0.00  0.00     0.025 A 
ATOM     17  C   UNL d   1      54.981  34.017  54.912  0.00  0.00     0.094 A 
ATOM     18  C   UNL d   1      55.211  33.663  54.205  0.00  0.00     0.025 A 
ATOM     19  C   UNL d   1      54.843  32.973  53.937  0.00  0.00     0.015 A 
BRANCH  17  20
ATOM     20  O   UNL d   1      55.351  34.701  55.171  0.00  0.00    -0.328 OA
ATOM     21  C   UNL d   1      54.943  35.421  55.155  0.00  0.00     0.181 C 
ENDBRANCH  17  20
ENDBRANCH  11  14
ENDBRANCH   1  11
BRANCH   2  22
ATOM     22  C   UNL d   1      52.661  32.056  52.995  0.00  0.00     0.298 C 
ATOM     23  N   UNL d   1      51.911  32.353  53.157  0.00  0.00    -0.181 NA
ATOM     24  O   UNL d   1      53.196  32.492  52.538  0.00  0.00    -0.264 OA
BRANCH  23  25
ATOM     25  C   UNL d   1      51.688  33.089  52.864  0.00  0.00     0.197 A 
ATOM     26  N   UNL d   1      51.989  33.614  52.178  0.00  0.00    -0.219 NA
ATOM     27  C   UNL d   1      51.495  34.352  52.164  0.00  0.00     0.108 A 
ATOM     28  C   UNL d   1      50.886  34.302  52.831  0.00  0.00     0.059 A 
ATOM     29  S   UNL d   1      51.004  33.524  53.264  0.00  0.00    -0.046 SA
ENDBRANCH  23  25
ENDBRANCH   2  22
TORSDOF 5
ENDMDL
MODEL 4
REMARK VINA RESULT:      -6.4      1.458      3.935
REMARK  5 active torsions:
REMARK  status: ('A' for Active; 'I' for Inactive)
REMARK    1  A    between atoms: N_2  and  S_1 
REMARK    2  A    between atoms: C_10  and  S_1 
REMARK    3  A    between atoms: C_4  and  C_3 
REMARK       I    between atoms: N_5  and  C_4 
REMARK    4  A    between atoms: C_6  and  N_5 
REMARK    5  A    between atoms: O_24  and  C_21 
ROOT
ATOM      1  N   UNL d   1      51.980  32.728  53.126  0.00  0.00    -0.226 N 
ATOM      2  C   UNL d   1      52.414  33.433  53.236  0.00  0.00     0.133 A 
ATOM      3  C   UNL d   1      51.197  32.762  52.878  0.00  0.00     0.092 A 
ATOM      4  C   UNL d   1      52.061  34.165  53.098  0.00  0.00     0.023 A 
ATOM      5  C   UNL d   1      50.836  33.492  52.738  0.00  0.00     0.018 A 
ATOM      6  C   UNL d   1      51.274  34.196  52.850  0.00  0.00     0.003 A 
ATOM      7  C   UNL d   1      50.055  33.531  52.491  0.00  0.00     0.002 A 
ATOM      8  C   UNL d   1      50.914  34.926  52.710  0.00  0.00     0.000 A 
ATOM      9  C   UNL d   1      49.702  34.257  52.353  0.00  0.00     0.000 A 
ATOM     10  C   UNL d   1      50.129  34.951  52.462  0.00  0.00     0.000 A 
ENDROOT
BRANCH   1  11
ATOM     11  S   UNL d   1      52.348  31.992  53.268  0.00  0.00     0.271 S 
ATOM     12  O   UNL d   1      52.072  32.014  54.039  0.00  0.00    -0.200 OA
ATOM     13  O   UNL d   1      52.616  31.982  52.498  0.00  0.00    -0.200 OA
BRANCH  11  14
ATOM     14  C   UNL d   1      52.708  31.269  53.411  0.00  0.00     0.104 A 
ATOM     15  C   UNL d   1      52.757  30.980  54.185  0.00  0.00     0.015 A 
ATOM     16  C   UNL d   1      53.118  30.257  54.327  0.00  0.00     0.025 A 
ATOM     17  C   UNL d   1      53.432  29.817  53.703  0.00  0.00     0.094 A 
ATOM     18  C   UNL d   1      53.380  30.110  52.936  0.00  0.00     0.025 A 
ATOM     19  C   UNL d   1      53.018  30.838  52.784  0.00  0.00     0.015 A 
BRANCH  17  20
ATOM     20  O   UNL d   1      53.793  29.094  53.845  0.00  0.00    -0.328 OA
ATOM     21  C   UNL d   1      53.571  28.647  54.506  0.00  0.00     0.181 C 
ENDBRANCH  17  20
ENDBRANCH  11  14
ENDBRANCH   1  11
BRANCH   2  22
ATOM     22  C   UNL d   1      53.205  33.394  53.487  0.00  0.00     0.298 C 
ATOM     23  N   UNL d   1      53.423  33.732  54.205  0.00  0.00    -0.181 NA
ATOM     24  O   UNL d   1      53.769  33.015  53.013  0.00  0.00    -0.264 OA
BRANCH  23  25
ATOM     25  C   UNL d   1      54.205  33.695  54.456  0.00  0.00     0.197 A 
ATOM     26  N   UNL d   1      55.001  33.563  54.028  0.00  0.00    -0.219 NA
ATOM     27  C   UNL d   1      55.646  33.589  54.638  0.00  0.00     0.108 A 
ATOM     28  C   UNL d   1      55.270  33.735  55.446  0.00  0.00     0.059 A 
ATOM     29  S   UNL d   1      54.381  33.801  55.337  0.00  0.00    -0.046 SA
ENDBRANCH  23  25
ENDBRANCH   2  22
TORSDOF 5
ENDMDL
MODEL 5
REMARK VINA RESULT:      -6.4      1.472      4.563
REMARK  5 active torsions:
REMARK  status: ('A' for Active; 'I' for Inactive)
REMARK    1  A    between atoms: N_2  and  S_1 
REMARK    2  A    between atoms: C_10  and  S_1 
REMARK    3  A    between atoms: C_4  and  C_3 
REMARK       I    between atoms: N_5  and  C_4 
REMARK    4  A    between atoms: C_6  and  N_5 
REMARK    5  A    between atoms: O_24  and  C_21 
ROOT
ATOM      1  N   UNL d   1      51.949  33.721  53.335  0.00  0.00    -0.226 N 
ATOM      2  C   UNL d   1      51.704  33.076  52.864  0.00  0.00     0.133 A 
ATOM      3  C   UNL d   1      51.470  34.387  53.401  0.00  0.00     0.092 A 
ATOM      4  C   UNL d   1      50.984  33.102  52.463  0.00  0.00     0.023 A 
ATOM      5  C   UNL d   1      50.747  34.419  53.002  0.00  0.00     0.018 A 
ATOM      6  C   UNL d   1      50.506  33.771  52.532  0.00  0.00     0.003 A 
ATOM      7  C   UNL d   1      50.266  35.081  53.065  0.00  0.00     0.002 A 
ATOM      8  C   UNL d   1      49.783  33.804  52.133  0.00  0.00     0.000 A 
ATOM      9  C   UNL d   1      49.550  35.109  52.668  0.00  0.00     0.000 A 
ATOM     10  C   UNL d   1      49.310  34.474  52.204  0.00  0.00     0.000 A 
ENDROOT
BRANCH   1  11
ATOM     11  S   UNL d   1      52.680  33.684  53.736  0.00  0.00     0.271 S 
ATOM     12  O   UNL d   1      52.290  33.410  54.402  0.00  0.00    -0.200 OA
ATOM     13  O   UNL d   1      53.056  33.958  53.066  0.00  0.00    -0.200 OA
BRANCH  11  14
ATOM     14  C   UNL d   1      53.397  33.646  54.133  0.00  0.00     0.104 A 
ATOM     15  C   UNL d   1      54.101  33.792  53.723  0.00  0.00     0.015 A 
ATOM     16  C   UNL d   1      54.818  33.754  54.121  0.00  0.00     0.025 A 
ATOM     17  C   UNL d   1      54.841  33.571  54.926  0.00  0.00     0.094 A 
ATOM     18  C   UNL d   1      54.136  33.428  55.327  0.00  0.00     0.025 A 
ATOM     19  C   UNL d   1      53.410  33.464  54.934  0.00  0.00     0.015 A 
BRANCH  17  20
ATOM     20  O   UNL d   1      55.557  33.533  55.323  0.00  0.00    -0.328 OA
ATOM     21  C   UNL d   1      55.937  34.232  55.552  0.00  0.00     0.181 C 
ENDBRANCH  17  20
ENDBRANCH  11  14
ENDBRANCH   1  11
BRANCH   2  22
ATOM     22  C   UNL d   1      52.191  32.406  52.800  0.00  0.00     0.298 C 
ATOM     23  N   UNL d   1      51.928  31.682  53.091  0.00  0.00    -0.181 NA
ATOM     24  O   UNL d   1      52.937  32.470  52.446  0.00  0.00    -0.264 OA
BRANCH  23  25
ATOM     25  C   UNL d   1      52.408  31.016  53.030  0.00  0.00     0.197 A 
ATOM     26  N   UNL d   1      53.098  30.782  52.479  0.00  0.00    -0.219 NA
ATOM     27  C   UNL d   1      53.374  29.972  52.717  0.00  0.00     0.108 A 
ATOM     28  C   UNL d   1      52.868  29.690  53.411  0.00  0.00     0.059 A 
ATOM     29  S   UNL d   1      52.272  30.332  53.606  0.00  0.00    -0.046 SA
ENDBRANCH  23  25
ENDBRANCH   2  22
TORSDOF 5
ENDMDL
