MODEL 1
REMARK VINA RESULT:      -9.6      0.000      0.000
REMARK  2 active torsions:
REMARK  status: ('A' for Active; 'I' for Inactive)
REMARK    1  A    between atoms: N_2  and  S_1 
REMARK    2  A    between atoms: C_3  and  S_1 
ROOT
ATOM      1  S   UNL d   1     -48.557  13.504  22.700  0.00  0.00     0.274 S 
ATOM      2  O   UNL d   1     -48.411  13.525  21.879  0.00  0.00    -0.200 OA
ATOM      3  O   UNL d   1     -48.696  13.481  23.519  0.00  0.00    -0.200 OA
ENDROOT
BRANCH   1   4
ATOM      4  N   UNL d   1     -49.372  13.603  22.556  0.00  0.00    -0.212 N 
ATOM      5  C   UNL d   1     -49.935  13.117  22.215  0.00  0.00     0.193 A 
ATOM      6  N   UNL d   1     -50.664  13.517  22.223  0.00  0.00    -0.223 NA
ATOM      7  C   UNL d   1     -50.539  14.260  22.575  0.00  0.00     0.100 A 
ATOM      8  C   UNL d   1     -49.745  14.301  22.775  0.00  0.00     0.094 A 
ATOM      9  C   UNL d   1     -51.051  14.886  22.731  0.00  0.00     0.021 A 
ATOM     10  C   UNL d   1     -49.452  14.995  23.145  0.00  0.00     0.020 A 
ATOM     11  C   UNL d   1     -49.965  15.634  23.306  0.00  0.00     0.002 A 
ATOM     12  C   UNL d   1     -50.764  15.563  23.092  0.00  0.00     0.002 A 
ENDBRANCH   1   4
BRANCH   1  13
ATOM     13  C   UNL d   1     -47.742  13.404  22.835  0.00  0.00     0.122 A 
ATOM     14  C   UNL d   1     -47.455  12.696  23.118  0.00  0.00     0.093 A 
ATOM     15  N   UNL d   1     -47.971  12.070  23.272  0.00  0.00    -0.243 NA
ATOM     16  C   UNL d   1     -46.640  12.597  23.253  0.00  0.00     0.018 A 
ATOM     17  C   UNL d   1     -47.684  11.365  23.554  0.00  0.00     0.099 A 
ATOM     18  C   UNL d   1     -46.868  11.245  23.696  0.00  0.00     0.021 A 
ATOM     19  C   UNL d   1     -46.358  11.870  23.542  0.00  0.00     0.003 A 
ATOM     20  C   UNL d   1     -46.128  13.201  23.106  0.00  0.00     0.002 A 
ATOM     21  C   UNL d   1     -46.409  13.910  22.824  0.00  0.00     0.001 A 
ATOM     22  C   UNL d   1     -47.225  14.027  22.682  0.00  0.00     0.014 A 
ENDBRANCH   1  13
TORSDOF 2
ENDMDL
MODEL 2
REMARK VINA RESULT:      -9.5      0.744      3.910
REMARK  2 active torsions:
REMARK  status: ('A' for Active; 'I' for Inactive)
REMARK    1  A    between atoms: N_2  and  S_1 
REMARK    2  A    between atoms: C_3  and  S_1 
ROOT
ATOM      1  S   UNL d   1     -48.380  13.442  22.612  0.00  0.00     0.274 S 
ATOM      2  O   UNL d   1     -48.118  13.575  21.832  0.00  0.00    -0.200 OA
ATOM      3  O   UNL d   1     -48.648  13.310  23.387  0.00  0.00    -0.200 OA
ENDROOT
BRANCH   1   4
ATOM      4  N   UNL d   1     -47.591  13.335  22.858  0.00  0.00    -0.212 N 
ATOM      5  C   UNL d   1     -46.952  13.846  22.898  0.00  0.00     0.193 A 
ATOM      6  N   UNL d   1     -46.299  13.423  23.191  0.00  0.00    -0.223 NA
ATOM      7  C   UNL d   1     -46.548  12.641  23.331  0.00  0.00     0.100 A 
ATOM      8  C   UNL d   1     -47.339  12.600  23.123  0.00  0.00     0.094 A 
ATOM      9  C   UNL d   1     -46.146  11.982  23.618  0.00  0.00     0.021 A 
ATOM     10  C   UNL d   1     -47.746  11.871  23.206  0.00  0.00     0.020 A 
ATOM     11  C   UNL d   1     -47.347  11.197  23.495  0.00  0.00     0.002 A 
ATOM     12  C   UNL d   1     -46.544  11.270  23.698  0.00  0.00     0.002 A 
ENDBRANCH   1   4
BRANCH   1  13
ATOM     13  C   UNL d   1     -49.165  13.549  22.359  0.00  0.00     0.122 A 
ATOM     14  C   UNL d   1     -49.585  14.209  22.588  0.00  0.00     0.093 A 
ATOM     15  N   UNL d   1     -49.234  14.777  23.074  0.00  0.00    -0.243 NA
ATOM     16  C   UNL d   1     -50.370  14.317  22.335  0.00  0.00     0.018 A 
ATOM     17  C   UNL d   1     -49.653  15.434  23.303  0.00  0.00     0.099 A 
ATOM     18  C   UNL d   1     -50.444  15.560  23.059  0.00  0.00     0.021 A 
ATOM     19  C   UNL d   1     -50.789  14.993  22.575  0.00  0.00     0.003 A 
ATOM     20  C   UNL d   1     -50.722  13.769  21.861  0.00  0.00     0.002 A 
ATOM     21  C   UNL d   1     -50.307  13.109  21.629  0.00  0.00     0.001 A 
ATOM     22  C   UNL d   1     -49.518  12.985  21.873  0.00  0.00     0.014 A 
ENDBRANCH   1  13
TORSDOF 2
ENDMDL
MODEL 3
REMARK VINA RESULT:      -9.0      0.906      3.697
REMARK  2 active torsions:
REMARK  status: ('A' for Active; 'I' for Inactive)
REMARK    1  A    between atoms: N_2  and  S_1 
REMARK    2  A    between atoms: C_3  and  S_1 
ROOT
ATOM      1  S   UNL d   1     -48.615  12.993  22.938  0.00  0.00     0.274 S 
ATOM      2  O   UNL d   1     -48.916  13.155  23.697  0.00  0.00    -0.200 OA
ATOM      3  O   UNL d   1     -48.317  12.837  22.177  0.00  0.00    -0.200 OA
ENDROOT
BRANCH   1   4
ATOM      4  N   UNL d   1     -48.313  12.267  23.213  0.00  0.00    -0.212 N 
ATOM      5  C   UNL d   1     -48.677  11.573  23.450  0.00  0.00     0.193 A 
ATOM      6  N   UNL d   1     -48.085  11.031  23.671  0.00  0.00    -0.223 NA
ATOM      7  C   UNL d   1     -47.350  11.405  23.565  0.00  0.00     0.100 A 
ATOM      8  C   UNL d   1     -47.502  12.159  23.285  0.00  0.00     0.094 A 
ATOM      9  C   UNL d   1     -46.579  11.143  23.692  0.00  0.00     0.021 A 
ATOM     10  C   UNL d   1     -46.858  12.673  23.125  0.00  0.00     0.020 A 
ATOM     11  C   UNL d   1     -46.074  12.416  23.250  0.00  0.00     0.002 A 
ATOM     12  C   UNL d   1     -45.951  11.645  23.535  0.00  0.00     0.002 A 
ENDBRANCH   1   4
BRANCH   1  13
ATOM     13  C   UNL d   1     -48.919  13.719  22.669  0.00  0.00     0.122 A 
ATOM     14  C   UNL d   1     -49.620  13.744  22.254  0.00  0.00     0.093 A 
ATOM     15  N   UNL d   1     -50.033  13.047  22.095  0.00  0.00    -0.243 NA
ATOM     16  C   UNL d   1     -49.924  14.470  21.985  0.00  0.00     0.018 A 
ATOM     17  C   UNL d   1     -50.731  13.072  21.680  0.00  0.00     0.099 A 
ATOM     18  C   UNL d   1     -51.054  13.793  21.402  0.00  0.00     0.021 A 
ATOM     19  C   UNL d   1     -50.639  14.483  21.562  0.00  0.00     0.003 A 
ATOM     20  C   UNL d   1     -49.528  15.155  22.135  0.00  0.00     0.002 A 
ATOM     21  C   UNL d   1     -48.829  15.136  22.549  0.00  0.00     0.001 A 
ATOM     22  C   UNL d   1     -48.509  14.416  22.826  0.00  0.00     0.014 A 
ENDBRANCH   1  13
TORSDOF 2
ENDMDL
MODEL 4
REMARK VINA RESULT:      -8.7      0.871      3.689
REMARK  2 active torsions:
REMARK  status: ('A' for Active; 'I' for Inactive)
REMARK    1  A    between atoms: N_2  and  S_1 
REMARK    2  A    between atoms: C_3  and  S_1 
ROOT
ATOM      1  S   UNL d   1     -48.116  13.290  22.920  0.00  0.00     0.274 S 
ATOM      2  O   UNL d   1     -48.092  13.590  23.697  0.00  0.00    -0.200 OA
ATOM      3  O   UNL d   1     -48.145  12.995  22.143  0.00  0.00    -0.200 OA
ENDROOT
BRANCH   1   4
ATOM      4  N   UNL d   1     -47.508  12.752  23.110  0.00  0.00    -0.212 N 
ATOM      5  C   UNL d   1     -47.501  12.058  23.544  0.00  0.00     0.193 A 
ATOM      6  N   UNL d   1     -46.726  11.758  23.543  0.00  0.00    -0.223 NA
ATOM      7  C   UNL d   1     -46.254  12.281  23.100  0.00  0.00     0.100 A 
ATOM      8  C   UNL d   1     -46.744  12.884  22.841  0.00  0.00     0.094 A 
ATOM      9  C   UNL d   1     -45.453  12.270  22.912  0.00  0.00     0.021 A 
ATOM     10  C   UNL d   1     -46.419  13.502  22.374  0.00  0.00     0.020 A 
ATOM     11  C   UNL d   1     -45.607  13.498  22.178  0.00  0.00     0.002 A 
ATOM     12  C   UNL d   1     -45.136  12.873  22.457  0.00  0.00     0.002 A 
ENDBRANCH   1   4
BRANCH   1  13
ATOM     13  C   UNL d   1     -48.722  13.829  22.738  0.00  0.00     0.122 A 
ATOM     14  C   UNL d   1     -49.491  13.572  22.653  0.00  0.00     0.093 A 
ATOM     15  N   UNL d   1     -49.674  12.772  22.747  0.00  0.00    -0.243 NA
ATOM     16  C   UNL d   1     -50.097  14.111  22.471  0.00  0.00     0.018 A 
ATOM     17  C   UNL d   1     -50.440  12.516  22.662  0.00  0.00     0.099 A 
ATOM     18  C   UNL d   1     -51.064  13.043  22.479  0.00  0.00     0.021 A 
ATOM     19  C   UNL d   1     -50.877  13.837  22.386  0.00  0.00     0.003 A 
ATOM     20  C   UNL d   1     -49.930  14.893  22.377  0.00  0.00     0.002 A 
ATOM     21  C   UNL d   1     -49.165  15.156  22.461  0.00  0.00     0.001 A 
ATOM     22  C   UNL d   1     -48.543  14.628  22.643  0.00  0.00     0.014 A 
ENDBRANCH   1  13
TORSDOF 2
ENDMDL
MODEL 5
REMARK VINA RESULT:      -7.3      9.030     10.498
REMARK  2 active torsions:
REMARK  status: ('A' for Active; 'I' for Inactive)
REMARK    1  A    between atoms: N_2  and  S_1 
REMARK    2  A    between atoms: C_3  and  S_1 
ROOT
ATOM      1  S   UNL d   1     -39.546  14.368  18.279  0.00  0.00     0.274 S 
ATOM      2  O   UNL d   1     -40.196  13.884  18.084  0.00  0.00    -0.200 OA
ATOM      3  O   UNL d   1     -38.894  14.846  18.471  0.00  0.00    -0.200 OA
ENDROOT
BRANCH   1   4
ATOM      4  N   UNL d   1     -40.066  14.934  18.601  0.00  0.00    -0.212 N 
ATOM      5  C   UNL d   1     -40.525  15.519  18.258  0.00  0.00     0.193 A 
ATOM      6  N   UNL d   1     -40.935  15.917  18.863  0.00  0.00    -0.223 NA
ATOM      7  C   UNL d   1     -40.719  15.565  19.585  0.00  0.00     0.100 A 
ATOM      8  C   UNL d   1     -40.189  14.966  19.412  0.00  0.00     0.094 A 
ATOM      9  C   UNL d   1     -40.946  15.724  20.361  0.00  0.00     0.021 A 
ATOM     10  C   UNL d   1     -39.871  14.507  20.039  0.00  0.00     0.020 A 
ATOM     11  C   UNL d   1     -40.096  14.661  20.828  0.00  0.00     0.002 A 
ATOM     12  C   UNL d   1     -40.636  15.276  20.973  0.00  0.00     0.002 A 
ENDBRANCH   1   4
BRANCH   1  13
ATOM     13  C   UNL d   1     -39.033  13.799  17.956  0.00  0.00     0.122 A 
ATOM     14  C   UNL d   1     -38.743  13.888  17.200  0.00  0.00     0.093 A 
ATOM     15  N   UNL d   1     -38.956  14.545  16.748  0.00  0.00    -0.243 NA
ATOM     16  C   UNL d   1     -38.230  13.318  16.877  0.00  0.00     0.018 A 
ATOM     17  C   UNL d   1     -38.667  14.633  15.994  0.00  0.00     0.099 A 
ATOM     18  C   UNL d   1     -38.149  14.071  15.651  0.00  0.00     0.021 A 
ATOM     19  C   UNL d   1     -37.940  13.419  16.104  0.00  0.00     0.003 A 
ATOM     20  C   UNL d   1     -38.015  12.673  17.309  0.00  0.00     0.002 A 
ATOM     21  C   UNL d   1     -38.302  12.580  18.064  0.00  0.00     0.001 A 
ATOM     22  C   UNL d   1     -38.819  13.142  18.405  0.00  0.00     0.014 A 
ENDBRANCH   1  13
TORSDOF 2
ENDMDL
MODEL 6
REMARK VINA RESULT:      -6.9      8.938      9.635
REMARK  2 active torsions:
REMARK  status: ('A' for Active; 'I' for Inactive)
REMARK    1  A    between atoms: N_2  and  S_1 
REMARK    2  A    between atoms: C_3  and  S_1 
ROOT
ATOM      1  S   UNL d   1     -39.951  14.859  19.375  0.00  0.00     0.274 S 
ATOM      2  O   UNL d   1     -40.558  14.300  19.491  0.00  0.00    -0.200 OA
ATOM      3  O   UNL d   1     -39.345  15.418  19.265  0.00  0.00    -0.200 OA
ENDROOT
BRANCH   1   4
ATOM      4  N   UNL d   1     -39.889  14.624  18.577  0.00  0.00    -0.212 N 
ATOM      5  C   UNL d   1     -39.444  14.046  18.205  0.00  0.00     0.193 A 
ATOM      6  N   UNL d   1     -39.614  14.070  17.392  0.00  0.00    -0.223 NA
ATOM      7  C   UNL d   1     -40.173  14.674  17.269  0.00  0.00     0.100 A 
ATOM      8  C   UNL d   1     -40.332  15.006  18.001  0.00  0.00     0.094 A 
ATOM      9  C   UNL d   1     -40.541  14.949  16.586  0.00  0.00     0.021 A 
ATOM     10  C   UNL d   1     -40.883  15.637  18.052  0.00  0.00     0.020 A 
ATOM     11  C   UNL d   1     -41.261  15.922  17.365  0.00  0.00     0.002 A 
ATOM     12  C   UNL d   1     -41.079  15.565  16.637  0.00  0.00     0.002 A 
ENDBRANCH   1   4
BRANCH   1  13
ATOM     13  C   UNL d   1     -40.018  15.087  20.171  0.00  0.00     0.122 A 
ATOM     14  C   UNL d   1     -39.584  14.707  20.747  0.00  0.00     0.093 A 
ATOM     15  N   UNL d   1     -39.074  14.091  20.543  0.00  0.00    -0.243 NA
ATOM     16  C   UNL d   1     -39.652  14.936  21.544  0.00  0.00     0.018 A 
ATOM     17  C   UNL d   1     -38.642  13.712  21.118  0.00  0.00     0.099 A 
ATOM     18  C   UNL d   1     -38.696  13.927  21.925  0.00  0.00     0.021 A 
ATOM     19  C   UNL d   1     -39.205  14.541  22.123  0.00  0.00     0.003 A 
ATOM     20  C   UNL d   1     -40.146  15.536  21.753  0.00  0.00     0.002 A 
ATOM     21  C   UNL d   1     -40.582  15.919  21.183  0.00  0.00     0.001 A 
ATOM     22  C   UNL d   1     -40.526  15.702  20.378  0.00  0.00     0.014 A 
ENDBRANCH   1  13
TORSDOF 2
ENDMDL
