MODEL 1
REMARK VINA RESULT:      58.2      0.000      0.000
REMARK  3 active torsions:
REMARK  status: ('A' for Active; 'I' for Inactive)
REMARK    1  A    between atoms: C_11  and  N_2 
REMARK    2  A    between atoms: N_7  and  C_4 
REMARK    3  A    between atoms: C_14  and  C_11 
ROOT
ATOM      1  C   UNL d   1     -54.716-100.403 -41.881  0.00  0.00     0.091 A 
ATOM      2  N   UNL d   1     -54.714 -99.192 -42.635  0.00  0.00    -0.211 N 
ATOM      3  C   UNL d   1     -54.714-100.013 -42.606  0.00  0.00     0.170 A 
ATOM      4  C   UNL d   1     -54.716-101.224 -41.859  0.00  0.00     0.154 A 
ATOM      5  N   UNL d   1     -54.717 -98.759 -41.936  0.00  0.00    -0.162 NA
ATOM      6  C   UNL d   1     -54.719 -99.151 -41.207  0.00  0.00     0.127 A 
ATOM      7  N   UNL d   1     -54.711-100.446 -43.306  0.00  0.00    -0.205 NA
ATOM      8  N   UNL d   1     -54.713-101.659 -42.549  0.00  0.00    -0.206 NA
ATOM      9  C   UNL d   1     -54.711-101.266 -43.280  0.00  0.00     0.202 A 
ENDROOT
BRANCH   2  10
ATOM     10  C   UNL d   1     -54.712 -98.802 -43.361  0.00  0.00     0.102 C 
BRANCH  10  11
ATOM     11  C   UNL d   1     -55.385 -98.799 -43.829  0.00  0.00     0.019 A 
ATOM     12  C   UNL d   1     -56.130 -98.758 -43.482  0.00  0.00     0.002 A 
ATOM     13  C   UNL d   1     -56.805 -98.755 -43.954  0.00  0.00     0.011 A 
ATOM     14  C   UNL d   1     -56.734 -98.794 -44.774  0.00  0.00     0.058 A 
ATOM     15  C   UNL d   1     -55.979 -98.836 -45.125  0.00  0.00     0.011 A 
ATOM     16 CL   UNL d   1     -57.411 -98.791 -45.252  0.00  0.00    -0.082 Cl
ATOM     17  C   UNL d   1     -55.310 -98.838 -44.650  0.00  0.00     0.002 A 
ENDBRANCH  10  11
ENDBRANCH   2  10
BRANCH   4  18
ATOM     18  N   UNL d   1     -54.718-101.629 -41.107  0.00  0.00    -0.289 N 
ATOM     19  C   UNL d   1     -54.713-101.162 -40.385  0.00  0.00     0.082 A 
ATOM     20  C   UNL d   1     -54.715-101.559 -39.626  0.00  0.00     0.019 A 
ATOM     21  C   UNL d   1     -54.722-102.418 -39.597  0.00  0.00     0.003 A 
ATOM     22  C   UNL d   1     -54.727-102.878 -40.312  0.00  0.00     0.019 A 
ATOM     23  C   UNL d   1     -54.725-102.814 -38.841  0.00  0.00     0.000 C 
ATOM     24  C   UNL d   1     -54.725-102.482 -41.068  0.00  0.00     0.082 A 
ENDBRANCH   4  18
TORSDOF 3
ENDMDL
