MODEL 1
REMARK VINA RESULT:      49.7      0.000      0.000
REMARK  6 active torsions:
REMARK  status: ('A' for Active; 'I' for Inactive)
REMARK    1  A    between atoms: C_9  and  N_1 
REMARK    2  A    between atoms: C_2  and  C_3 
REMARK    3  A    between atoms: C_4  and  C_6 
REMARK    4  A    between atoms: C_7  and  C_5 
REMARK       I    between atoms: C_6  and  N_8 
REMARK    5  A    between atoms: N_8  and  N_12 
REMARK    6  A    between atoms: N_12  and  C_17 
ROOT
ATOM      1  C   UNL d   1     -54.890-100.304 -43.718  0.00  0.00     0.005 A 
ATOM      2  C   UNL d   1     -55.020 -99.641 -44.191  0.00  0.00     0.059 A 
ATOM      3  C   UNL d   1     -54.735-100.180 -42.917  0.00  0.00     0.000 A 
ATOM      4  C   UNL d   1     -54.996 -98.894 -43.880  0.00  0.00     0.005 A 
ATOM      5  C   UNL d   1     -54.711 -99.416 -42.599  0.00  0.00     0.000 A 
ATOM      6  C   UNL d   1     -54.842 -98.791 -43.088  0.00  0.00     0.000 A 
ENDROOT
BRANCH   2   7
ATOM      7  C   UNL d   1     -55.179 -99.758 -45.009  0.00  0.00     0.297 C 
ATOM      8  N   UNL d   1     -55.775 -99.310 -45.360  0.00  0.00    -0.106 NA
ATOM      9  O   UNL d   1     -54.742-100.312 -45.447  0.00  0.00    -0.264 OA
BRANCH   8  10
ATOM     10  N   UNL d   1     -56.210 -98.757 -44.923  0.00  0.00    -0.145 NA
BRANCH  10  11
ATOM     11  C   UNL d   1     -57.024 -98.799 -44.908  0.00  0.00     0.103 A 
ATOM     12  C   UNL d   1     -57.418 -98.810 -44.193  0.00  0.00     0.023 A 
ATOM     13  C   UNL d   1     -58.245 -98.852 -44.170  0.00  0.00     0.025 A 
ATOM     14  C   UNL d   1     -58.666 -98.884 -44.869  0.00  0.00     0.127 A 
ATOM     15  C   UNL d   1     -58.278 -98.874 -45.593  0.00  0.00     0.025 A 
ATOM     16  C   UNL d   1     -57.451 -98.831 -45.616  0.00  0.00     0.023 A 
BRANCH  14  17
ATOM     17  N   UNL d   1     -59.491 -98.926 -44.835  0.00  0.00    -0.114 N 
ATOM     18  O   UNL d   1     -59.951 -98.886 -45.500  0.00  0.00    -0.532 OA
ATOM     19  O   UNL d   1     -59.872 -99.013 -44.093  0.00  0.00    -0.532 OA
ENDBRANCH  14  17
ENDBRANCH  10  11
ENDBRANCH   8  10
ENDBRANCH   2   7
BRANCH   1  20
ATOM     20  C   UNL d   1     -54.914-101.051 -44.029  0.00  0.00     0.006 A 
ATOM     21  C   UNL d   1     -55.126-101.683 -43.558  0.00  0.00     0.064 A 
ATOM     22  C   UNL d   1     -55.151-102.446 -43.876  0.00  0.00     0.006 A 
ATOM     23  C   UNL d   1     -54.962-102.568 -44.660  0.00  0.00     0.000 A 
ATOM     24  C   UNL d   1     -54.757-101.965 -45.119  0.00  0.00     0.000 A 
ATOM     25  C   UNL d   1     -54.726-101.190 -44.820  0.00  0.00     0.000 A 
BRANCH  21  26
ATOM     26  C   UNL d   1     -55.321-101.568 -42.755  0.00  0.00     0.211 C 
ATOM     27  O   UNL d   1     -54.713-101.470 -42.186  0.00  0.00    -0.644 OA
ATOM     28  O   UNL d   1     -56.110-101.549 -42.507  0.00  0.00    -0.644 OA
ENDBRANCH  21  26
ENDBRANCH   1  20
TORSDOF 6
ENDMDL
