MODEL 1
REMARK VINA RESULT:      -5.0      0.000      0.000
REMARK  4 active torsions:
REMARK  status: ('A' for Active; 'I' for Inactive)
REMARK    1  A    between atoms: C_2  and  C_1 
REMARK    2  A    between atoms: C_7  and  O_14 
REMARK       I    between atoms: N_12  and  C_7 
REMARK    3  A    between atoms: O_14  and  C_11 
REMARK    4  A    between atoms: C_24  and  C_18 
ROOT
ATOM      1  C   UNL d   1      56.749  -0.601  32.045  0.00  0.00     0.099 A 
ATOM      2  C   UNL d   1      57.256  -0.109  31.621  0.00  0.00     0.202 A 
ATOM      3  C   UNL d   1      57.691  -0.411  30.979  0.00  0.00     0.062 A 
ATOM      4  C   UNL d   1      56.669  -1.400  31.833  0.00  0.00     0.129 A 
ATOM      5  C   UNL d   1      57.612  -1.205  30.768  0.00  0.00     0.105 A 
ATOM      6  O   UNL d   1      57.104  -1.702  31.191  0.00  0.00    -0.305 OA
ATOM      7  C   UNL d   1      58.544  -1.010  29.716  0.00  0.00     0.107 A 
ATOM      8  C   UNL d   1      58.199   0.081  30.555  0.00  0.00     0.007 A 
ATOM      9  C   UNL d   1      58.041  -1.508  30.132  0.00  0.00     0.050 A 
ATOM     10  C   UNL d   1      58.622  -0.223  29.926  0.00  0.00     0.023 A 
ATOM     11  O   UNL d   1      57.334   0.682  31.831  0.00  0.00    -0.286 OA
ENDROOT
BRANCH   1  12
ATOM     12  C   UNL d   1      56.316  -0.302  32.683  0.00  0.00     0.168 A 
ATOM     13  N   UNL d   1      55.514  -0.115  32.681  0.00  0.00    -0.225 NA
ATOM     14  C   UNL d   1      55.314   0.166  33.438  0.00  0.00     0.101 A 
ATOM     15  C   UNL d   1      54.608   0.430  33.757  0.00  0.00     0.021 A 
ATOM     16  C   UNL d   1      55.996   0.150  33.901  0.00  0.00     0.101 A 
ATOM     17  C   UNL d   1      54.569   0.682  34.542  0.00  0.00     0.002 A 
ATOM     18  C   UNL d   1      55.260   0.664  35.005  0.00  0.00     0.002 A 
ATOM     19  C   UNL d   1      55.974   0.397  34.682  0.00  0.00     0.021 A 
ATOM     20  N   UNL d   1      56.615  -0.140  33.432  0.00  0.00    -0.225 NA
ENDBRANCH   1  12
BRANCH  10  21
ATOM     21  C   UNL d   1      59.135   0.270  29.495  0.00  0.00     0.002 C 
ATOM     22  C   UNL d   1      59.739   0.675  29.887  0.00  0.00     0.000 C 
ENDBRANCH  10  21
BRANCH   7  23
ATOM     23  O   UNL d   1      58.978  -1.320  29.073  0.00  0.00    -0.259 OA
BRANCH  23  24
ATOM     24  C   UNL d   1      58.861  -2.100  28.829  0.00  0.00     0.378 C 
ATOM     25  N   UNL d   1      59.499  -2.619  28.781  0.00  0.00    -0.247 N 
ATOM     26  C   UNL d   1      59.374  -3.398  28.536  0.00  0.00     0.112 A 
ATOM     27  C   UNL d   1      60.257  -2.356  28.977  0.00  0.00     0.112 A 
ATOM     28  C   UNL d   1      60.009  -3.916  28.487  0.00  0.00     0.142 A 
ATOM     29  O   UNL d   1      60.770  -3.658  28.683  0.00  0.00    -0.300 OA
ATOM     30  C   UNL d   1      60.895  -2.879  28.928  0.00  0.00     0.142 A 
ATOM     31  O   UNL d   1      58.103  -2.363  28.632  0.00  0.00    -0.237 OA
ENDBRANCH  23  24
ENDBRANCH   7  23
TORSDOF 4
ENDMDL
