MODEL 1
REMARK VINA RESULT:      -6.7      0.000      0.000
REMARK  4 active torsions:
REMARK  status: ('A' for Active; 'I' for Inactive)
REMARK    1  A    between atoms: C_2  and  C_1 
REMARK    2  A    between atoms: N_4  and  C_1 
REMARK    3  A    between atoms: O_13  and  C_5 
REMARK    4  A    between atoms: O_12  and  C_6 
ROOT
ATOM      1  C   UNL d   1      53.590  32.321  53.654  0.00  0.00     0.031 A 
ATOM      2  C   UNL d   1      53.133  33.771  54.294  0.00  0.00     0.138 A 
ATOM      3  C   UNL d   1      52.709  33.449  53.660  0.00  0.00     0.118 A 
ATOM      4  C   UNL d   1      53.787  33.368  54.609  0.00  0.00     0.118 A 
ATOM      5  C   UNL d   1      52.941  32.728  53.347  0.00  0.00     0.029 A 
ATOM      6  C   UNL d   1      54.013  32.643  54.287  0.00  0.00     0.029 A 
ATOM      7  O   UNL d   1      52.912  34.499  54.623  0.00  0.00    -0.324 OA
ATOM      8  C   UNL d   1      52.651  35.219  54.909  0.00  0.00     0.182 C 
ENDROOT
BRANCH   4   9
ATOM      9  O   UNL d   1      54.212  33.688  55.242  0.00  0.00    -0.326 OA
ATOM     10  C   UNL d   1      55.024  33.589  55.283  0.00  0.00     0.181 C 
ENDBRANCH   4   9
BRANCH   3  11
ATOM     11  O   UNL d   1      52.050  33.862  53.348  0.00  0.00    -0.326 OA
ATOM     12  C   UNL d   1      51.866  33.781  52.538  0.00  0.00     0.181 C 
ENDBRANCH   3  11
BRANCH   1  13
ATOM     13  C   UNL d   1      53.818  31.602  53.338  0.00  0.00     0.120 C 
ATOM     14  S   UNL d   1      54.477  31.568  52.830  0.00  0.00    -0.059 SA
BRANCH  13  15
ATOM     15  N   UNL d   1      53.393  30.912  53.525  0.00  0.00    -0.292 N 
ATOM     16  C   UNL d   1      52.846  30.646  52.987  0.00  0.00     0.108 A 
ATOM     17  C   UNL d   1      52.407  29.957  53.150  0.00  0.00     0.142 A 
ATOM     18  O   UNL d   1      52.527  29.550  53.852  0.00  0.00    -0.300 OA
ATOM     19  C   UNL d   1      53.084  29.827  54.394  0.00  0.00     0.142 A 
ATOM     20  C   UNL d   1      53.514  30.504  54.232  0.00  0.00     0.108 A 
ENDBRANCH  13  15
ENDBRANCH   1  13
TORSDOF 4
ENDMDL
MODEL 2
REMARK VINA RESULT:      -5.6      1.385      3.007
REMARK  4 active torsions:
REMARK  status: ('A' for Active; 'I' for Inactive)
REMARK    1  A    between atoms: C_2  and  C_1 
REMARK    2  A    between atoms: N_4  and  C_1 
REMARK    3  A    between atoms: O_13  and  C_5 
REMARK    4  A    between atoms: O_12  and  C_6 
ROOT
ATOM      1  C   UNL d   1      53.538  33.091  53.522  0.00  0.00     0.031 A 
ATOM      2  C   UNL d   1      51.961  33.329  53.098  0.00  0.00     0.138 A 
ATOM      3  C   UNL d   1      52.453  33.981  53.236  0.00  0.00     0.118 A 
ATOM      4  C   UNL d   1      52.257  32.557  53.172  0.00  0.00     0.118 A 
ATOM      5  C   UNL d   1      53.236  33.855  53.447  0.00  0.00     0.029 A 
ATOM      6  C   UNL d   1      53.045  32.441  53.384  0.00  0.00     0.029 A 
ATOM      7  O   UNL d   1      51.168  33.438  52.885  0.00  0.00    -0.324 OA
ATOM      8  C   UNL d   1      50.394  33.602  52.678  0.00  0.00     0.182 C 
ENDROOT
BRANCH   4   9
ATOM      9  O   UNL d   1      51.767  31.905  53.035  0.00  0.00    -0.326 OA
ATOM     10  C   UNL d   1      52.077  31.147  53.056  0.00  0.00     0.181 C 
ENDBRANCH   4   9
BRANCH   3  11
ATOM     11  O   UNL d   1      52.147  34.757  53.160  0.00  0.00    -0.326 OA
ATOM     12  C   UNL d   1      52.433  35.358  53.663  0.00  0.00     0.181 C 
ENDBRANCH   3  11
BRANCH   1  13
ATOM     13  C   UNL d   1      54.319  32.971  53.732  0.00  0.00     0.120 C 
ATOM     14  S   UNL d   1      54.839  32.612  53.189  0.00  0.00    -0.059 SA
BRANCH  13  15
ATOM     15  N   UNL d   1      54.589  33.206  54.482  0.00  0.00    -0.292 N 
ATOM     16  C   UNL d   1      55.175  33.767  54.517  0.00  0.00     0.108 A 
ATOM     17  C   UNL d   1      55.462  34.020  55.256  0.00  0.00     0.142 A 
ATOM     18  O   UNL d   1      55.154  33.702  55.947  0.00  0.00    -0.300 OA
ATOM     19  C   UNL d   1      54.559  33.133  55.904  0.00  0.00     0.142 A 
ATOM     20  C   UNL d   1      54.278  32.886  55.176  0.00  0.00     0.108 A 
ENDBRANCH  13  15
ENDBRANCH   1  13
TORSDOF 4
ENDMDL
MODEL 3
REMARK VINA RESULT:      -5.5      1.803      3.121
REMARK  4 active torsions:
REMARK  status: ('A' for Active; 'I' for Inactive)
REMARK    1  A    between atoms: C_2  and  C_1 
REMARK    2  A    between atoms: N_4  and  C_1 
REMARK    3  A    between atoms: O_13  and  C_5 
REMARK    4  A    between atoms: O_12  and  C_6 
ROOT
ATOM      1  C   UNL d   1      52.780  34.025  53.312  0.00  0.00     0.031 A 
ATOM      2  C   UNL d   1      53.883  33.816  54.522  0.00  0.00     0.138 A 
ATOM      3  C   UNL d   1      53.429  34.509  54.493  0.00  0.00     0.118 A 
ATOM      4  C   UNL d   1      53.785  33.227  53.945  0.00  0.00     0.118 A 
ATOM      5  C   UNL d   1      52.883  34.606  53.889  0.00  0.00     0.029 A 
ATOM      6  C   UNL d   1      53.233  33.333  53.342  0.00  0.00     0.029 A 
ATOM      7  O   UNL d   1      54.439  33.702  55.125  0.00  0.00    -0.324 OA
ATOM      8  C   UNL d   1      54.973  33.641  55.741  0.00  0.00     0.182 C 
ENDROOT
BRANCH   4   9
ATOM      9  O   UNL d   1      54.237  32.535  53.973  0.00  0.00    -0.326 OA
ATOM     10  C   UNL d   1      53.945  31.841  53.650  0.00  0.00     0.181 C 
ENDBRANCH   4   9
BRANCH   3  11
ATOM     11  O   UNL d   1      53.533  35.099  55.078  0.00  0.00    -0.326 OA
ATOM     12  C   UNL d   1      53.202  35.855  54.957  0.00  0.00     0.181 C 
ENDBRANCH   3  11
BRANCH   1  13
ATOM     13  C   UNL d   1      52.234  34.126  52.712  0.00  0.00     0.120 C 
ATOM     14  S   UNL d   1      52.494  34.359  51.956  0.00  0.00    -0.059 SA
BRANCH  13  15
ATOM     15  N   UNL d   1      51.426  33.996  52.859  0.00  0.00    -0.292 N 
ATOM     16  C   UNL d   1      50.917  34.621  52.761  0.00  0.00     0.108 A 
ATOM     17  C   UNL d   1      50.103  34.517  52.901  0.00  0.00     0.142 A 
ATOM     18  O   UNL d   1      49.817  33.785  53.138  0.00  0.00    -0.300 OA
ATOM     19  C   UNL d   1      50.340  33.155  53.236  0.00  0.00     0.142 A 
ATOM     20  C   UNL d   1      51.140  33.260  53.097  0.00  0.00     0.108 A 
ENDBRANCH  13  15
ENDBRANCH   1  13
TORSDOF 4
ENDMDL
MODEL 4
REMARK VINA RESULT:      -5.5      1.813      3.113
REMARK  4 active torsions:
REMARK  status: ('A' for Active; 'I' for Inactive)
REMARK    1  A    between atoms: C_2  and  C_1 
REMARK    2  A    between atoms: N_4  and  C_1 
REMARK    3  A    between atoms: O_13  and  C_5 
REMARK    4  A    between atoms: O_12  and  C_6 
ROOT
ATOM      1  C   UNL d   1      52.779  34.042  53.311  0.00  0.00     0.031 A 
ATOM      2  C   UNL d   1      53.881  33.855  54.524  0.00  0.00     0.138 A 
ATOM      3  C   UNL d   1      53.785  33.256  53.959  0.00  0.00     0.118 A 
ATOM      4  C   UNL d   1      53.425  34.547  54.483  0.00  0.00     0.118 A 
ATOM      5  C   UNL d   1      53.236  33.356  53.358  0.00  0.00     0.029 A 
ATOM      6  C   UNL d   1      52.875  34.638  53.875  0.00  0.00     0.029 A 
ATOM      7  O   UNL d   1      54.431  33.770  55.138  0.00  0.00    -0.324 OA
ATOM      8  C   UNL d   1      54.988  33.636  55.721  0.00  0.00     0.182 C 
ENDROOT
BRANCH   4   9
ATOM      9  O   UNL d   1      53.519  35.145  55.046  0.00  0.00    -0.326 OA
ATOM     10  C   UNL d   1      53.191  35.885  54.918  0.00  0.00     0.181 C 
ENDBRANCH   4   9
BRANCH   3  11
ATOM     11  O   UNL d   1      54.249  32.560  54.008  0.00  0.00    -0.326 OA
ATOM     12  C   UNL d   1      53.960  31.855  53.668  0.00  0.00     0.181 C 
ENDBRANCH   3  11
BRANCH   1  13
ATOM     13  C   UNL d   1      52.232  34.137  52.710  0.00  0.00     0.120 C 
ATOM     14  S   UNL d   1      52.491  34.373  51.954  0.00  0.00    -0.059 SA
BRANCH  13  15
ATOM     15  N   UNL d   1      51.426  33.997  52.855  0.00  0.00    -0.292 N 
ATOM     16  C   UNL d   1      50.909  34.613  52.750  0.00  0.00     0.108 A 
ATOM     17  C   UNL d   1      50.096  34.500  52.890  0.00  0.00     0.142 A 
ATOM     18  O   UNL d   1      49.819  33.766  53.133  0.00  0.00    -0.300 OA
ATOM     19  C   UNL d   1      50.351  33.145  53.238  0.00  0.00     0.142 A 
ATOM     20  C   UNL d   1      51.150  33.259  53.100  0.00  0.00     0.108 A 
ENDBRANCH  13  15
ENDBRANCH   1  13
TORSDOF 4
ENDMDL
MODEL 5
REMARK VINA RESULT:      -5.2      1.617      3.293
REMARK  4 active torsions:
REMARK  status: ('A' for Active; 'I' for Inactive)
REMARK    1  A    between atoms: C_2  and  C_1 
REMARK    2  A    between atoms: N_4  and  C_1 
REMARK    3  A    between atoms: O_13  and  C_5 
REMARK    4  A    between atoms: O_12  and  C_6 
ROOT
ATOM      1  C   UNL d   1      52.814  33.319  53.336  0.00  0.00     0.031 A 
ATOM      2  C   UNL d   1      53.410  31.855  53.810  0.00  0.00     0.138 A 
ATOM      3  C   UNL d   1      53.008  31.922  53.089  0.00  0.00     0.118 A 
ATOM      4  C   UNL d   1      53.514  32.520  54.295  0.00  0.00     0.118 A 
ATOM      5  C   UNL d   1      52.715  32.654  52.859  0.00  0.00     0.029 A 
ATOM      6  C   UNL d   1      53.216  33.251  54.056  0.00  0.00     0.029 A 
ATOM      7  O   UNL d   1      53.713  31.125  54.057  0.00  0.00    -0.324 OA
ATOM      8  C   UNL d   1      53.991  30.381  54.252  0.00  0.00     0.182 C 
ENDROOT
BRANCH   4   9
ATOM      9  O   UNL d   1      53.915  32.455  55.015  0.00  0.00    -0.326 OA
ATOM     10  C   UNL d   1      54.328  33.096  55.316  0.00  0.00     0.181 C 
ENDBRANCH   4   9
BRANCH   3  11
ATOM     11  O   UNL d   1      52.907  31.246  52.604  0.00  0.00    -0.326 OA
ATOM     12  C   UNL d   1      52.167  30.860  52.596  0.00  0.00     0.181 C 
ENDBRANCH   3  11
BRANCH   1  13
ATOM     13  C   UNL d   1      52.520  34.046  53.103  0.00  0.00     0.120 C 
ATOM     14  S   UNL d   1      53.043  34.686  53.000  0.00  0.00    -0.059 SA
BRANCH  13  15
ATOM     15  N   UNL d   1      51.705  34.141  52.971  0.00  0.00    -0.292 N 
ATOM     16  C   UNL d   1      51.450  34.214  52.204  0.00  0.00     0.108 A 
ATOM     17  C   UNL d   1      50.638  34.311  52.045  0.00  0.00     0.142 A 
ATOM     18  O   UNL d   1      50.098  34.332  52.663  0.00  0.00    -0.300 OA
ATOM     19  C   UNL d   1      50.365  34.257  53.440  0.00  0.00     0.142 A 
ATOM     20  C   UNL d   1      51.163  34.162  53.594  0.00  0.00     0.108 A 
ENDBRANCH  13  15
ENDBRANCH   1  13
TORSDOF 4
ENDMDL
MODEL 6
REMARK VINA RESULT:      -4.8      1.195      3.638
REMARK  4 active torsions:
REMARK  status: ('A' for Active; 'I' for Inactive)
REMARK    1  A    between atoms: C_2  and  C_1 
REMARK    2  A    between atoms: N_4  and  C_1 
REMARK    3  A    between atoms: O_13  and  C_5 
REMARK    4  A    between atoms: O_12  and  C_6 
ROOT
ATOM      1  C   UNL d   1      53.749  32.355  53.569  0.00  0.00     0.031 A 
ATOM      2  C   UNL d   1      52.611  31.179  53.361  0.00  0.00     0.138 A 
ATOM      3  C   UNL d   1      53.345  30.988  53.695  0.00  0.00     0.118 A 
ATOM      4  C   UNL d   1      52.446  31.960  53.132  0.00  0.00     0.118 A 
ATOM      5  C   UNL d   1      53.906  31.578  53.795  0.00  0.00     0.029 A 
ATOM      6  C   UNL d   1      53.016  32.546  53.236  0.00  0.00     0.029 A 
ATOM      7  O   UNL d   1      52.033  30.596  53.253  0.00  0.00    -0.324 OA
ATOM      8  C   UNL d   1      51.499  29.983  53.169  0.00  0.00     0.182 C 
ENDROOT
BRANCH   4   9
ATOM      9  O   UNL d   1      51.714  32.152  52.799  0.00  0.00    -0.326 OA
ATOM     10  C   UNL d   1      51.424  32.917  52.858  0.00  0.00     0.181 C 
ENDBRANCH   4   9
BRANCH   3  11
ATOM     11  O   UNL d   1      53.504  30.198  53.924  0.00  0.00    -0.326 OA
ATOM     12  C   UNL d   1      54.221  29.842  53.687  0.00  0.00     0.181 C 
ENDBRANCH   3  11
BRANCH   1  13
ATOM     13  C   UNL d   1      54.312  32.940  53.671  0.00  0.00     0.120 C 
ATOM     14  S   UNL d   1      54.899  33.049  53.091  0.00  0.00    -0.059 SA
BRANCH  13  15
ATOM     15  N   UNL d   1      54.295  33.419  54.350  0.00  0.00    -0.292 N 
ATOM     16  C   UNL d   1      54.768  33.210  54.976  0.00  0.00     0.108 A 
ATOM     17  C   UNL d   1      54.769  33.673  55.667  0.00  0.00     0.142 A 
ATOM     18  O   UNL d   1      54.293  34.340  55.715  0.00  0.00    -0.300 OA
ATOM     19  C   UNL d   1      53.815  34.547  55.076  0.00  0.00     0.142 A 
ATOM     20  C   UNL d   1      53.816  34.090  54.397  0.00  0.00     0.108 A 
ENDBRANCH  13  15
ENDBRANCH   1  13
TORSDOF 4
ENDMDL
