MODEL 1
REMARK VINA RESULT:      -5.1      0.000      0.000
REMARK  4 active torsions:
REMARK  status: ('A' for Active; 'I' for Inactive)
REMARK    1  A    between atoms: S_7  and  C_3 
REMARK    2  A    between atoms: C_12  and  S_7 
REMARK    3  A    between atoms: C_9  and  C_12 
REMARK    4  A    between atoms: C_11  and  C_9 
ROOT
ATOM      1  S   UNL d   1      57.511  -0.948  30.891  0.00  0.00    -0.043 SA
ENDROOT
BRANCH   1   2
ATOM      2  C   UNL d   1      57.886  -0.540  30.282  0.00  0.00     0.220 A 
ATOM      3  N   UNL d   1      58.423  -0.930  29.793  0.00  0.00    -0.149 N 
ATOM      4  C   UNL d   1      58.806  -0.529  29.177  0.00  0.00     0.303 A 
ATOM      5  N   UNL d   1      58.585  -1.729  29.913  0.00  0.00    -0.037 N 
ATOM      6  C   UNL d   1      58.637   0.275  29.064  0.00  0.00     0.161 A 
ATOM      7  O   UNL d   1      59.338  -0.917  28.692  0.00  0.00    -0.263 OA
ATOM      8  C   UNL d   1      59.012   0.682  28.455  0.00  0.00     0.028 C 
ATOM      9  N   UNL d   1      58.100   0.666  29.554  0.00  0.00    -0.141 NA
ATOM     10  N   UNL d   1      57.727   0.256  30.160  0.00  0.00    -0.121 NA
ENDBRANCH   1   2
BRANCH   1  11
ATOM     11  C   UNL d   1      57.063  -0.539  31.445  0.00  0.00     0.080 C 
BRANCH  11  12
ATOM     12  C   UNL d   1      56.626  -0.956  31.998  0.00  0.00     0.202 C 
ATOM     13  O   UNL d   1      56.549  -1.772  31.954  0.00  0.00    -0.286 OA
BRANCH  12  14
ATOM     14  C   UNL d   1      56.254  -0.539  32.618  0.00  0.00     0.040 A 
ATOM     15  C   UNL d   1      55.560  -0.846  32.953  0.00  0.00     0.004 A 
ATOM     16  C   UNL d   1      55.187  -0.438  33.566  0.00  0.00     0.011 A 
ATOM     17  C   UNL d   1      55.511   0.279  33.843  0.00  0.00     0.058 A 
ATOM     18  C   UNL d   1      56.196   0.577  33.507  0.00  0.00     0.011 A 
ATOM     19 CL   UNL d   1      55.141   0.682  34.449  0.00  0.00    -0.082 Cl
ATOM     20  C   UNL d   1      56.573   0.173  32.894  0.00  0.00     0.004 A 
ENDBRANCH  12  14
ENDBRANCH  11  12
ENDBRANCH   1  11
TORSDOF 4
ENDMDL
MODEL 2
REMARK VINA RESULT:      -5.1      1.412      2.085
REMARK  4 active torsions:
REMARK  status: ('A' for Active; 'I' for Inactive)
REMARK    1  A    between atoms: S_7  and  C_3 
REMARK    2  A    between atoms: C_12  and  S_7 
REMARK    3  A    between atoms: C_9  and  C_12 
REMARK    4  A    between atoms: C_11  and  C_9 
ROOT
ATOM      1  S   UNL d   1      58.320  -0.680  29.975  0.00  0.00    -0.043 SA
ENDROOT
BRANCH   1   2
ATOM      2  C   UNL d   1      58.695  -1.336  29.650  0.00  0.00     0.220 A 
ATOM      3  N   UNL d   1      59.439  -1.257  29.303  0.00  0.00    -0.149 N 
ATOM      4  C   UNL d   1      59.826  -1.911  28.972  0.00  0.00     0.303 A 
ATOM      5  N   UNL d   1      59.808  -0.520  29.282  0.00  0.00    -0.037 N 
ATOM      6  C   UNL d   1      59.447  -2.649  28.998  0.00  0.00     0.161 A 
ATOM      7  O   UNL d   1      60.564  -1.832  28.629  0.00  0.00    -0.263 OA
ATOM      8  C   UNL d   1      59.823  -3.304  28.672  0.00  0.00     0.028 C 
ATOM      9  N   UNL d   1      58.702  -2.728  29.345  0.00  0.00    -0.141 NA
ATOM     10  N   UNL d   1      58.331  -2.071  29.669  0.00  0.00    -0.121 NA
ENDBRANCH   1   2
BRANCH   1  11
ATOM     11  C   UNL d   1      57.832  -0.768  30.630  0.00  0.00     0.080 C 
BRANCH  11  12
ATOM     12  C   UNL d   1      57.365  -0.140  30.873  0.00  0.00     0.202 C 
ATOM     13  O   UNL d   1      57.331   0.558  30.443  0.00  0.00    -0.286 OA
BRANCH  12  14
ATOM     14  C   UNL d   1      56.916  -0.217  31.572  0.00  0.00     0.040 A 
ATOM     15  C   UNL d   1      56.720   0.463  32.005  0.00  0.00     0.004 A 
ATOM     16  C   UNL d   1      56.276   0.394  32.697  0.00  0.00     0.011 A 
ATOM     17  C   UNL d   1      56.028  -0.359  32.955  0.00  0.00     0.058 A 
ATOM     18  C   UNL d   1      56.225  -1.027  32.523  0.00  0.00     0.011 A 
ATOM     19 CL   UNL d   1      55.589  -0.427  33.640  0.00  0.00    -0.082 Cl
ATOM     20  C   UNL d   1      56.669  -0.963  31.831  0.00  0.00     0.004 A 
ENDBRANCH  12  14
ENDBRANCH  11  12
ENDBRANCH   1  11
TORSDOF 4
ENDMDL
MODEL 3
REMARK VINA RESULT:      -4.8      2.467      4.797
REMARK  4 active torsions:
REMARK  status: ('A' for Active; 'I' for Inactive)
REMARK    1  A    between atoms: S_7  and  C_3 
REMARK    2  A    between atoms: C_12  and  S_7 
REMARK    3  A    between atoms: C_9  and  C_12 
REMARK    4  A    between atoms: C_11  and  C_9 
ROOT
ATOM      1  S   UNL d   1      57.472  -0.046  30.975  0.00  0.00    -0.043 SA
ENDROOT
BRANCH   1   2
ATOM      2  C   UNL d   1      57.050  -0.418  31.576  0.00  0.00     0.220 A 
ATOM      3  N   UNL d   1      56.974  -0.054  32.313  0.00  0.00    -0.149 N 
ATOM      4  C   UNL d   1      56.551  -0.419  32.925  0.00  0.00     0.303 A 
ATOM      5  N   UNL d   1      57.319   0.682  32.448  0.00  0.00    -0.037 N 
ATOM      6  C   UNL d   1      56.206  -1.160  32.780  0.00  0.00     0.161 A 
ATOM      7  O   UNL d   1      56.475  -0.059  33.655  0.00  0.00    -0.263 OA
ATOM      8  C   UNL d   1      55.784  -1.530  33.382  0.00  0.00     0.028 C 
ATOM      9  N   UNL d   1      56.283  -1.524  32.043  0.00  0.00    -0.141 NA
ATOM     10  N   UNL d   1      56.704  -1.151  31.446  0.00  0.00    -0.121 NA
ENDBRANCH   1   2
BRANCH   1  11
ATOM     11  C   UNL d   1      57.993  -0.479  30.511  0.00  0.00     0.080 C 
BRANCH  11  12
ATOM     12  C   UNL d   1      58.290  -0.149  29.822  0.00  0.00     0.202 C 
ATOM     13  O   UNL d   1      57.913   0.480  29.453  0.00  0.00    -0.286 OA
BRANCH  12  14
ATOM     14  C   UNL d   1      58.989  -0.463  29.492  0.00  0.00     0.040 A 
ATOM     15  C   UNL d   1      59.716  -0.104  29.667  0.00  0.00     0.004 A 
ATOM     16  C   UNL d   1      60.411  -0.409  29.344  0.00  0.00     0.011 A 
ATOM     17  C   UNL d   1      60.377  -1.076  28.844  0.00  0.00     0.058 A 
ATOM     18  C   UNL d   1      59.656  -1.426  28.675  0.00  0.00     0.011 A 
ATOM     19 CL   UNL d   1      61.065  -1.377  28.525  0.00  0.00    -0.082 Cl
ATOM     20  C   UNL d   1      58.958  -1.124  28.996  0.00  0.00     0.004 A 
ENDBRANCH  12  14
ENDBRANCH  11  12
ENDBRANCH   1  11
TORSDOF 4
ENDMDL
