MODEL 1
REMARK VINA RESULT:      45.3      0.000      0.000
REMARK  7 active torsions:
REMARK  status: ('A' for Active; 'I' for Inactive)
REMARK    1  A    between atoms: C_3  and  C_1 
REMARK    2  A    between atoms: C_9  and  N_2 
REMARK    3  A    between atoms: C_6  and  C_3 
REMARK    4  A    between atoms: C_8  and  C_3 
REMARK       I    between atoms: N_11  and  C_6 
REMARK    5  A    between atoms: C_26  and  C_7 
REMARK    6  A    between atoms: C_21  and  N_11 
REMARK    7  A    between atoms: C_12  and  C_21 
ROOT
ATOM      1  C   UNL d   1      13.436  13.732  -3.798  0.00  0.00     0.103 A 
ATOM      2  N   UNL d   1      13.666  13.237  -3.185  0.00  0.00    -0.269 N 
ATOM      3  S   UNL d   1      13.173  13.261  -4.423  0.00  0.00    -0.064 SA
ATOM      4  C   UNL d   1      13.548  12.455  -3.423  0.00  0.00     0.271 A 
ATOM      5  C   UNL d   1      13.243  12.474  -4.190  0.00  0.00     0.087 A 
ATOM      6  O   UNL d   1      13.707  11.783  -2.977  0.00  0.00    -0.266 OA
ENDROOT
BRANCH   1   7
ATOM      7  C   UNL d   1      13.461  14.560  -3.794  0.00  0.00     0.101 C 
BRANCH   7   8
ATOM      8  C   UNL d   1      14.166  14.953  -3.617  0.00  0.00     0.283 C 
ATOM      9  N   UNL d   1      14.156  15.628  -3.156  0.00  0.00    -0.204 NA
ATOM     10  O   UNL d   1      14.883  14.659  -3.909  0.00  0.00    -0.265 OA
BRANCH   9  11
ATOM     11  C   UNL d   1      14.860  16.021  -2.978  0.00  0.00     0.127 C 
BRANCH  11  12
ATOM     12  C   UNL d   1      15.005  16.303  -2.219  0.00  0.00     0.119 A 
ATOM     13  O   UNL d   1      14.876  15.905  -1.512  0.00  0.00    -0.304 OA
ATOM     14  C   UNL d   1      15.100  16.399  -0.891  0.00  0.00     0.123 A 
ATOM     15  C   UNL d   1      15.369  17.105  -1.215  0.00  0.00     0.029 A 
ATOM     16  C   UNL d   1      15.312  17.049  -2.034  0.00  0.00     0.028 A 
ENDBRANCH  11  12
ENDBRANCH   9  11
ENDBRANCH   7   8
BRANCH   7  17
ATOM     17  C   UNL d   1      12.776  14.996  -3.969  0.00  0.00     0.129 C 
ATOM     18  N   UNL d   1      12.779  15.511  -4.610  0.00  0.00    -0.146 N 
ENDBRANCH   7  17
ENDBRANCH   1   7
BRANCH   2  19
ATOM     19  C   UNL d   1      13.950  12.982  -2.453  0.00  0.00     0.067 A 
ATOM     20  C   UNL d   1      13.430  12.811  -1.847  0.00  0.00     0.018 A 
ATOM     21  C   UNL d   1      13.711  12.558  -1.121  0.00  0.00     0.008 A 
ATOM     22  C   UNL d   1      14.527  12.476  -1.001  0.00  0.00     0.035 A 
ATOM     23  C   UNL d   1      15.049  12.649  -1.614  0.00  0.00     0.008 A 
ATOM     24 BR   UNL d   1      14.817  12.223  -0.276  0.00  0.00    -0.049 Br
ATOM     25  C   UNL d   1      14.763  12.902  -2.340  0.00  0.00     0.018 A 
ENDBRANCH   2  19
BRANCH   5  26
ATOM     26  C   UNL d   1      13.045  11.812  -4.642  0.00  0.00     0.011 C 
ATOM     27  C   UNL d   1      13.150  11.829  -5.462  0.00  0.00     0.001 C 
ENDBRANCH   5  26
TORSDOF 7
ENDMDL
