MODEL 1
REMARK VINA RESULT:      -5.5      0.000      0.000
REMARK  2 active torsions:
REMARK  status: ('A' for Active; 'I' for Inactive)
REMARK    1  A    between atoms: C_6  and  C_3 
REMARK    2  A    between atoms: C_13  and  C_7 
ROOT
ATOM      1  C   UNL d   1     -41.490-123.096 -52.074  0.00  0.00     0.018 A 
ATOM      2  C   UNL d   1     -41.676-123.106 -50.440  0.00  0.00     0.000 A 
ATOM      3  C   UNL d   1     -41.519-122.385 -51.662  0.00  0.00     0.002 A 
ATOM      4  C   UNL d   1     -41.554-123.817 -51.674  0.00  0.00     0.002 A 
ATOM      5  C   UNL d   1     -41.612-122.386 -50.842  0.00  0.00     0.000 A 
ATOM      6  C   UNL d   1     -41.647-123.817 -50.857  0.00  0.00     0.000 A 
ENDROOT
BRANCH   1   7
ATOM      7  C   UNL d   1     -41.396-123.095 -52.895  0.00  0.00     0.090 A 
ATOM      8  N   UNL d   1     -41.548-122.463 -53.402  0.00  0.00    -0.219 NA
ATOM      9  C   UNL d   1     -41.381-122.703 -54.171  0.00  0.00     0.215 A 
ATOM     10  S   UNL d   1     -41.123-123.486 -54.151  0.00  0.00    -0.045 SA
ATOM     11  N   UNL d   1     -41.456-122.241 -54.852  0.00  0.00    -0.120 N 
ATOM     12  C   UNL d   1     -41.131-123.733 -53.361  0.00  0.00     0.058 A 
ENDBRANCH   1   7
BRANCH   2  13
ATOM     13  C   UNL d   1     -41.770-123.110 -49.620  0.00  0.00     0.000 A 
ATOM     14  C   UNL d   1     -42.518-122.982 -49.297  0.00  0.00     0.000 A 
ATOM     15  C   UNL d   1     -42.608-122.987 -48.488  0.00  0.00     0.000 A 
ATOM     16  C   UNL d   1     -41.962-123.117 -47.990  0.00  0.00     0.000 A 
ATOM     17  C   UNL d   1     -41.222-123.244 -48.318  0.00  0.00     0.000 A 
ATOM     18  C   UNL d   1     -41.124-123.240 -49.135  0.00  0.00     0.000 A 
ENDBRANCH   2  13
TORSDOF 2
ENDMDL
MODEL 2
REMARK VINA RESULT:      -5.1      1.939      4.365
REMARK  2 active torsions:
REMARK  status: ('A' for Active; 'I' for Inactive)
REMARK    1  A    between atoms: C_6  and  C_3 
REMARK    2  A    between atoms: C_13  and  C_7 
ROOT
ATOM      1  C   UNL d   1     -41.521-122.997 -51.378  0.00  0.00     0.018 A 
ATOM      2  C   UNL d   1     -41.584-122.706 -52.995  0.00  0.00     0.000 A 
ATOM      3  C   UNL d   1     -41.535-122.223 -51.653  0.00  0.00     0.002 A 
ATOM      4  C   UNL d   1     -41.539-123.632 -51.908  0.00  0.00     0.002 A 
ATOM      5  C   UNL d   1     -41.566-122.072 -52.464  0.00  0.00     0.000 A 
ATOM      6  C   UNL d   1     -41.570-123.482 -52.715  0.00  0.00     0.000 A 
ENDROOT
BRANCH   1   7
ATOM      7  C   UNL d   1     -41.490-123.148 -50.566  0.00  0.00     0.090 A 
ATOM      8  N   UNL d   1     -41.815-122.679 -49.971  0.00  0.00    -0.219 NA
ATOM      9  C   UNL d   1     -41.654-123.034 -49.246  0.00  0.00     0.215 A 
ATOM     10  S   UNL d   1     -41.227-123.726 -49.382  0.00  0.00    -0.045 SA
ATOM     11  N   UNL d   1     -41.879-122.749 -48.504  0.00  0.00    -0.120 N 
ATOM     12  C   UNL d   1     -41.123-123.800 -50.200  0.00  0.00     0.058 A 
ENDBRANCH   1   7
BRANCH   2  13
ATOM     13  C   UNL d   1     -41.616-122.559 -53.807  0.00  0.00     0.000 A 
ATOM     14  C   UNL d   1     -42.147-121.998 -54.097  0.00  0.00     0.000 A 
ATOM     15  C   UNL d   1     -42.176-121.855 -54.897  0.00  0.00     0.000 A 
ATOM     16  C   UNL d   1     -41.683-122.262 -55.419  0.00  0.00     0.000 A 
ATOM     17  C   UNL d   1     -41.157-122.818 -55.125  0.00  0.00     0.000 A 
ATOM     18  C   UNL d   1     -41.123-122.967 -54.317  0.00  0.00     0.000 A 
ENDBRANCH   2  13
TORSDOF 2
ENDMDL
MODEL 3
REMARK VINA RESULT:      -4.9      2.255      4.387
REMARK  2 active torsions:
REMARK  status: ('A' for Active; 'I' for Inactive)
REMARK    1  A    between atoms: C_6  and  C_3 
REMARK    2  A    between atoms: C_13  and  C_7 
ROOT
ATOM      1  C   UNL d   1     -41.693-123.115 -50.419  0.00  0.00     0.018 A 
ATOM      2  C   UNL d   1     -41.492-123.072 -52.050  0.00  0.00     0.000 A 
ATOM      3  C   UNL d   1     -41.622-123.817 -50.841  0.00  0.00     0.002 A 
ATOM      4  C   UNL d   1     -41.665-122.387 -50.809  0.00  0.00     0.002 A 
ATOM      5  C   UNL d   1     -41.520-123.800 -51.660  0.00  0.00     0.000 A 
ATOM      6  C   UNL d   1     -41.564-122.369 -51.624  0.00  0.00     0.000 A 
ENDROOT
BRANCH   1   7
ATOM      7  C   UNL d   1     -41.795-123.133 -49.599  0.00  0.00     0.090 A 
ATOM      8  N   UNL d   1     -41.206-123.269 -49.038  0.00  0.00    -0.219 NA
ATOM      9  C   UNL d   1     -41.549-123.239 -48.292  0.00  0.00     0.215 A 
ATOM     10  S   UNL d   1     -42.355-123.084 -48.379  0.00  0.00    -0.045 SA
ATOM     11  N   UNL d   1     -41.158-123.345 -47.571  0.00  0.00    -0.120 N 
ATOM     12  C   UNL d   1     -42.511-123.018 -49.189  0.00  0.00     0.058 A 
ENDBRANCH   1   7
BRANCH   2  13
ATOM     13  C   UNL d   1     -41.391-123.051 -52.870  0.00  0.00     0.000 A 
ATOM     14  C   UNL d   1     -41.459-122.331 -53.268  0.00  0.00     0.000 A 
ATOM     15  C   UNL d   1     -41.358-122.313 -54.075  0.00  0.00     0.000 A 
ATOM     16  C   UNL d   1     -41.191-123.002 -54.498  0.00  0.00     0.000 A 
ATOM     17  C   UNL d   1     -41.125-123.713 -54.096  0.00  0.00     0.000 A 
ATOM     18  C   UNL d   1     -41.225-123.739 -53.280  0.00  0.00     0.000 A 
ENDBRANCH   2  13
TORSDOF 2
ENDMDL
MODEL 4
REMARK VINA RESULT:      -4.8      0.865      1.102
REMARK  2 active torsions:
REMARK  status: ('A' for Active; 'I' for Inactive)
REMARK    1  A    between atoms: C_6  and  C_3 
REMARK    2  A    between atoms: C_13  and  C_7 
ROOT
ATOM      1  C   UNL d   1     -41.489-122.689 -52.860  0.00  0.00     0.018 A 
ATOM      2  C   UNL d   1     -41.342-122.880 -51.233  0.00  0.00     0.000 A 
ATOM      3  C   UNL d   1     -41.649-122.058 -52.358  0.00  0.00     0.002 A 
ATOM      4  C   UNL d   1     -41.254-123.420 -52.553  0.00  0.00     0.002 A 
ATOM      5  C   UNL d   1     -41.577-122.149 -51.541  0.00  0.00     0.000 A 
ATOM      6  C   UNL d   1     -41.182-123.512 -51.740  0.00  0.00     0.000 A 
ENDROOT
BRANCH   1   7
ATOM      7  C   UNL d   1     -41.561-122.596 -53.678  0.00  0.00     0.090 A 
ATOM      8  N   UNL d   1     -42.014-122.026 -54.065  0.00  0.00    -0.219 NA
ATOM      9  C   UNL d   1     -41.926-122.135 -54.876  0.00  0.00     0.215 A 
ATOM     10  S   UNL d   1     -41.419-122.773 -55.002  0.00  0.00    -0.045 SA
ATOM     11  N   UNL d   1     -42.283-121.684 -55.469  0.00  0.00    -0.120 N 
ATOM     12  C   UNL d   1     -41.190-123.062 -54.261  0.00  0.00     0.058 A 
ENDBRANCH   1   7
BRANCH   2  13
ATOM     13  C   UNL d   1     -41.269-122.976 -50.416  0.00  0.00     0.000 A 
ATOM     14  C   UNL d   1     -41.202-122.309 -49.935  0.00  0.00     0.000 A 
ATOM     15  C   UNL d   1     -41.130-122.406 -49.130  0.00  0.00     0.000 A 
ATOM     16  C   UNL d   1     -41.123-123.160 -48.792  0.00  0.00     0.000 A 
ATOM     17  C   UNL d   1     -41.189-123.817 -49.276  0.00  0.00     0.000 A 
ATOM     18  C   UNL d   1     -41.263-123.727 -50.091  0.00  0.00     0.000 A 
ENDBRANCH   2  13
TORSDOF 2
ENDMDL
