MODEL 1
REMARK VINA RESULT:      -3.6      0.000      0.000
REMARK  6 active torsions:
REMARK  status: ('A' for Active; 'I' for Inactive)
REMARK    1  A    between atoms: C_4  and  C_1 
REMARK       I    between atoms: N_6  and  C_1 
REMARK    2  A    between atoms: C_7  and  C_4 
REMARK    3  A    between atoms: O_20  and  C_5 
REMARK    4  A    between atoms: C_8  and  N_6 
REMARK    5  A    between atoms: C_13  and  C_7 
REMARK    6  A    between atoms: O_21  and  C_10 
ROOT
ATOM      1  C   UNL d   1     -41.812-122.277 -51.157  0.00  0.00     0.076 C 
ENDROOT
BRANCH   1   2
ATOM      2  C   UNL d   1     -41.510-121.889 -51.793  0.00  0.00     0.328 C 
ATOM      3  N   UNL d   1     -41.490-122.243 -52.539  0.00  0.00    -0.365 NA
ATOM      4  O   UNL d   1     -41.213-121.121 -51.707  0.00  0.00    -0.251 OA
BRANCH   3   5
ATOM      5  C   UNL d   1     -41.474-122.613 -53.292  0.00  0.00     0.136 A 
ATOM      6  C   UNL d   1     -41.778-122.227 -53.950  0.00  0.00     0.044 A 
ATOM      7  C   UNL d   1     -41.766-122.595 -54.715  0.00  0.00     0.071 A 
ATOM      8 CL   UNL d   1     -42.065-122.214 -55.362  0.00  0.00    -0.081 Cl
ATOM      9  C   UNL d   1     -41.437-123.355 -54.770  0.00  0.00     0.069 A 
ATOM     10  C   UNL d   1     -41.133-123.741 -54.113  0.00  0.00     0.015 A 
ATOM     11 CL   UNL d   1     -41.431-123.703 -55.521  0.00  0.00    -0.082 Cl
ATOM     12  C   UNL d   1     -41.145-123.385 -53.370  0.00  0.00     0.033 A 
ENDBRANCH   3   5
ENDBRANCH   1   2
BRANCH   1  13
ATOM     13  C   UNL d   1     -41.803-121.922 -50.406  0.00  0.00     0.006 C 
BRANCH  13  14
ATOM     14  C   UNL d   1     -41.811-122.398 -49.733  0.00  0.00     0.002 A 
ATOM     15  C   UNL d   1     -42.467-122.853 -49.536  0.00  0.00     0.026 A 
ATOM     16  C   UNL d   1     -42.463-123.326 -48.859  0.00  0.00     0.116 A 
ATOM     17  C   UNL d   1     -41.803-123.347 -48.372  0.00  0.00     0.116 A 
ATOM     18  C   UNL d   1     -41.127-122.888 -48.562  0.00  0.00     0.026 A 
ATOM     19  C   UNL d   1     -41.131-122.415 -49.238  0.00  0.00     0.002 A 
BRANCH  16  20
ATOM     20  O   UNL d   1     -43.134-123.784 -48.669  0.00  0.00    -0.326 OA
ATOM     21  C   UNL d   1     -43.799-123.753 -49.150  0.00  0.00     0.181 C 
ENDBRANCH  16  20
BRANCH  17  22
ATOM     22  O   UNL d   1     -41.799-123.817 -47.699  0.00  0.00    -0.326 OA
ATOM     23  C   UNL d   1     -41.157-123.762 -47.169  0.00  0.00     0.181 C 
ENDBRANCH  17  22
ENDBRANCH  13  14
ENDBRANCH   1  13
TORSDOF 6
ENDMDL
MODEL 2
REMARK VINA RESULT:      -1.8      2.827      5.571
REMARK  6 active torsions:
REMARK  status: ('A' for Active; 'I' for Inactive)
REMARK    1  A    between atoms: C_4  and  C_1 
REMARK       I    between atoms: N_6  and  C_1 
REMARK    2  A    between atoms: C_7  and  C_4 
REMARK    3  A    between atoms: O_20  and  C_5 
REMARK    4  A    between atoms: C_8  and  N_6 
REMARK    5  A    between atoms: C_13  and  C_7 
REMARK    6  A    between atoms: O_21  and  C_10 
ROOT
ATOM      1  C   UNL d   1     -41.754-122.571 -51.588  0.00  0.00     0.076 C 
ENDROOT
BRANCH   1   2
ATOM      2  C   UNL d   1     -41.558-123.169 -51.086  0.00  0.00     0.328 C 
ATOM      3  N   UNL d   1     -41.784-123.151 -50.292  0.00  0.00    -0.365 NA
ATOM      4  O   UNL d   1     -41.123-123.816 -51.364  0.00  0.00    -0.251 OA
BRANCH   3   5
ATOM      5  C   UNL d   1     -42.019-123.121 -49.487  0.00  0.00     0.136 A 
ATOM      6  C   UNL d   1     -41.477-122.916 -48.905  0.00  0.00     0.044 A 
ATOM      7  C   UNL d   1     -41.707-122.883 -48.088  0.00  0.00     0.071 A 
ATOM      8 CL   UNL d   1     -41.173-122.681 -47.515  0.00  0.00    -0.081 Cl
ATOM      9  C   UNL d   1     -42.495-123.067 -47.904  0.00  0.00     0.069 A 
ATOM     10  C   UNL d   1     -43.037-123.272 -48.485  0.00  0.00     0.015 A 
ATOM     11 CL   UNL d   1     -42.707-123.032 -47.104  0.00  0.00    -0.082 Cl
ATOM     12  C   UNL d   1     -42.815-123.304 -49.278  0.00  0.00     0.033 A 
ENDBRANCH   3   5
ENDBRANCH   1   2
BRANCH   1  13
ATOM     13  C   UNL d   1     -41.229-122.339 -52.187  0.00  0.00     0.006 C 
BRANCH  13  14
ATOM     14  C   UNL d   1     -41.518-122.196 -52.947  0.00  0.00     0.002 A 
ATOM     15  C   UNL d   1     -41.201-122.573 -53.606  0.00  0.00     0.026 A 
ATOM     16  C   UNL d   1     -41.499-122.423 -54.360  0.00  0.00     0.116 A 
ATOM     17  C   UNL d   1     -42.118-121.894 -54.464  0.00  0.00     0.116 A 
ATOM     18  C   UNL d   1     -42.451-121.503 -53.800  0.00  0.00     0.026 A 
ATOM     19  C   UNL d   1     -42.153-121.654 -53.046  0.00  0.00     0.002 A 
BRANCH  16  20
ATOM     20  O   UNL d   1     -41.169-122.810 -55.021  0.00  0.00    -0.326 OA
ATOM     21  C   UNL d   1     -41.150-123.631 -55.046  0.00  0.00     0.181 C 
ENDBRANCH  16  20
BRANCH  17  22
ATOM     22  O   UNL d   1     -42.415-121.744 -55.214  0.00  0.00    -0.326 OA
ATOM     23  C   UNL d   1     -43.219-121.904 -55.372  0.00  0.00     0.181 C 
ENDBRANCH  17  22
ENDBRANCH  13  14
ENDBRANCH   1  13
TORSDOF 6
ENDMDL
