MODEL 1
REMARK VINA RESULT:     -10.2      0.000      0.000
REMARK  2 active torsions:
REMARK  status: ('A' for Active; 'I' for Inactive)
REMARK    1  A    between atoms: C_13  and  C_2 
REMARK    2  A    between atoms: N_12  and  C_8 
ROOT
ATOM      1  N   UNL d   1      53.393  32.816  53.870  0.00  0.00    -0.301 N 
ATOM      2  C   UNL d   1      54.252  33.481  54.800  0.00  0.00     0.121 A 
ATOM      3  C   UNL d   1      52.958  33.502  53.785  0.00  0.00     0.092 A 
ATOM      4  C   UNL d   1      52.299  33.520  53.271  0.00  0.00     0.134 A 
ATOM      5  C   UNL d   1      53.165  34.181  54.205  0.00  0.00     0.060 A 
ATOM      6  C   UNL d   1      54.045  32.802  54.380  0.00  0.00     0.090 A 
ATOM      7  C   UNL d   1      53.805  34.167  54.706  0.00  0.00     0.204 A 
ATOM      8  C   UNL d   1      51.855  34.212  53.181  0.00  0.00     0.116 A 
ATOM      9  O   UNL d   1      52.090  32.833  52.846  0.00  0.00    -0.301 OA
ATOM     10  C   UNL d   1      52.063  34.891  53.601  0.00  0.00     0.158 A 
ATOM     11  C   UNL d   1      52.726  34.861  54.114  0.00  0.00     0.036 A 
ATOM     12  C   UNL d   1      53.187  32.139  53.452  0.00  0.00     0.089 A 
ATOM     13  O   UNL d   1      54.014  34.852  55.130  0.00  0.00    -0.286 OA
ATOM     14  C   UNL d   1      52.544  32.143  52.945  0.00  0.00     0.140 A 
ATOM     15  F   UNL d   1      51.623  35.597  53.520  0.00  0.00    -0.203 F 
ATOM     16  C   UNL d   1      53.630  31.444  53.540  0.00  0.00     0.021 C 
ENDROOT
BRANCH   8  17
ATOM     17  N   UNL d   1      51.205  34.228  52.672  0.00  0.00    -0.298 N 
ATOM     18  C   UNL d   1      51.327  34.320  51.851  0.00  0.00     0.100 A 
ATOM     19  C   UNL d   1      50.660  34.334  51.349  0.00  0.00     0.100 A 
ATOM     20  N   UNL d   1      49.898  34.259  51.657  0.00  0.00    -0.299 N 
ATOM     21  C   UNL d   1      49.810  34.168  52.483  0.00  0.00     0.100 A 
ATOM     22  C   UNL d   1      49.241  34.274  51.152  0.00  0.00     0.100 C 
ATOM     23  C   UNL d   1      50.444  34.152  52.980  0.00  0.00     0.100 A 
ENDBRANCH   8  17
BRANCH   2  24
ATOM     24  C   UNL d   1      54.907  33.482  55.319  0.00  0.00     0.215 C 
ATOM     25  O   UNL d   1      55.630  33.833  55.096  0.00  0.00    -0.644 OA
ATOM     26  O   UNL d   1      54.843  33.135  56.061  0.00  0.00    -0.644 OA
ENDBRANCH   2  24
TORSDOF 2
ENDMDL
MODEL 2
REMARK VINA RESULT:      -9.4      1.583      3.554
REMARK  2 active torsions:
REMARK  status: ('A' for Active; 'I' for Inactive)
REMARK    1  A    between atoms: C_13  and  C_2 
REMARK    2  A    between atoms: N_12  and  C_8 
ROOT
ATOM      1  N   UNL d   1      52.475  34.082  53.502  0.00  0.00    -0.301 N 
ATOM      2  C   UNL d   1      53.000  35.152  54.293  0.00  0.00     0.121 A 
ATOM      3  C   UNL d   1      52.954  33.555  53.902  0.00  0.00     0.092 A 
ATOM      4  C   UNL d   1      52.936  32.742  53.709  0.00  0.00     0.134 A 
ATOM      5  C   UNL d   1      53.458  33.821  54.499  0.00  0.00     0.060 A 
ATOM      6  C   UNL d   1      52.496  34.886  53.696  0.00  0.00     0.090 A 
ATOM      7  C   UNL d   1      53.478  34.611  54.689  0.00  0.00     0.204 A 
ATOM      8  C   UNL d   1      53.419  32.204  54.111  0.00  0.00     0.116 A 
ATOM      9  O   UNL d   1      52.427  32.473  53.106  0.00  0.00    -0.301 OA
ATOM     10  C   UNL d   1      53.923  32.470  54.708  0.00  0.00     0.158 A 
ATOM     11  C   UNL d   1      53.933  33.288  54.893  0.00  0.00     0.036 A 
ATOM     12  C   UNL d   1      51.973  33.817  52.907  0.00  0.00     0.089 A 
ATOM     13  O   UNL d   1      53.987  34.879  55.291  0.00  0.00    -0.286 OA
ATOM     14  C   UNL d   1      51.946  33.023  52.709  0.00  0.00     0.140 A 
ATOM     15  F   UNL d   1      54.416  31.937  55.123  0.00  0.00    -0.203 F 
ATOM     16  C   UNL d   1      51.488  34.355  52.503  0.00  0.00     0.021 C 
ENDROOT
BRANCH   8  17
ATOM     17  N   UNL d   1      53.400  31.401  53.919  0.00  0.00    -0.298 N 
ATOM     18  C   UNL d   1      52.930  30.880  54.373  0.00  0.00     0.100 A 
ATOM     19  C   UNL d   1      52.921  30.072  54.167  0.00  0.00     0.100 A 
ATOM     20  N   UNL d   1      53.365  29.793  53.530  0.00  0.00    -0.299 N 
ATOM     21  C   UNL d   1      53.825  30.340  53.096  0.00  0.00     0.100 A 
ATOM     22  C   UNL d   1      53.350  28.988  53.333  0.00  0.00     0.100 C 
ATOM     23  C   UNL d   1      53.844  31.123  53.282  0.00  0.00     0.100 A 
ENDBRANCH   8  17
BRANCH   2  24
ATOM     24  C   UNL d   1      53.032  35.962  54.500  0.00  0.00     0.215 C 
ATOM     25  O   UNL d   1      52.474  36.292  55.025  0.00  0.00    -0.644 OA
ATOM     26  O   UNL d   1      53.618  36.442  54.184  0.00  0.00    -0.644 OA
ENDBRANCH   2  24
TORSDOF 2
ENDMDL
MODEL 3
REMARK VINA RESULT:      -9.1      1.923      3.210
REMARK  2 active torsions:
REMARK  status: ('A' for Active; 'I' for Inactive)
REMARK    1  A    between atoms: C_13  and  C_2 
REMARK    2  A    between atoms: N_12  and  C_8 
ROOT
ATOM      1  N   UNL d   1      53.685  33.832  54.680  0.00  0.00    -0.301 N 
ATOM      2  C   UNL d   1      53.134  35.125  54.412  0.00  0.00     0.121 A 
ATOM      3  C   UNL d   1      53.183  33.506  54.124  0.00  0.00     0.092 A 
ATOM      4  C   UNL d   1      53.202  32.684  53.972  0.00  0.00     0.134 A 
ATOM      5  C   UNL d   1      52.655  33.985  53.709  0.00  0.00     0.060 A 
ATOM      6  C   UNL d   1      53.663  34.646  54.828  0.00  0.00     0.090 A 
ATOM      7  C   UNL d   1      52.634  34.784  53.854  0.00  0.00     0.204 A 
ATOM      8  C   UNL d   1      52.697  32.349  53.410  0.00  0.00     0.116 A 
ATOM      9  O   UNL d   1      53.736  32.201  54.392  0.00  0.00    -0.301 OA
ATOM     10  C   UNL d   1      52.168  32.828  52.994  0.00  0.00     0.158 A 
ATOM     11  C   UNL d   1      52.158  33.652  53.155  0.00  0.00     0.036 A 
ATOM     12  C   UNL d   1      54.211  33.355  55.094  0.00  0.00     0.089 A 
ATOM     13  O   UNL d   1      52.100  35.267  53.434  0.00  0.00    -0.286 OA
ATOM     14  C   UNL d   1      54.240  32.549  54.954  0.00  0.00     0.140 A 
ATOM     15  F   UNL d   1      51.651  32.503  52.423  0.00  0.00    -0.203 F 
ATOM     16  C   UNL d   1      54.719  33.689  55.658  0.00  0.00     0.021 C 
ENDROOT
BRANCH   8  17
ATOM     17  N   UNL d   1      52.717  31.537  53.261  0.00  0.00    -0.298 N 
ATOM     18  C   UNL d   1      53.298  31.227  52.747  0.00  0.00     0.100 A 
ATOM     19  C   UNL d   1      53.306  30.404  52.606  0.00  0.00     0.100 A 
ATOM     20  N   UNL d   1      52.753  29.909  52.966  0.00  0.00    -0.299 N 
ATOM     21  C   UNL d   1      52.185  30.250  53.475  0.00  0.00     0.100 A 
ATOM     22  C   UNL d   1      52.769  29.093  52.821  0.00  0.00     0.100 C 
ATOM     23  C   UNL d   1      52.164  31.042  53.621  0.00  0.00     0.100 A 
ENDBRANCH   8  17
BRANCH   2  24
ATOM     24  C   UNL d   1      53.101  35.948  54.550  0.00  0.00     0.215 C 
ATOM     25  O   UNL d   1      52.523  36.275  55.056  0.00  0.00    -0.644 OA
ATOM     26  O   UNL d   1      53.641  36.447  54.185  0.00  0.00    -0.644 OA
ENDBRANCH   2  24
TORSDOF 2
ENDMDL
MODEL 4
REMARK VINA RESULT:      -8.3      1.101      1.993
REMARK  2 active torsions:
REMARK  status: ('A' for Active; 'I' for Inactive)
REMARK    1  A    between atoms: C_13  and  C_2 
REMARK    2  A    between atoms: N_12  and  C_8 
ROOT
ATOM      1  N   UNL d   1      53.210  34.626  54.360  0.00  0.00    -0.301 N 
ATOM      2  C   UNL d   1      54.133  33.613  54.770  0.00  0.00     0.121 A 
ATOM      3  C   UNL d   1      52.802  34.072  53.920  0.00  0.00     0.092 A 
ATOM      4  C   UNL d   1      52.125  34.298  53.485  0.00  0.00     0.134 A 
ATOM      5  C   UNL d   1      53.054  33.287  53.901  0.00  0.00     0.060 A 
ATOM      6  C   UNL d   1      53.881  34.398  54.789  0.00  0.00     0.090 A 
ATOM      7  C   UNL d   1      53.713  33.064  54.322  0.00  0.00     0.204 A 
ATOM      8  C   UNL d   1      51.707  33.742  53.038  0.00  0.00     0.116 A 
ATOM      9  O   UNL d   1      51.870  35.092  53.505  0.00  0.00    -0.301 OA
ATOM     10  C   UNL d   1      51.960  32.956  53.019  0.00  0.00     0.158 A 
ATOM     11  C   UNL d   1      52.641  32.741  53.460  0.00  0.00     0.036 A 
ATOM     12  C   UNL d   1      52.959  35.408  54.378  0.00  0.00     0.089 A 
ATOM     13  O   UNL d   1      53.967  32.271  54.303  0.00  0.00    -0.286 OA
ATOM     14  C   UNL d   1      52.297  35.643  53.958  0.00  0.00     0.140 A 
ATOM     15  F   UNL d   1      51.548  32.383  52.572  0.00  0.00    -0.203 F 
ATOM     16  C   UNL d   1      53.376  35.969  54.826  0.00  0.00     0.021 C 
ENDROOT
BRANCH   8  17
ATOM     17  N   UNL d   1      51.038  33.967  52.610  0.00  0.00    -0.298 N 
ATOM     18  C   UNL d   1      50.302  34.030  52.999  0.00  0.00     0.100 A 
ATOM     19  C   UNL d   1      49.635  34.258  52.553  0.00  0.00     0.100 A 
ATOM     20  N   UNL d   1      49.701  34.418  51.746  0.00  0.00    -0.299 N 
ATOM     21  C   UNL d   1      50.451  34.346  51.386  0.00  0.00     0.100 A 
ATOM     22  C   UNL d   1      49.032  34.645  51.311  0.00  0.00     0.100 C 
ATOM     23  C   UNL d   1      51.104  34.127  51.803  0.00  0.00     0.100 A 
ENDBRANCH   8  17
BRANCH   2  24
ATOM     24  C   UNL d   1      54.808  33.368  55.198  0.00  0.00     0.215 C 
ATOM     25  O   UNL d   1      54.735  33.013  55.949  0.00  0.00    -0.644 OA
ATOM     26  O   UNL d   1      55.557  33.476  54.878  0.00  0.00    -0.644 OA
ENDBRANCH   2  24
TORSDOF 2
ENDMDL
