MODEL 1
REMARK VINA RESULT:      -9.8      0.000      0.000
REMARK  5 active torsions:
REMARK  status: ('A' for Active; 'I' for Inactive)
REMARK    1  A    between atoms: C_8  and  C_1 
REMARK    2  A    between atoms: C_9  and  C_2 
REMARK    3  A    between atoms: S_6  and  C_4 
REMARK    4  A    between atoms: C_11  and  S_6 
REMARK    5  A    between atoms: C_7  and  C_11 
ROOT
ATOM      1  C   UNL d   1      53.072  32.582  53.532  0.00  0.00     0.107 A 
ATOM      2  C   UNL d   1      53.741  32.387  53.973  0.00  0.00     0.120 A 
ATOM      3  N   UNL d   1      52.754  31.880  53.245  0.00  0.00    -0.214 NA
ATOM      4  C   UNL d   1      53.228  31.263  53.512  0.00  0.00     0.215 A 
ATOM      5  O   UNL d   1      53.838  31.586  53.962  0.00  0.00    -0.283 OA
ENDROOT
BRANCH   1   6
ATOM      6  C   UNL d   1      52.745  33.328  53.379  0.00  0.00     0.020 A 
ATOM      7  C   UNL d   1      52.154  33.629  53.894  0.00  0.00     0.002 A 
ATOM      8  C   UNL d   1      51.824  34.390  53.732  0.00  0.00     0.000 A 
ATOM      9  C   UNL d   1      52.083  34.816  53.084  0.00  0.00     0.000 A 
ATOM     10  C   UNL d   1      52.668  34.510  52.581  0.00  0.00     0.000 A 
ATOM     11  C   UNL d   1      53.000  33.767  52.726  0.00  0.00     0.002 A 
ENDBRANCH   1   6
BRANCH   2  12
ATOM     12  C   UNL d   1      54.247  32.899  54.370  0.00  0.00     0.024 A 
ATOM     13  C   UNL d   1      54.113  33.094  55.162  0.00  0.00     0.002 A 
ATOM     14  C   UNL d   1      54.617  33.607  55.569  0.00  0.00     0.000 A 
ATOM     15  C   UNL d   1      55.256  33.924  55.175  0.00  0.00     0.000 A 
ATOM     16  C   UNL d   1      55.397  33.734  54.385  0.00  0.00     0.000 A 
ATOM     17  C   UNL d   1      54.891  33.223  53.988  0.00  0.00     0.002 A 
ENDBRANCH   2  12
BRANCH   4  18
ATOM     18  S   UNL d   1      53.092  30.462  53.341  0.00  0.00    -0.037 SA
BRANCH  18  19
ATOM     19  C   UNL d   1      53.482  29.875  53.797  0.00  0.00     0.103 C 
BRANCH  19  20
ATOM     20  C   UNL d   1      53.127  29.153  53.906  0.00  0.00     0.303 C 
ATOM     21  O   UNL d   1      52.617  28.838  53.315  0.00  0.00    -0.263 OA
ATOM     22  N   UNL d   1      53.265  28.722  54.599  0.00  0.00    -0.102 N 
ENDBRANCH  19  20
ENDBRANCH  18  19
ENDBRANCH   4  18
TORSDOF 5
ENDMDL
MODEL 2
REMARK VINA RESULT:      -9.7      0.429      2.248
REMARK  5 active torsions:
REMARK  status: ('A' for Active; 'I' for Inactive)
REMARK    1  A    between atoms: C_8  and  C_1 
REMARK    2  A    between atoms: C_9  and  C_2 
REMARK    3  A    between atoms: S_6  and  C_4 
REMARK    4  A    between atoms: C_11  and  S_6 
REMARK    5  A    between atoms: C_7  and  C_11 
ROOT
ATOM      1  C   UNL d   1      53.820  32.395  53.998  0.00  0.00     0.107 A 
ATOM      2  C   UNL d   1      53.140  32.547  53.559  0.00  0.00     0.120 A 
ATOM      3  N   UNL d   1      53.942  31.582  53.989  0.00  0.00    -0.214 NA
ATOM      4  C   UNL d   1      53.337  31.244  53.546  0.00  0.00     0.215 A 
ATOM      5  O   UNL d   1      52.844  31.849  53.283  0.00  0.00    -0.283 OA
ENDROOT
BRANCH   1   6
ATOM      6  C   UNL d   1      54.319  32.927  54.392  0.00  0.00     0.020 A 
ATOM      7  C   UNL d   1      54.171  33.107  55.199  0.00  0.00     0.002 A 
ATOM      8  C   UNL d   1      54.683  33.650  55.594  0.00  0.00     0.000 A 
ATOM      9  C   UNL d   1      55.308  33.987  55.190  0.00  0.00     0.000 A 
ATOM     10  C   UNL d   1      55.447  33.803  54.393  0.00  0.00     0.000 A 
ATOM     11  C   UNL d   1      54.954  33.274  53.992  0.00  0.00     0.002 A 
ENDBRANCH   1   6
BRANCH   2  12
ATOM     12  C   UNL d   1      52.793  33.277  53.408  0.00  0.00     0.024 A 
ATOM     13  C   UNL d   1      52.212  33.581  53.911  0.00  0.00     0.002 A 
ATOM     14  C   UNL d   1      51.858  34.313  53.767  0.00  0.00     0.000 A 
ATOM     15  C   UNL d   1      52.091  34.739  53.112  0.00  0.00     0.000 A 
ATOM     16  C   UNL d   1      52.669  34.443  52.604  0.00  0.00     0.000 A 
ATOM     17  C   UNL d   1      53.017  33.714  52.756  0.00  0.00     0.002 A 
ENDBRANCH   2  12
BRANCH   4  18
ATOM     18  S   UNL d   1      53.261  30.429  53.405  0.00  0.00    -0.037 SA
BRANCH  18  19
ATOM     19  C   UNL d   1      53.016  29.926  54.031  0.00  0.00     0.103 C 
BRANCH  19  20
ATOM     20  C   UNL d   1      53.034  29.121  53.927  0.00  0.00     0.303 C 
ATOM     21  O   UNL d   1      52.662  28.772  53.259  0.00  0.00    -0.263 OA
ATOM     22  N   UNL d   1      53.418  28.639  54.480  0.00  0.00    -0.102 N 
ENDBRANCH  19  20
ENDBRANCH  18  19
ENDBRANCH   4  18
TORSDOF 5
ENDMDL
MODEL 3
REMARK VINA RESULT:      -9.3      1.970      3.728
REMARK  5 active torsions:
REMARK  status: ('A' for Active; 'I' for Inactive)
REMARK    1  A    between atoms: C_8  and  C_1 
REMARK    2  A    between atoms: C_9  and  C_2 
REMARK    3  A    between atoms: S_6  and  C_4 
REMARK    4  A    between atoms: C_11  and  S_6 
REMARK    5  A    between atoms: C_7  and  C_11 
ROOT
ATOM      1  C   UNL d   1      53.052  33.121  53.572  0.00  0.00     0.107 A 
ATOM      2  C   UNL d   1      52.718  32.441  53.248  0.00  0.00     0.120 A 
ATOM      3  N   UNL d   1      52.588  33.759  53.337  0.00  0.00    -0.214 NA
ATOM      4  C   UNL d   1      51.975  33.464  52.874  0.00  0.00     0.215 A 
ATOM      5  O   UNL d   1      52.063  32.647  52.823  0.00  0.00    -0.283 OA
ENDROOT
BRANCH   1   6
ATOM      6  C   UNL d   1      53.726  33.198  54.048  0.00  0.00     0.020 A 
ATOM      7  C   UNL d   1      53.640  33.188  54.883  0.00  0.00     0.002 A 
ATOM      8  C   UNL d   1      54.331  33.267  55.363  0.00  0.00     0.000 A 
ATOM      9  C   UNL d   1      55.063  33.351  55.010  0.00  0.00     0.000 A 
ATOM     10  C   UNL d   1      55.138  33.360  54.184  0.00  0.00     0.000 A 
ATOM     11  C   UNL d   1      54.472  33.284  53.701  0.00  0.00     0.002 A 
ENDBRANCH   1   6
BRANCH   2  12
ATOM     12  C   UNL d   1      52.982  31.667  53.326  0.00  0.00     0.024 A 
ATOM     13  C   UNL d   1      52.725  31.194  53.953  0.00  0.00     0.002 A 
ATOM     14  C   UNL d   1      52.985  30.414  54.038  0.00  0.00     0.000 A 
ATOM     15  C   UNL d   1      53.506  30.113  53.489  0.00  0.00     0.000 A 
ATOM     16  C   UNL d   1      53.767  30.577  52.860  0.00  0.00     0.000 A 
ATOM     17  C   UNL d   1      53.503  31.351  52.782  0.00  0.00     0.002 A 
ENDBRANCH   2  12
BRANCH   4  18
ATOM     18  S   UNL d   1      51.384  33.934  52.528  0.00  0.00    -0.037 SA
BRANCH  18  19
ATOM     19  C   UNL d   1      50.639  34.000  52.910  0.00  0.00     0.103 C 
BRANCH  19  20
ATOM     20  C   UNL d   1      50.051  34.441  52.566  0.00  0.00     0.303 C 
ATOM     21  O   UNL d   1      49.901  34.377  51.741  0.00  0.00    -0.263 OA
ATOM     22  N   UNL d   1      49.596  34.957  53.026  0.00  0.00    -0.102 N 
ENDBRANCH  19  20
ENDBRANCH  18  19
ENDBRANCH   4  18
TORSDOF 5
ENDMDL
MODEL 4
REMARK VINA RESULT:      -9.2      1.920      3.497
REMARK  5 active torsions:
REMARK  status: ('A' for Active; 'I' for Inactive)
REMARK    1  A    between atoms: C_8  and  C_1 
REMARK    2  A    between atoms: C_9  and  C_2 
REMARK    3  A    between atoms: S_6  and  C_4 
REMARK    4  A    between atoms: C_11  and  S_6 
REMARK    5  A    between atoms: C_7  and  C_11 
ROOT
ATOM      1  C   UNL d   1      52.760  32.350  53.217  0.00  0.00     0.107 A 
ATOM      2  C   UNL d   1      53.067  33.050  53.526  0.00  0.00     0.120 A 
ATOM      3  N   UNL d   1      52.099  32.549  52.769  0.00  0.00    -0.214 NA
ATOM      4  C   UNL d   1      52.007  33.365  52.808  0.00  0.00     0.215 A 
ATOM      5  O   UNL d   1      52.611  33.668  53.278  0.00  0.00    -0.283 OA
ENDROOT
BRANCH   1   6
ATOM      6  C   UNL d   1      53.030  31.573  53.312  0.00  0.00     0.020 A 
ATOM      7  C   UNL d   1      52.736  31.111  53.949  0.00  0.00     0.002 A 
ATOM      8  C   UNL d   1      53.016  30.319  54.039  0.00  0.00     0.000 A 
ATOM      9  C   UNL d   1      53.563  30.019  53.512  0.00  0.00     0.000 A 
ATOM     10  C   UNL d   1      53.848  30.482  52.886  0.00  0.00     0.000 A 
ATOM     11  C   UNL d   1      53.584  31.259  52.784  0.00  0.00     0.002 A 
ENDBRANCH   1   6
BRANCH   2  12
ATOM     12  C   UNL d   1      53.726  33.139  54.009  0.00  0.00     0.024 A 
ATOM     13  C   UNL d   1      53.651  33.127  54.832  0.00  0.00     0.002 A 
ATOM     14  C   UNL d   1      54.308  33.215  55.325  0.00  0.00     0.000 A 
ATOM     15  C   UNL d   1      55.042  33.316  54.985  0.00  0.00     0.000 A 
ATOM     16  C   UNL d   1      55.126  33.329  54.165  0.00  0.00     0.000 A 
ATOM     17  C   UNL d   1      54.467  33.240  53.682  0.00  0.00     0.002 A 
ENDBRANCH   2  12
BRANCH   4  18
ATOM     18  S   UNL d   1      51.400  33.785  52.426  0.00  0.00    -0.037 SA
BRANCH  18  19
ATOM     19  C   UNL d   1      50.760  34.081  52.882  0.00  0.00     0.103 C 
BRANCH  19  20
ATOM     20  C   UNL d   1      50.145  34.457  52.509  0.00  0.00     0.303 C 
ATOM     21  O   UNL d   1      50.059  34.404  51.674  0.00  0.00    -0.263 OA
ATOM     22  N   UNL d   1      49.598  34.896  52.949  0.00  0.00    -0.102 N 
ENDBRANCH  19  20
ENDBRANCH  18  19
ENDBRANCH   4  18
TORSDOF 5
ENDMDL
