MODEL 1
REMARK VINA RESULT:      26.9      0.000      0.000
REMARK  2 active torsions:
REMARK  status: ('A' for Active; 'I' for Inactive)
REMARK       I    between atoms: C_9  and  N_1 
REMARK    1  A    between atoms: C_5  and  C_3 
REMARK    2  A    between atoms: C_8  and  C_4 
ROOT
ATOM      1  N   UNL d   1      59.574  49.658  50.066  0.00  0.00    -0.193 N 
ATOM      2  N   UNL d   1      58.835  49.673  49.739  0.00  0.00    -0.162 NA
ATOM      3  C   UNL d   1      59.490  49.626  50.887  0.00  0.00     0.110 A 
ATOM      4  C   UNL d   1      58.276  49.651  50.347  0.00  0.00     0.109 A 
ATOM      5  C   UNL d   1      58.701  49.622  51.047  0.00  0.00     0.043 A 
ATOM      6  C   UNL d   1      60.422  49.672  49.652  0.00  0.00     0.281 C 
ATOM      7  O   UNL d   1      61.064  49.651  50.132  0.00  0.00    -0.265 OA
ATOM      8  C   UNL d   1      60.507  49.704  48.831  0.00  0.00     0.068 C 
ENDROOT
BRANCH   3   9
ATOM      9  C   UNL d   1      60.102  49.603  51.414  0.00  0.00     0.118 A 
ATOM     10  O   UNL d   1      60.026  49.696  52.230  0.00  0.00    -0.306 OA
ATOM     11  C   UNL d   1      60.789  49.634  52.559  0.00  0.00     0.100 A 
ATOM     12  C   UNL d   1      60.960  49.696  53.376  0.00  0.00     0.027 C 
ATOM     13  C   UNL d   1      61.339  49.505  51.957  0.00  0.00     0.027 A 
ATOM     14  C   UNL d   1      60.912  49.487  51.254  0.00  0.00     0.028 A 
ENDBRANCH   3   9
BRANCH   4  15
ATOM     15  C   UNL d   1      57.454  49.656  50.263  0.00  0.00     0.049 A 
ATOM     16  S   UNL d   1      56.921  49.673  50.865  0.00  0.00    -0.085 SA
ATOM     17  C   UNL d   1      56.181  49.673  50.548  0.00  0.00     0.035 A 
ATOM     18  C   UNL d   1      56.265  49.656  49.726  0.00  0.00     0.007 A 
ATOM     19  C   UNL d   1      57.055  49.646  49.556  0.00  0.00     0.009 A 
ENDBRANCH   4  15
TORSDOF 2
ENDMDL
