MODEL 1
REMARK VINA RESULT:      -8.3      0.000      0.000
REMARK  5 active torsions:
REMARK  status: ('A' for Active; 'I' for Inactive)
REMARK    1  A    between atoms: N_4  and  C_1 
REMARK    2  A    between atoms: C_8  and  C_3 
REMARK       I    between atoms: C_7  and  N_4 
REMARK    3  A    between atoms: C_11  and  C_7 
REMARK    4  A    between atoms: C_12  and  C_11 
REMARK    5  A    between atoms: O_18  and  C_13 
ROOT
ATOM      1  N   UNL d   1      52.996  33.285  52.876  0.00  0.00    -0.183 NA
ATOM      2  C   UNL d   1      52.413  33.725  53.260  0.00  0.00     0.281 C 
ATOM      3  O   UNL d   1      52.112  33.460  53.988  0.00  0.00    -0.265 OA
ENDROOT
BRANCH   1   4
ATOM      4  C   UNL d   1      53.276  32.585  53.217  0.00  0.00     0.197 A 
ATOM      5  N   UNL d   1      52.927  31.851  53.162  0.00  0.00    -0.221 NA
ATOM      6  C   UNL d   1      53.387  31.312  53.582  0.00  0.00     0.090 A 
ATOM      7  C   UNL d   1      54.027  31.727  53.898  0.00  0.00     0.058 A 
ATOM      8  S   UNL d   1      53.950  32.522  53.664  0.00  0.00    -0.046 SA
BRANCH   6   9
ATOM      9  C   UNL d   1      53.240  30.521  53.670  0.00  0.00     0.021 A 
ATOM     10  C   UNL d   1      52.870  30.106  53.056  0.00  0.00     0.022 A 
ATOM     11  C   UNL d   1      52.719  29.297  53.145  0.00  0.00     0.099 A 
ATOM     12  N   UNL d   1      52.939  28.913  53.845  0.00  0.00    -0.242 NA
ATOM     13  C   UNL d   1      53.303  29.323  54.449  0.00  0.00     0.099 A 
ATOM     14  C   UNL d   1      53.458  30.136  54.367  0.00  0.00     0.022 A 
ENDBRANCH   6   9
ENDBRANCH   1   4
BRANCH   2  15
ATOM     15  C   UNL d   1      52.130  34.422  52.925  0.00  0.00     0.063 C 
BRANCH  15  16
ATOM     16  C   UNL d   1      51.364  34.450  52.631  0.00  0.00     0.005 A 
ATOM     17  C   UNL d   1      51.223  34.321  51.817  0.00  0.00     0.002 A 
ATOM     18  C   UNL d   1      50.454  34.350  51.532  0.00  0.00     0.024 A 
ATOM     19  C   UNL d   1      49.825  34.504  52.030  0.00  0.00     0.094 A 
ATOM     20  C   UNL d   1      49.966  34.633  52.844  0.00  0.00     0.024 A 
ATOM     21  C   UNL d   1      50.732  34.605  53.138  0.00  0.00     0.002 A 
BRANCH  19  22
ATOM     22  O   UNL d   1      49.052  34.533  51.746  0.00  0.00    -0.328 OA
ATOM     23  C   UNL d   1      48.893  34.478  50.946  0.00  0.00     0.181 C 
ENDBRANCH  19  22
ENDBRANCH  15  16
ENDBRANCH   2  15
TORSDOF 5
ENDMDL
MODEL 2
REMARK VINA RESULT:      -7.9      1.608      5.057
REMARK  5 active torsions:
REMARK  status: ('A' for Active; 'I' for Inactive)
REMARK    1  A    between atoms: N_4  and  C_1 
REMARK    2  A    between atoms: C_8  and  C_3 
REMARK       I    between atoms: C_7  and  N_4 
REMARK    3  A    between atoms: C_11  and  C_7 
REMARK    4  A    between atoms: C_12  and  C_11 
REMARK    5  A    between atoms: O_18  and  C_13 
ROOT
ATOM      1  N   UNL d   1      52.707  33.027  52.533  0.00  0.00    -0.183 NA
ATOM      2  C   UNL d   1      52.953  32.545  53.155  0.00  0.00     0.281 C 
ATOM      3  O   UNL d   1      52.629  32.656  53.913  0.00  0.00    -0.265 OA
ENDROOT
BRANCH   1   4
ATOM      4  C   UNL d   1      52.141  33.616  52.666  0.00  0.00     0.197 A 
ATOM      5  N   UNL d   1      51.373  33.614  52.395  0.00  0.00    -0.221 NA
ATOM      6  C   UNL d   1      51.004  34.304  52.654  0.00  0.00     0.090 A 
ATOM      7  C   UNL d   1      51.559  34.732  53.091  0.00  0.00     0.058 A 
ATOM      8  S   UNL d   1      52.267  34.294  53.093  0.00  0.00    -0.046 SA
BRANCH   6   9
ATOM      9  C   UNL d   1      50.238  34.523  52.508  0.00  0.00     0.021 A 
ATOM     10  C   UNL d   1      49.911  34.379  51.762  0.00  0.00     0.022 A 
ATOM     11  C   UNL d   1      49.127  34.603  51.612  0.00  0.00     0.099 A 
ATOM     12  N   UNL d   1      48.684  34.967  52.209  0.00  0.00    -0.242 NA
ATOM     13  C   UNL d   1      49.007  35.108  52.944  0.00  0.00     0.099 A 
ATOM     14  C   UNL d   1      49.794  34.886  53.102  0.00  0.00     0.022 A 
ENDBRANCH   6   9
ENDBRANCH   1   4
BRANCH   2  15
ATOM     15  C   UNL d   1      53.515  31.957  53.029  0.00  0.00     0.063 C 
BRANCH  15  16
ATOM     16  C   UNL d   1      53.381  31.198  53.314  0.00  0.00     0.005 A 
ATOM     17  C   UNL d   1      53.663  30.980  54.070  0.00  0.00     0.002 A 
ATOM     18  C   UNL d   1      53.525  30.220  54.348  0.00  0.00     0.024 A 
ATOM     19  C   UNL d   1      53.115  29.675  53.897  0.00  0.00     0.094 A 
ATOM     20  C   UNL d   1      52.832  29.893  53.141  0.00  0.00     0.024 A 
ATOM     21  C   UNL d   1      52.967  30.652  52.856  0.00  0.00     0.002 A 
BRANCH  19  22
ATOM     22  O   UNL d   1      52.975  28.911  54.174  0.00  0.00    -0.328 OA
ATOM     23  C   UNL d   1      53.376  28.616  54.822  0.00  0.00     0.181 C 
ENDBRANCH  19  22
ENDBRANCH  15  16
ENDBRANCH   2  15
TORSDOF 5
ENDMDL
MODEL 3
REMARK VINA RESULT:      -7.2      1.917      5.071
REMARK  5 active torsions:
REMARK  status: ('A' for Active; 'I' for Inactive)
REMARK    1  A    between atoms: N_4  and  C_1 
REMARK    2  A    between atoms: C_8  and  C_3 
REMARK       I    between atoms: C_7  and  N_4 
REMARK    3  A    between atoms: C_11  and  C_7 
REMARK    4  A    between atoms: C_12  and  C_11 
REMARK    5  A    between atoms: O_18  and  C_13 
ROOT
ATOM      1  N   UNL d   1      52.957  32.172  52.609  0.00  0.00    -0.183 NA
ATOM      2  C   UNL d   1      52.539  31.514  52.877  0.00  0.00     0.281 C 
ATOM      3  O   UNL d   1      51.912  31.614  53.413  0.00  0.00    -0.265 OA
ENDROOT
BRANCH   1   4
ATOM      4  C   UNL d   1      52.750  32.928  52.876  0.00  0.00     0.197 A 
ATOM      5  N   UNL d   1      53.105  33.336  53.485  0.00  0.00    -0.221 NA
ATOM      6  C   UNL d   1      52.727  34.064  53.566  0.00  0.00     0.090 A 
ATOM      7  C   UNL d   1      52.132  34.098  52.995  0.00  0.00     0.058 A 
ATOM      8  S   UNL d   1      52.153  33.383  52.568  0.00  0.00    -0.046 SA
BRANCH   6   9
ATOM      9  C   UNL d   1      52.906  34.641  54.105  0.00  0.00     0.021 A 
ATOM     10  C   UNL d   1      52.761  35.433  53.915  0.00  0.00     0.022 A 
ATOM     11  C   UNL d   1      52.943  36.023  54.466  0.00  0.00     0.099 A 
ATOM     12  N   UNL d   1      53.268  35.815  55.198  0.00  0.00    -0.242 NA
ATOM     13  C   UNL d   1      53.411  35.034  55.385  0.00  0.00     0.099 A 
ATOM     14  C   UNL d   1      53.230  34.434  54.836  0.00  0.00     0.022 A 
ENDBRANCH   6   9
ENDBRANCH   1   4
BRANCH   2  15
ATOM     15  C   UNL d   1      52.741  30.759  52.615  0.00  0.00     0.063 C 
BRANCH  15  16
ATOM     16  C   UNL d   1      52.930  30.176  53.162  0.00  0.00     0.005 A 
ATOM     17  C   UNL d   1      53.704  30.133  53.475  0.00  0.00     0.002 A 
ATOM     18  C   UNL d   1      53.885  29.547  54.021  0.00  0.00     0.024 A 
ATOM     19  C   UNL d   1      53.322  29.007  54.263  0.00  0.00     0.094 A 
ATOM     20  C   UNL d   1      52.548  29.051  53.949  0.00  0.00     0.024 A 
ATOM     21  C   UNL d   1      52.358  29.634  53.403  0.00  0.00     0.002 A 
BRANCH  19  22
ATOM     22  O   UNL d   1      53.502  28.419  54.811  0.00  0.00    -0.328 OA
ATOM     23  C   UNL d   1      53.358  28.525  55.609  0.00  0.00     0.181 C 
ENDBRANCH  19  22
ENDBRANCH  15  16
ENDBRANCH   2  15
TORSDOF 5
ENDMDL
MODEL 4
REMARK VINA RESULT:      -6.7      2.685      5.643
REMARK  5 active torsions:
REMARK  status: ('A' for Active; 'I' for Inactive)
REMARK    1  A    between atoms: N_4  and  C_1 
REMARK    2  A    between atoms: C_8  and  C_3 
REMARK       I    between atoms: C_7  and  N_4 
REMARK    3  A    between atoms: C_11  and  C_7 
REMARK    4  A    between atoms: C_12  and  C_11 
REMARK    5  A    between atoms: O_18  and  C_13 
ROOT
ATOM      1  N   UNL d   1      50.796  34.454  52.103  0.00  0.00    -0.183 NA
ATOM      2  C   UNL d   1      51.151  33.928  52.630  0.00  0.00     0.281 C 
ATOM      3  O   UNL d   1      50.695  33.580  53.231  0.00  0.00    -0.265 OA
ENDROOT
BRANCH   1   4
ATOM      4  C   UNL d   1      49.991  34.630  52.175  0.00  0.00     0.197 A 
ATOM      5  N   UNL d   1      49.669  35.226  52.628  0.00  0.00    -0.221 NA
ATOM      6  C   UNL d   1      48.850  35.206  52.541  0.00  0.00     0.090 A 
ATOM      7  C   UNL d   1      48.672  34.585  52.026  0.00  0.00     0.058 A 
ATOM      8  S   UNL d   1      49.391  34.231  51.802  0.00  0.00    -0.046 SA
BRANCH   6   9
ATOM      9  C   UNL d   1      48.317  35.702  52.894  0.00  0.00     0.021 A 
ATOM     10  C   UNL d   1      47.665  35.971  52.462  0.00  0.00     0.022 A 
ATOM     11  C   UNL d   1      47.119  36.478  52.823  0.00  0.00     0.099 A 
ATOM     12  N   UNL d   1      47.232  36.709  53.609  0.00  0.00    -0.242 NA
ATOM     13  C   UNL d   1      47.875  36.444  54.035  0.00  0.00     0.099 A 
ATOM     14  C   UNL d   1      48.428  35.934  53.679  0.00  0.00     0.022 A 
ENDBRANCH   6   9
ENDBRANCH   1   4
BRANCH   2  15
ATOM     15  C   UNL d   1      51.952  33.749  52.563  0.00  0.00     0.063 C 
BRANCH  15  16
ATOM     16  C   UNL d   1      52.448  33.856  53.209  0.00  0.00     0.005 A 
ATOM     17  C   UNL d   1      52.671  33.201  53.679  0.00  0.00     0.002 A 
ATOM     18  C   UNL d   1      53.166  33.316  54.323  0.00  0.00     0.024 A 
ATOM     19  C   UNL d   1      53.445  34.061  54.512  0.00  0.00     0.094 A 
ATOM     20  C   UNL d   1      53.222  34.716  54.042  0.00  0.00     0.024 A 
ATOM     21  C   UNL d   1      52.726  34.609  53.396  0.00  0.00     0.002 A 
BRANCH  19  22
ATOM     22  O   UNL d   1      53.943  34.179  55.158  0.00  0.00    -0.328 OA
ATOM     23  C   UNL d   1      54.618  33.730  55.259  0.00  0.00     0.181 C 
ENDBRANCH  19  22
ENDBRANCH  15  16
ENDBRANCH   2  15
TORSDOF 5
ENDMDL
MODEL 5
REMARK VINA RESULT:      -6.5      2.089      2.911
REMARK  5 active torsions:
REMARK  status: ('A' for Active; 'I' for Inactive)
REMARK    1  A    between atoms: N_4  and  C_1 
REMARK    2  A    between atoms: C_8  and  C_3 
REMARK       I    between atoms: C_7  and  N_4 
REMARK    3  A    between atoms: C_11  and  C_7 
REMARK    4  A    between atoms: C_12  and  C_11 
REMARK    5  A    between atoms: O_18  and  C_13 
ROOT
ATOM      1  N   UNL d   1      51.454  34.029  52.232  0.00  0.00    -0.183 NA
ATOM      2  C   UNL d   1      50.649  34.061  52.409  0.00  0.00     0.281 C 
ATOM      3  O   UNL d   1      50.370  33.715  53.112  0.00  0.00    -0.265 OA
ENDROOT
BRANCH   1   4
ATOM      4  C   UNL d   1      51.976  33.653  52.752  0.00  0.00     0.197 A 
ATOM      5  N   UNL d   1      52.535  34.019  53.218  0.00  0.00    -0.221 NA
ATOM      6  C   UNL d   1      52.933  33.441  53.649  0.00  0.00     0.090 A 
ATOM      7  C   UNL d   1      52.610  32.710  53.441  0.00  0.00     0.058 A 
ATOM      8  S   UNL d   1      52.012  32.853  52.880  0.00  0.00    -0.046 SA
BRANCH   6   9
ATOM      9  C   UNL d   1      53.532  33.565  54.181  0.00  0.00     0.021 A 
ATOM     10  C   UNL d   1      54.236  33.137  54.104  0.00  0.00     0.022 A 
ATOM     11  C   UNL d   1      54.849  33.263  54.647  0.00  0.00     0.099 A 
ATOM     12  N   UNL d   1      54.749  33.814  55.257  0.00  0.00    -0.242 NA
ATOM     13  C   UNL d   1      54.055  34.235  55.331  0.00  0.00     0.099 A 
ATOM     14  C   UNL d   1      53.435  34.114  54.790  0.00  0.00     0.022 A 
ENDBRANCH   6   9
ENDBRANCH   1   4
BRANCH   2  15
ATOM     15  C   UNL d   1      50.124  34.433  51.895  0.00  0.00     0.063 C 
BRANCH  15  16
ATOM     16  C   UNL d   1      49.458  34.808  52.196  0.00  0.00     0.005 A 
ATOM     17  C   UNL d   1      48.740  34.793  51.768  0.00  0.00     0.002 A 
ATOM     18  C   UNL d   1      48.080  35.171  52.076  0.00  0.00     0.024 A 
ATOM     19  C   UNL d   1      48.113  35.561  52.794  0.00  0.00     0.094 A 
ATOM     20  C   UNL d   1      48.831  35.576  53.222  0.00  0.00     0.024 A 
ATOM     21  C   UNL d   1      49.497  35.200  52.921  0.00  0.00     0.002 A 
BRANCH  19  22
ATOM     22  O   UNL d   1      47.451  35.940  53.105  0.00  0.00    -0.328 OA
ATOM     23  C   UNL d   1      47.182  36.646  52.792  0.00  0.00     0.181 C 
ENDBRANCH  19  22
ENDBRANCH  15  16
ENDBRANCH   2  15
TORSDOF 5
ENDMDL
