MODEL 1
REMARK VINA RESULT:      -2.4      0.000      0.000
REMARK  4 active torsions:
REMARK  status: ('A' for Active; 'I' for Inactive)
REMARK    1  A    between atoms: C_2  and  S_1 
REMARK    2  A    between atoms: N_5  and  S_1 
REMARK    3  A    between atoms: C_11  and  C_4 
REMARK    4  A    between atoms: C_9  and  N_5 
ROOT
ATOM      1  S   UNL d   1      30.767  16.894 -24.262  0.00  0.00     0.287 S 
ATOM      2  O   UNL d   1      30.785  16.905 -25.093  0.00  0.00    -0.198 OA
ATOM      3  O   UNL d   1      30.738  16.883 -23.424  0.00  0.00    -0.198 OA
ENDROOT
BRANCH   1   4
ATOM      4  C   UNL d   1      31.593  16.827 -24.220  0.00  0.00     0.125 A 
ATOM      5  C   UNL d   1      32.049  17.508 -24.113  0.00  0.00     0.121 A 
ATOM      6  N   UNL d   1      31.855  18.304 -24.032  0.00  0.00    -0.190 NA
ATOM      7  C   UNL d   1      32.877  17.443 -24.071  0.00  0.00     0.110 A 
ATOM      8  S   UNL d   1      32.545  18.731 -23.941  0.00  0.00     0.117 SA
ATOM      9  N   UNL d   1      33.176  18.198 -23.965  0.00  0.00    -0.190 NA
ATOM     10  C   UNL d   1      33.236  16.710 -24.135  0.00  0.00     0.021 A 
ATOM     11  C   UNL d   1      32.773  16.029 -24.242  0.00  0.00     0.002 A 
ATOM     12  C   UNL d   1      31.952  16.094 -24.284  0.00  0.00     0.015 A 
ENDBRANCH   1   4
BRANCH   1  13
ATOM     13  N   UNL d   1      29.943  16.961 -24.307  0.00  0.00    -0.158 NA
BRANCH  13  14
ATOM     14  C   UNL d   1      29.449  16.725 -24.107  0.00  0.00     0.100 A 
ATOM     15  C   UNL d   1      28.691  17.156 -24.049  0.00  0.00     0.083 A 
ATOM     16  C   UNL d   1      28.083  16.698 -23.750  0.00  0.00     0.014 A 
ATOM     17  C   UNL d   1      28.159  15.895 -23.518  0.00  0.00     0.035 A 
ATOM     18  C   UNL d   1      28.891  15.525 -23.589  0.00  0.00     0.008 A 
ATOM     19 BR   UNL d   1      27.496  15.479 -23.218  0.00  0.00    -0.049 Br
ATOM     20  C   UNL d   1      29.555  15.969 -23.898  0.00  0.00     0.021 A 
BRANCH  15  21
ATOM     21  C   UNL d   1      28.607  17.938 -24.272  0.00  0.00     0.212 C 
ATOM     22  O   UNL d   1      28.509  18.542 -23.683  0.00  0.00    -0.644 OA
ATOM     23  O   UNL d   1      28.619  18.138 -25.070  0.00  0.00    -0.644 OA
ENDBRANCH  15  21
ENDBRANCH  13  14
ENDBRANCH   1  13
TORSDOF 4
ENDMDL
MODEL 2
REMARK VINA RESULT:      -2.3      2.013      4.141
REMARK  4 active torsions:
REMARK  status: ('A' for Active; 'I' for Inactive)
REMARK    1  A    between atoms: C_2  and  S_1 
REMARK    2  A    between atoms: N_5  and  S_1 
REMARK    3  A    between atoms: C_11  and  C_4 
REMARK    4  A    between atoms: C_9  and  N_5 
ROOT
ATOM      1  S   UNL d   1      30.603  17.096 -24.150  0.00  0.00     0.287 S 
ATOM      2  O   UNL d   1      30.503  17.764 -23.665  0.00  0.00    -0.198 OA
ATOM      3  O   UNL d   1      30.717  16.424 -24.639  0.00  0.00    -0.198 OA
ENDROOT
BRANCH   1   4
ATOM      4  C   UNL d   1      29.790  16.935 -24.141  0.00  0.00     0.125 A 
ATOM      5  C   UNL d   1      29.494  16.376 -23.609  0.00  0.00     0.121 A 
ATOM      6  N   UNL d   1      29.851  15.904 -23.038  0.00  0.00    -0.190 NA
ATOM      7  C   UNL d   1      28.678  16.214 -23.599  0.00  0.00     0.110 A 
ATOM      8  S   UNL d   1      29.274  15.453 -22.676  0.00  0.00     0.117 SA
ATOM      9  N   UNL d   1      28.550  15.645 -23.023  0.00  0.00    -0.190 NA
ATOM     10  C   UNL d   1      28.174  16.604 -24.112  0.00  0.00     0.021 A 
ATOM     11  C   UNL d   1      28.477  17.165 -24.645  0.00  0.00     0.002 A 
ATOM     12  C   UNL d   1      29.286  17.326 -24.654  0.00  0.00     0.015 A 
ENDBRANCH   1   4
BRANCH   1  13
ATOM     13  N   UNL d   1      31.415  17.259 -24.156  0.00  0.00    -0.158 NA
BRANCH  13  14
ATOM     14  C   UNL d   1      31.803  17.667 -24.307  0.00  0.00     0.100 A 
ATOM     15  C   UNL d   1      32.640  17.662 -24.057  0.00  0.00     0.083 A 
ATOM     16  C   UNL d   1      33.067  18.298 -24.345  0.00  0.00     0.014 A 
ATOM     17  C   UNL d   1      32.750  18.903 -24.833  0.00  0.00     0.035 A 
ATOM     18  C   UNL d   1      31.956  18.871 -25.047  0.00  0.00     0.008 A 
ATOM     19 BR   UNL d   1      33.241  19.530 -25.097  0.00  0.00    -0.049 Br
ATOM     20  C   UNL d   1      31.473  18.222 -24.766  0.00  0.00     0.021 A 
BRANCH  15  21
ATOM     21  C   UNL d   1      32.957  17.077 -23.582  0.00  0.00     0.212 C 
ATOM     22  O   UNL d   1      33.196  16.336 -23.920  0.00  0.00    -0.644 OA
ATOM     23  O   UNL d   1      33.044  17.210 -22.774  0.00  0.00    -0.644 OA
ENDBRANCH  15  21
ENDBRANCH  13  14
ENDBRANCH   1  13
TORSDOF 4
ENDMDL
MODEL 3
REMARK VINA RESULT:      -0.7      2.058      3.234
REMARK  4 active torsions:
REMARK  status: ('A' for Active; 'I' for Inactive)
REMARK    1  A    between atoms: C_2  and  S_1 
REMARK    2  A    between atoms: N_5  and  S_1 
REMARK    3  A    between atoms: C_11  and  C_4 
REMARK    4  A    between atoms: C_9  and  N_5 
ROOT
ATOM      1  S   UNL d   1      32.482  18.394 -23.985  0.00  0.00     0.287 S 
ATOM      2  O   UNL d   1      32.103  18.471 -23.250  0.00  0.00    -0.198 OA
ATOM      3  O   UNL d   1      32.862  18.305 -24.728  0.00  0.00    -0.198 OA
ENDROOT
BRANCH   1   4
ATOM      4  C   UNL d   1      32.704  19.193 -23.983  0.00  0.00     0.125 A 
ATOM      5  C   UNL d   1      32.880  19.562 -23.264  0.00  0.00     0.121 A 
ATOM      6  N   UNL d   1      32.886  19.296 -22.486  0.00  0.00    -0.190 NA
ATOM      7  C   UNL d   1      33.103  20.364 -23.260  0.00  0.00     0.110 A 
ATOM      8  S   UNL d   1      33.107  19.915 -22.001  0.00  0.00     0.117 SA
ATOM      9  N   UNL d   1      33.241  20.574 -22.480  0.00  0.00    -0.190 NA
ATOM     10  C   UNL d   1      33.147  20.782 -23.962  0.00  0.00     0.021 A 
ATOM     11  C   UNL d   1      32.969  20.407 -24.681  0.00  0.00     0.002 A 
ATOM     12  C   UNL d   1      32.748  19.612 -24.685  0.00  0.00     0.015 A 
ENDBRANCH   1   4
BRANCH   1  13
ATOM     13  N   UNL d   1      32.259  17.597 -23.984  0.00  0.00    -0.158 NA
BRANCH  13  14
ATOM     14  C   UNL d   1      31.834  17.236 -24.155  0.00  0.00     0.100 A 
ATOM     15  C   UNL d   1      31.818  16.381 -23.974  0.00  0.00     0.083 A 
ATOM     16  C   UNL d   1      31.160  16.000 -24.278  0.00  0.00     0.014 A 
ATOM     17  C   UNL d   1      30.553  16.376 -24.720  0.00  0.00     0.035 A 
ATOM     18  C   UNL d   1      30.607  17.183 -24.868  0.00  0.00     0.008 A 
ATOM     19 BR   UNL d   1      29.903  15.929 -25.004  0.00  0.00    -0.049 Br
ATOM     20  C   UNL d   1      31.279  17.620 -24.568  0.00  0.00     0.021 A 
BRANCH  15  21
ATOM     21  C   UNL d   1      32.404  16.007 -23.544  0.00  0.00     0.212 C 
ATOM     22  O   UNL d   1      32.256  15.759 -22.746  0.00  0.00    -0.644 OA
ATOM     23  O   UNL d   1      33.139  15.872 -23.889  0.00  0.00    -0.644 OA
ENDBRANCH  15  21
ENDBRANCH  13  14
ENDBRANCH   1  13
TORSDOF 4
ENDMDL
MODEL 4
REMARK VINA RESULT:      -0.3      4.682      5.692
REMARK  4 active torsions:
REMARK  status: ('A' for Active; 'I' for Inactive)
REMARK    1  A    between atoms: C_2  and  S_1 
REMARK    2  A    between atoms: N_5  and  S_1 
REMARK    3  A    between atoms: C_11  and  C_4 
REMARK    4  A    between atoms: C_9  and  N_5 
ROOT
ATOM      1  S   UNL d   1      32.716  20.611 -22.260  0.00  0.00     0.287 S 
ATOM      2  O   UNL d   1      32.195  20.277 -21.706  0.00  0.00    -0.198 OA
ATOM      3  O   UNL d   1      33.241  20.960 -22.814  0.00  0.00    -0.198 OA
ENDROOT
BRANCH   1   4
ATOM      4  C   UNL d   1      32.860  19.873 -22.610  0.00  0.00     0.125 A 
ATOM      5  C   UNL d   1      32.854  19.809 -23.434  0.00  0.00     0.121 A 
ATOM      6  N   UNL d   1      32.729  20.354 -24.037  0.00  0.00    -0.190 NA
ATOM      7  C   UNL d   1      32.998  19.069 -23.787  0.00  0.00     0.110 A 
ATOM      8  S   UNL d   1      32.792  19.968 -24.754  0.00  0.00     0.117 SA
ATOM      9  N   UNL d   1      32.958  19.175 -24.598  0.00  0.00    -0.190 NA
ATOM     10  C   UNL d   1      33.143  18.412 -23.321  0.00  0.00     0.021 A 
ATOM     11  C   UNL d   1      33.147  18.483 -22.494  0.00  0.00     0.002 A 
ATOM     12  C   UNL d   1      33.005  19.216 -22.144  0.00  0.00     0.015 A 
ENDBRANCH   1   4
BRANCH   1  13
ATOM     13  N   UNL d   1      32.571  21.347 -21.908  0.00  0.00    -0.158 NA
BRANCH  13  14
ATOM     14  C   UNL d   1      32.681  21.659 -21.429  0.00  0.00     0.100 A 
ATOM     15  C   UNL d   1      32.535  22.518 -21.361  0.00  0.00     0.083 A 
ATOM     16  C   UNL d   1      32.737  22.823 -20.629  0.00  0.00     0.014 A 
ATOM     17  C   UNL d   1      33.054  22.371 -19.995  0.00  0.00     0.035 A 
ATOM     18  C   UNL d   1      33.176  21.564 -20.100  0.00  0.00     0.008 A 
ATOM     19 BR   UNL d   1      33.241  22.743 -19.268  0.00  0.00    -0.049 Br
ATOM     20  C   UNL d   1      32.978  21.205 -20.851  0.00  0.00     0.021 A 
BRANCH  15  21
ATOM     21  C   UNL d   1      32.228  22.965 -21.972  0.00  0.00     0.212 C 
ATOM     22  O   UNL d   1      32.728  23.217 -22.611  0.00  0.00    -0.644 OA
ATOM     23  O   UNL d   1      31.431  23.170 -21.967  0.00  0.00    -0.644 OA
ENDBRANCH  15  21
ENDBRANCH  13  14
ENDBRANCH   1  13
TORSDOF 4
ENDMDL
MODEL 5
REMARK VINA RESULT:       0.5      3.517      4.659
REMARK  4 active torsions:
REMARK  status: ('A' for Active; 'I' for Inactive)
REMARK    1  A    between atoms: C_2  and  S_1 
REMARK    2  A    between atoms: N_5  and  S_1 
REMARK    3  A    between atoms: C_11  and  C_4 
REMARK    4  A    between atoms: C_9  and  N_5 
ROOT
ATOM      1  S   UNL d   1      32.828  19.925 -22.437  0.00  0.00     0.287 S 
ATOM      2  O   UNL d   1      32.424  19.344 -22.001  0.00  0.00    -0.198 OA
ATOM      3  O   UNL d   1      33.235  20.503 -22.889  0.00  0.00    -0.198 OA
ENDROOT
BRANCH   1   4
ATOM      4  C   UNL d   1      32.916  20.405 -21.767  0.00  0.00     0.125 A 
ATOM      5  C   UNL d   1      32.762  21.215 -21.827  0.00  0.00     0.121 A 
ATOM      6  N   UNL d   1      32.522  21.694 -22.451  0.00  0.00    -0.190 NA
ATOM      7  C   UNL d   1      32.851  21.698 -21.155  0.00  0.00     0.110 A 
ATOM      8  S   UNL d   1      32.459  22.462 -22.180  0.00  0.00     0.117 SA
ATOM      9  N   UNL d   1      32.663  22.463 -21.380  0.00  0.00    -0.190 NA
ATOM     10  C   UNL d   1      33.088  21.373 -20.443  0.00  0.00     0.021 A 
ATOM     11  C   UNL d   1      33.241  20.559 -20.388  0.00  0.00     0.002 A 
ATOM     12  C   UNL d   1      33.153  20.080 -21.054  0.00  0.00     0.015 A 
ENDBRANCH   1   4
BRANCH   1  13
ATOM     13  N   UNL d   1      32.738  19.443 -23.105  0.00  0.00    -0.158 NA
BRANCH  13  14
ATOM     14  C   UNL d   1      32.799  18.894 -23.290  0.00  0.00     0.100 A 
ATOM     15  C   UNL d   1      32.622  18.629 -24.104  0.00  0.00     0.083 A 
ATOM     16  C   UNL d   1      32.755  17.830 -24.219  0.00  0.00     0.014 A 
ATOM     17  C   UNL d   1      33.034  17.302 -23.628  0.00  0.00     0.035 A 
ATOM     18  C   UNL d   1      33.189  17.592 -22.874  0.00  0.00     0.008 A 
ATOM     19 BR   UNL d   1      33.150  16.493 -23.810  0.00  0.00    -0.049 Br
ATOM     20  C   UNL d   1      33.063  18.422 -22.710  0.00  0.00     0.021 A 
BRANCH  15  21
ATOM     21  C   UNL d   1      32.350  19.136 -24.685  0.00  0.00     0.212 C 
ATOM     22  O   UNL d   1      32.881  19.688 -25.052  0.00  0.00    -0.644 OA
ATOM     23  O   UNL d   1      31.560  19.108 -24.913  0.00  0.00    -0.644 OA
ENDBRANCH  15  21
ENDBRANCH  13  14
ENDBRANCH   1  13
TORSDOF 4
ENDMDL
