MODEL 1
REMARK VINA RESULT:       2.1      0.000      0.000
REMARK  4 active torsions:
REMARK  status: ('A' for Active; 'I' for Inactive)
REMARK    1  A    between atoms: C_13  and  N_5 
REMARK    2  A    between atoms: C_14  and  C_6 
REMARK    3  A    between atoms: C_21  and  C_13 
REMARK    4  A    between atoms: O_25  and  C_20 
ROOT
ATOM      1  C   UNL d   1      32.898  20.108 -23.818  0.00  0.00     0.080 A 
ATOM      2  C   UNL d   1      32.783  19.407 -23.384  0.00  0.00     0.267 A 
ATOM      3  C   UNL d   1      33.081  20.077 -24.622  0.00  0.00     0.108 A 
ATOM      4  C   UNL d   1      32.939  21.541 -23.857  0.00  0.00     0.111 A 
ATOM      5  N   UNL d   1      32.857  18.680 -23.778  0.00  0.00    -0.273 N 
ATOM      6  C   UNL d   1      32.826  20.834 -23.432  0.00  0.00     0.020 A 
ATOM      7  C   UNL d   1      33.123  21.504 -24.670  0.00  0.00     0.213 A 
ATOM      8  C   UNL d   1      33.152  19.352 -25.004  0.00  0.00     0.043 A 
ATOM      9  O   UNL d   1      33.192  20.776 -25.044  0.00  0.00    -0.287 OA
ATOM     10  C   UNL d   1      33.040  18.653 -24.582  0.00  0.00     0.069 A 
ATOM     11  C   UNL d   1      32.870  22.270 -23.483  0.00  0.00     0.105 C 
ATOM     12  N   UNL d   1      32.797  22.996 -23.092  0.00  0.00    -0.191 NA
ATOM     13  O   UNL d   1      32.601  19.434 -22.580  0.00  0.00    -0.267 OA
ATOM     14  N   UNL d   1      33.236  22.203 -25.095  0.00  0.00    -0.120 N 
ATOM     15  C   UNL d   1      33.111  17.919 -24.965  0.00  0.00     0.019 C 
ENDROOT
BRANCH   6  16
ATOM     16  C   UNL d   1      32.643  20.870 -22.627  0.00  0.00     0.001 A 
ATOM     17  C   UNL d   1      31.875  20.736 -22.370  0.00  0.00     0.002 A 
ATOM     18  C   UNL d   1      31.696  20.772 -21.565  0.00  0.00     0.024 A 
ATOM     19  C   UNL d   1      32.291  20.943 -21.022  0.00  0.00     0.094 A 
ATOM     20  C   UNL d   1      33.072  21.078 -21.280  0.00  0.00     0.024 A 
ATOM     21  C   UNL d   1      33.239  21.040 -22.087  0.00  0.00     0.002 A 
BRANCH  19  22
ATOM     22  O   UNL d   1      32.116  20.980 -20.216  0.00  0.00    -0.328 OA
ATOM     23  C   UNL d   1      32.526  21.502 -19.728  0.00  0.00     0.181 C 
ENDBRANCH  19  22
ENDBRANCH   6  16
BRANCH   5  24
ATOM     24  C   UNL d   1      32.745  17.974 -23.353  0.00  0.00     0.083 C 
BRANCH  24  25
ATOM     25  C   UNL d   1      32.081  17.494 -23.491  0.00  0.00     0.021 A 
ATOM     26  C   UNL d   1      31.424  17.790 -23.888  0.00  0.00     0.022 A 
ATOM     27  C   UNL d   1      30.771  17.304 -24.019  0.00  0.00     0.099 A 
ATOM     28  N   UNL d   1      30.774  16.526 -23.756  0.00  0.00    -0.242 NA
ATOM     29  C   UNL d   1      31.437  16.228 -23.357  0.00  0.00     0.099 A 
ATOM     30  C   UNL d   1      32.088  16.713 -23.226  0.00  0.00     0.022 A 
ENDBRANCH  24  25
ENDBRANCH   5  24
TORSDOF 4
ENDMDL
