MODEL 1
REMARK VINA RESULT:      -5.4      0.000      0.000
REMARK  7 active torsions:
REMARK  status: ('A' for Active; 'I' for Inactive)
REMARK    1  A    between atoms: N_2  and  S_1 
REMARK    2  A    between atoms: C_3  and  S_1 
REMARK    3  A    between atoms: C_4  and  C_7 
REMARK       I    between atoms: N_5  and  C_4 
REMARK    4  A    between atoms: C_15  and  N_5 
REMARK    5  A    between atoms: C_6  and  C_11 
REMARK    6  A    between atoms: O_20  and  C_6 
REMARK    7  A    between atoms: C_28  and  O_20 
ROOT
ATOM      1  C   UNL d   1     -48.549  13.116  23.111  0.00  0.00     0.104 A 
ATOM      2  C   UNL d   1     -47.262  12.567  22.807  0.00  0.00     0.059 A 
ATOM      3  C   UNL d   1     -47.819  13.146  22.726  0.00  0.00     0.018 A 
ATOM      4  C   UNL d   1     -48.718  12.439  23.619  0.00  0.00     0.013 A 
ATOM      5  C   UNL d   1     -47.431  11.889  23.314  0.00  0.00     0.005 A 
ATOM      6  C   UNL d   1     -48.143  11.852  23.695  0.00  0.00     0.001 A 
ENDROOT
BRANCH   2   7
ATOM      7  C   UNL d   1     -46.545  12.624  22.410  0.00  0.00     0.279 C 
ATOM      8  N   UNL d   1     -45.847  12.729  22.823  0.00  0.00    -0.208 NA
ATOM      9  O   UNL d   1     -46.466  12.582  21.575  0.00  0.00    -0.265 OA
BRANCH   8  10
ATOM     10  C   UNL d   1     -45.113  12.788  22.422  0.00  0.00     0.085 A 
ATOM     11  C   UNL d   1     -44.549  12.162  22.478  0.00  0.00     0.019 A 
ATOM     12  C   UNL d   1     -43.799  12.251  22.052  0.00  0.00     0.007 A 
ATOM     13  C   UNL d   1     -43.645  12.954  21.594  0.00  0.00     0.064 A 
ATOM     14  C   UNL d   1     -44.204  13.559  21.547  0.00  0.00     0.007 A 
ATOM     15  C   UNL d   1     -44.946  13.493  21.956  0.00  0.00     0.019 A 
BRANCH  13  16
ATOM     16  C   UNL d   1     -42.946  13.052  21.189  0.00  0.00     0.300 C 
ATOM     17  O   UNL d   1     -42.778  12.674  20.503  0.00  0.00    -0.259 OA
BRANCH  16  18
ATOM     18  O   UNL d   1     -42.334  13.541  21.428  0.00  0.00    -0.271 OA
BRANCH  18  19
ATOM     19  C   UNL d   1     -41.693  13.657  20.939  0.00  0.00     0.126 C 
ATOM     20  C   UNL d   1     -41.080  14.104  21.191  0.00  0.00     0.029 C 
ENDBRANCH  18  19
ENDBRANCH  16  18
ENDBRANCH  13  16
ENDBRANCH   8  10
ENDBRANCH   2   7
BRANCH   1  21
ATOM     21  S   UNL d   1     -49.107  13.719  23.016  0.00  0.00     0.272 S 
ATOM     22  O   UNL d   1     -49.487  13.300  22.394  0.00  0.00    -0.200 OA
ATOM     23  O   UNL d   1     -48.750  14.142  23.622  0.00  0.00    -0.200 OA
BRANCH  21  24
ATOM     24  N   UNL d   1     -49.655  14.321  22.931  0.00  0.00    -0.225 N 
ATOM     25  C   UNL d   1     -50.336  14.188  22.516  0.00  0.00     0.118 A 
ATOM     26  C   UNL d   1     -50.893  14.781  22.423  0.00  0.00     0.142 A 
ATOM     27  O   UNL d   1     -50.766  15.514  22.748  0.00  0.00    -0.300 OA
ATOM     28  C   UNL d   1     -50.065  15.659  23.178  0.00  0.00     0.142 A 
ATOM     29  C   UNL d   1     -49.511  15.060  23.268  0.00  0.00     0.118 A 
ENDBRANCH  21  24
ENDBRANCH   1  21
TORSDOF 7
ENDMDL
MODEL 2
REMARK VINA RESULT:      -5.4      0.671      1.001
REMARK  7 active torsions:
REMARK  status: ('A' for Active; 'I' for Inactive)
REMARK    1  A    between atoms: N_2  and  S_1 
REMARK    2  A    between atoms: C_3  and  S_1 
REMARK    3  A    between atoms: C_4  and  C_7 
REMARK       I    between atoms: N_5  and  C_4 
REMARK    4  A    between atoms: C_15  and  N_5 
REMARK    5  A    between atoms: C_6  and  C_11 
REMARK    6  A    between atoms: O_20  and  C_6 
REMARK    7  A    between atoms: C_28  and  O_20 
ROOT
ATOM      1  C   UNL d   1     -48.901  12.989  23.155  0.00  0.00     0.104 A 
ATOM      2  C   UNL d   1     -47.557  12.497  23.214  0.00  0.00     0.059 A 
ATOM      3  C   UNL d   1     -48.090  13.074  23.025  0.00  0.00     0.018 A 
ATOM      4  C   UNL d   1     -49.185  12.254  23.508  0.00  0.00     0.013 A 
ATOM      5  C   UNL d   1     -47.842  11.762  23.567  0.00  0.00     0.005 A 
ATOM      6  C   UNL d   1     -48.634  11.670  23.698  0.00  0.00     0.001 A 
ENDROOT
BRANCH   2   7
ATOM      7  C   UNL d   1     -46.756  12.610  23.073  0.00  0.00     0.279 C 
ATOM      8  N   UNL d   1     -46.437  12.457  22.335  0.00  0.00    -0.208 NA
ATOM      9  O   UNL d   1     -46.211  12.883  23.651  0.00  0.00    -0.265 OA
BRANCH   8  10
ATOM     10  C   UNL d   1     -45.620  12.572  22.186  0.00  0.00     0.085 A 
ATOM     11  C   UNL d   1     -45.348  13.301  21.860  0.00  0.00     0.019 A 
ATOM     12  C   UNL d   1     -44.497  13.391  21.717  0.00  0.00     0.007 A 
ATOM     13  C   UNL d   1     -43.960  12.754  21.904  0.00  0.00     0.064 A 
ATOM     14  C   UNL d   1     -44.238  12.046  22.222  0.00  0.00     0.007 A 
ATOM     15  C   UNL d   1     -45.068  11.936  22.371  0.00  0.00     0.019 A 
BRANCH  13  16
ATOM     16  C   UNL d   1     -43.160  12.824  21.776  0.00  0.00     0.300 C 
ATOM     17  O   UNL d   1     -42.610  12.403  22.181  0.00  0.00    -0.259 OA
BRANCH  16  18
ATOM     18  O   UNL d   1     -42.818  13.324  21.225  0.00  0.00    -0.271 OA
BRANCH  18  19
ATOM     19  C   UNL d   1     -42.007  13.389  21.182  0.00  0.00     0.126 C 
ATOM     20  C   UNL d   1     -41.679  13.941  20.707  0.00  0.00     0.029 C 
ENDBRANCH  18  19
ENDBRANCH  16  18
ENDBRANCH  13  16
ENDBRANCH   8  10
ENDBRANCH   2   7
BRANCH   1  21
ATOM     21  S   UNL d   1     -49.431  13.591  22.955  0.00  0.00     0.272 S 
ATOM     22  O   UNL d   1     -49.246  14.018  23.655  0.00  0.00    -0.200 OA
ATOM     23  O   UNL d   1     -49.625  13.188  22.266  0.00  0.00    -0.200 OA
BRANCH  21  24
ATOM     24  N   UNL d   1     -49.959  14.181  22.747  0.00  0.00    -0.225 N 
ATOM     25  C   UNL d   1     -50.417  14.094  22.086  0.00  0.00     0.118 A 
ATOM     26  C   UNL d   1     -50.949  14.676  21.866  0.00  0.00     0.142 A 
ATOM     27  O   UNL d   1     -51.024  15.350  22.311  0.00  0.00    -0.300 OA
ATOM     28  C   UNL d   1     -50.554  15.447  22.995  0.00  0.00     0.142 A 
ATOM     29  C   UNL d   1     -50.022  14.860  23.210  0.00  0.00     0.118 A 
ENDBRANCH  21  24
ENDBRANCH   1  21
TORSDOF 7
ENDMDL
MODEL 3
REMARK VINA RESULT:      -4.3      1.960      3.849
REMARK  7 active torsions:
REMARK  status: ('A' for Active; 'I' for Inactive)
REMARK    1  A    between atoms: N_2  and  S_1 
REMARK    2  A    between atoms: C_3  and  S_1 
REMARK    3  A    between atoms: C_4  and  C_7 
REMARK       I    between atoms: N_5  and  C_4 
REMARK    4  A    between atoms: C_15  and  N_5 
REMARK    5  A    between atoms: C_6  and  C_11 
REMARK    6  A    between atoms: O_20  and  C_6 
REMARK    7  A    between atoms: C_28  and  O_20 
ROOT
ATOM      1  C   UNL d   1     -44.815  12.726  22.246  0.00  0.00     0.104 A 
ATOM      2  C   UNL d   1     -43.491  12.757  21.700  0.00  0.00     0.059 A 
ATOM      3  C   UNL d   1     -44.224  13.085  21.795  0.00  0.00     0.018 A 
ATOM      4  C   UNL d   1     -44.639  11.973  22.628  0.00  0.00     0.013 A 
ATOM      5  C   UNL d   1     -43.316  12.004  22.082  0.00  0.00     0.005 A 
ATOM      6  C   UNL d   1     -43.888  11.645  22.526  0.00  0.00     0.001 A 
ENDROOT
BRANCH   2   7
ATOM      7  C   UNL d   1     -42.923  13.138  21.244  0.00  0.00     0.279 C 
ATOM      8  N   UNL d   1     -42.406  13.672  21.584  0.00  0.00    -0.208 NA
ATOM      9  O   UNL d   1     -42.826  13.018  20.418  0.00  0.00    -0.265 OA
BRANCH   8  10
ATOM     10  C   UNL d   1     -41.825  14.063  21.123  0.00  0.00     0.085 A 
ATOM     11  C   UNL d   1     -41.186  13.625  20.787  0.00  0.00     0.019 A 
ATOM     12  C   UNL d   1     -40.601  14.055  20.315  0.00  0.00     0.007 A 
ATOM     13  C   UNL d   1     -40.677  14.898  20.199  0.00  0.00     0.064 A 
ATOM     14  C   UNL d   1     -41.305  15.316  20.533  0.00  0.00     0.007 A 
ATOM     15  C   UNL d   1     -41.891  14.913  21.000  0.00  0.00     0.019 A 
BRANCH  13  16
ATOM     16  C   UNL d   1     -40.135  15.316  19.759  0.00  0.00     0.300 C 
ATOM     17  O   UNL d   1     -39.481  15.657  20.073  0.00  0.00    -0.259 OA
BRANCH  16  18
ATOM     18  O   UNL d   1     -40.188  15.439  18.951  0.00  0.00    -0.271 OA
BRANCH  18  19
ATOM     19  C   UNL d   1     -39.605  15.859  18.565  0.00  0.00     0.126 C 
ATOM     20  C   UNL d   1     -39.625  15.922  17.770  0.00  0.00     0.029 C 
ENDBRANCH  18  19
ENDBRANCH  16  18
ENDBRANCH  13  16
ENDBRANCH   8  10
ENDBRANCH   2   7
BRANCH   1  21
ATOM     21  S   UNL d   1     -45.559  13.077  22.333  0.00  0.00     0.272 S 
ATOM     22  O   UNL d   1     -45.713  13.006  21.509  0.00  0.00    -0.200 OA
ATOM     23  O   UNL d   1     -45.426  13.155  23.139  0.00  0.00    -0.200 OA
BRANCH  21  24
ATOM     24  N   UNL d   1     -46.294  13.425  22.430  0.00  0.00    -0.225 N 
ATOM     25  C   UNL d   1     -46.349  14.154  22.774  0.00  0.00     0.118 A 
ATOM     26  C   UNL d   1     -47.077  14.514  22.878  0.00  0.00     0.142 A 
ATOM     27  O   UNL d   1     -47.755  14.141  22.634  0.00  0.00    -0.300 OA
ATOM     28  C   UNL d   1     -47.705  13.387  22.277  0.00  0.00     0.142 A 
ATOM     29  C   UNL d   1     -46.972  13.032  22.176  0.00  0.00     0.118 A 
ENDBRANCH  21  24
ENDBRANCH   1  21
TORSDOF 7
ENDMDL
MODEL 4
REMARK VINA RESULT:      -4.2      3.366      7.640
REMARK  7 active torsions:
REMARK  status: ('A' for Active; 'I' for Inactive)
REMARK    1  A    between atoms: N_2  and  S_1 
REMARK    2  A    between atoms: C_3  and  S_1 
REMARK    3  A    between atoms: C_4  and  C_7 
REMARK       I    between atoms: N_5  and  C_4 
REMARK    4  A    between atoms: C_15  and  N_5 
REMARK    5  A    between atoms: C_6  and  C_11 
REMARK    6  A    between atoms: O_20  and  C_6 
REMARK    7  A    between atoms: C_28  and  O_20 
ROOT
ATOM      1  C   UNL d   1     -40.317  14.442  19.482  0.00  0.00     0.104 A 
ATOM      2  C   UNL d   1     -41.011  14.017  20.660  0.00  0.00     0.059 A 
ATOM      3  C   UNL d   1     -41.011  14.266  19.892  0.00  0.00     0.018 A 
ATOM      4  C   UNL d   1     -39.563  14.355  19.894  0.00  0.00     0.013 A 
ATOM      5  C   UNL d   1     -40.257  13.930  21.073  0.00  0.00     0.005 A 
ATOM      6  C   UNL d   1     -39.572  14.100  20.679  0.00  0.00     0.001 A 
ENDROOT
BRANCH   2   7
ATOM      7  C   UNL d   1     -41.719  13.850  21.042  0.00  0.00     0.279 C 
ATOM      8  N   UNL d   1     -42.071  13.116  20.965  0.00  0.00    -0.208 NA
ATOM      9  O   UNL d   1     -42.131  14.398  21.529  0.00  0.00    -0.265 OA
BRANCH   8  10
ATOM     10  C   UNL d   1     -42.794  12.942  21.352  0.00  0.00     0.085 A 
ATOM     11  C   UNL d   1     -43.492  13.377  21.162  0.00  0.00     0.019 A 
ATOM     12  C   UNL d   1     -44.224  13.175  21.579  0.00  0.00     0.007 A 
ATOM     13  C   UNL d   1     -44.229  12.552  22.163  0.00  0.00     0.064 A 
ATOM     14  C   UNL d   1     -43.540  12.133  22.340  0.00  0.00     0.007 A 
ATOM     15  C   UNL d   1     -42.811  12.315  21.943  0.00  0.00     0.019 A 
BRANCH  13  16
ATOM     16  C   UNL d   1     -44.908  12.350  22.562  0.00  0.00     0.300 C 
ATOM     17  O   UNL d   1     -44.980  11.684  23.002  0.00  0.00    -0.259 OA
BRANCH  16  18
ATOM     18  O   UNL d   1     -45.596  12.796  22.566  0.00  0.00    -0.271 OA
BRANCH  18  19
ATOM     19  C   UNL d   1     -46.196  12.612  23.086  0.00  0.00     0.126 C 
ATOM     20  C   UNL d   1     -46.840  13.082  23.128  0.00  0.00     0.029 C 
ENDBRANCH  18  19
ENDBRANCH  16  18
ENDBRANCH  13  16
ENDBRANCH   8  10
ENDBRANCH   2   7
BRANCH   1  21
ATOM     21  S   UNL d   1     -40.337  14.696  18.695  0.00  0.00     0.272 S 
ATOM     22  O   UNL d   1     -40.254  15.499  18.928  0.00  0.00    -0.200 OA
ATOM     23  O   UNL d   1     -40.418  13.916  18.448  0.00  0.00    -0.200 OA
BRANCH  21  24
ATOM     24  N   UNL d   1     -40.358  14.936  17.913  0.00  0.00    -0.225 N 
ATOM     25  C   UNL d   1     -41.001  15.337  17.633  0.00  0.00     0.118 A 
ATOM     26  C   UNL d   1     -41.036  15.583  16.854  0.00  0.00     0.142 A 
ATOM     27  O   UNL d   1     -40.421  15.426  16.349  0.00  0.00    -0.300 OA
ATOM     28  C   UNL d   1     -39.752  15.011  16.630  0.00  0.00     0.142 A 
ATOM     29  C   UNL d   1     -39.724  14.767  17.413  0.00  0.00     0.118 A 
ENDBRANCH  21  24
ENDBRANCH   1  21
TORSDOF 7
ENDMDL
MODEL 5
REMARK VINA RESULT:      -4.1      1.852      2.373
REMARK  7 active torsions:
REMARK  status: ('A' for Active; 'I' for Inactive)
REMARK    1  A    between atoms: N_2  and  S_1 
REMARK    2  A    between atoms: C_3  and  S_1 
REMARK    3  A    between atoms: C_4  and  C_7 
REMARK       I    between atoms: N_5  and  C_4 
REMARK    4  A    between atoms: C_15  and  N_5 
REMARK    5  A    between atoms: C_6  and  C_11 
REMARK    6  A    between atoms: O_20  and  C_6 
REMARK    7  A    between atoms: C_28  and  O_20 
ROOT
ATOM      1  C   UNL d   1     -50.032  12.583  22.957  0.00  0.00     0.104 A 
ATOM      2  C   UNL d   1     -48.964  11.665  23.215  0.00  0.00     0.059 A 
ATOM      3  C   UNL d   1     -49.233  12.375  22.939  0.00  0.00     0.018 A 
ATOM      4  C   UNL d   1     -50.596  12.018  23.284  0.00  0.00     0.013 A 
ATOM      5  C   UNL d   1     -49.528  11.100  23.542  0.00  0.00     0.005 A 
ATOM      6  C   UNL d   1     -50.312  11.295  23.564  0.00  0.00     0.001 A 
ENDROOT
BRANCH   2   7
ATOM      7  C   UNL d   1     -48.162  11.487  23.184  0.00  0.00     0.279 C 
ATOM      8  N   UNL d   1     -47.603  12.083  23.153  0.00  0.00    -0.208 NA
ATOM      9  O   UNL d   1     -47.855  10.705  23.182  0.00  0.00    -0.265 OA
BRANCH   8  10
ATOM     10  C   UNL d   1     -46.784  11.905  23.121  0.00  0.00     0.085 A 
ATOM     11  C   UNL d   1     -46.441  11.389  23.694  0.00  0.00     0.019 A 
ATOM     12  C   UNL d   1     -45.592  11.223  23.636  0.00  0.00     0.007 A 
ATOM     13  C   UNL d   1     -45.126  11.576  23.014  0.00  0.00     0.064 A 
ATOM     14  C   UNL d   1     -45.473  12.079  22.459  0.00  0.00     0.007 A 
ATOM     15  C   UNL d   1     -46.304  12.255  22.497  0.00  0.00     0.019 A 
BRANCH  13  16
ATOM     16  C   UNL d   1     -44.329  11.430  22.947  0.00  0.00     0.300 C 
ATOM     17  O   UNL d   1     -43.858  11.791  22.407  0.00  0.00    -0.259 OA
BRANCH  16  18
ATOM     18  O   UNL d   1     -43.911  10.904  23.414  0.00  0.00    -0.271 OA
BRANCH  18  19
ATOM     19  C   UNL d   1     -43.236  10.550  23.124  0.00  0.00     0.126 C 
ATOM     20  C   UNL d   1     -42.894   9.957  23.535  0.00  0.00     0.029 C 
ENDBRANCH  18  19
ENDBRANCH  16  18
ENDBRANCH  13  16
ENDBRANCH   8  10
ENDBRANCH   2   7
BRANCH   1  21
ATOM     21  S   UNL d   1     -50.290  13.314  22.670  0.00  0.00     0.272 S 
ATOM     22  O   UNL d   1     -50.151  13.681  23.414  0.00  0.00    -0.200 OA
ATOM     23  O   UNL d   1     -50.432  12.974  21.936  0.00  0.00    -0.200 OA
BRANCH  21  24
ATOM     24  N   UNL d   1     -50.548  14.034  22.375  0.00  0.00    -0.225 N 
ATOM     25  C   UNL d   1     -50.561  14.683  22.857  0.00  0.00     0.118 A 
ATOM     26  C   UNL d   1     -50.816  15.408  22.575  0.00  0.00     0.142 A 
ATOM     27  O   UNL d   1     -51.060  15.484  21.806  0.00  0.00    -0.300 OA
ATOM     28  C   UNL d   1     -51.049  14.817  21.302  0.00  0.00     0.142 A 
ATOM     29  C   UNL d   1     -50.793  14.093  21.590  0.00  0.00     0.118 A 
ENDBRANCH  21  24
ENDBRANCH   1  21
TORSDOF 7
ENDMDL
