MODEL 1
REMARK VINA RESULT:      12.8      0.000      0.000
REMARK  2 active torsions:
REMARK  status: ('A' for Active; 'I' for Inactive)
REMARK    1  A    between atoms: C_6  and  C_3 
REMARK    2  A    between atoms: C_13  and  C_7 
ROOT
ATOM      1  C   UNL d   1      45.804 -16.399  44.341  0.00  0.00     0.018 A 
ATOM      2  C   UNL d   1      46.134 -17.970  43.984  0.00  0.00     0.000 A 
ATOM      3  C   UNL d   1      45.897 -16.946  44.949  0.00  0.00     0.002 A 
ATOM      4  C   UNL d   1      45.875 -16.633  43.552  0.00  0.00     0.002 A 
ATOM      5  C   UNL d   1      46.063 -17.735  44.774  0.00  0.00     0.000 A 
ATOM      6  C   UNL d   1      46.040 -17.419  43.377  0.00  0.00     0.000 A 
ENDROOT
BRANCH   1   7
ATOM      7  C   UNL d   1      45.638 -15.609  44.517  0.00  0.00     0.090 A 
ATOM      8  N   UNL d   1      46.130 -14.964  44.370  0.00  0.00    -0.219 NA
ATOM      9  C   UNL d   1      45.748 -14.284  44.633  0.00  0.00     0.215 A 
ATOM     10  S   UNL d   1      45.016 -14.498  44.945  0.00  0.00    -0.045 SA
ATOM     11  N   UNL d   1      46.044 -13.513  44.593  0.00  0.00    -0.120 N 
ATOM     12  C   UNL d   1      44.944 -15.320  44.876  0.00  0.00     0.058 A 
ENDBRANCH   1   7
BRANCH   2  13
ATOM     13  C   UNL d   1      46.300 -18.759  43.805  0.00  0.00     0.000 A 
ATOM     14  C   UNL d   1      46.280 -19.008  43.019  0.00  0.00     0.000 A 
ATOM     15  C   UNL d   1      46.444 -19.786  42.845  0.00  0.00     0.000 A 
ATOM     16  C   UNL d   1      46.628 -20.325  43.443  0.00  0.00     0.000 A 
ATOM     17  C   UNL d   1      46.646 -20.070  44.222  0.00  0.00     0.000 A 
ATOM     18  C   UNL d   1      46.482 -19.285  44.404  0.00  0.00     0.000 A 
ENDBRANCH   2  13
TORSDOF 2
ENDMDL
MODEL 2
REMARK VINA RESULT:      13.9      2.140      4.323
REMARK  2 active torsions:
REMARK  status: ('A' for Active; 'I' for Inactive)
REMARK    1  A    between atoms: C_6  and  C_3 
REMARK    2  A    between atoms: C_13  and  C_7 
ROOT
ATOM      1  C   UNL d   1      46.150 -17.717  43.976  0.00  0.00     0.018 A 
ATOM      2  C   UNL d   1      45.812 -16.154  44.358  0.00  0.00     0.000 A 
ATOM      3  C   UNL d   1      46.005 -17.510  44.759  0.00  0.00     0.002 A 
ATOM      4  C   UNL d   1      46.127 -17.146  43.380  0.00  0.00     0.002 A 
ATOM      5  C   UNL d   1      45.835 -16.726  44.955  0.00  0.00     0.000 A 
ATOM      6  C   UNL d   1      45.958 -16.366  43.574  0.00  0.00     0.000 A 
ENDROOT
BRANCH   1   7
ATOM      7  C   UNL d   1      46.320 -18.502  43.781  0.00  0.00     0.090 A 
ATOM      8  N   UNL d   1      46.316 -18.827  43.023  0.00  0.00    -0.219 NA
ATOM      9  C   UNL d   1      46.517 -19.623  43.083  0.00  0.00     0.215 A 
ATOM     10  S   UNL d   1      46.647 -19.802  43.878  0.00  0.00    -0.045 SA
ATOM     11  N   UNL d   1      46.579 -20.158  42.457  0.00  0.00    -0.120 N 
ATOM     12  C   UNL d   1      46.525 -19.109  44.314  0.00  0.00     0.058 A 
ENDBRANCH   1   7
BRANCH   2  13
ATOM     13  C   UNL d   1      45.642 -15.369  44.551  0.00  0.00     0.000 A 
ATOM     14  C   UNL d   1      46.246 -14.807  44.528  0.00  0.00     0.000 A 
ATOM     15  C   UNL d   1      46.076 -14.034  44.717  0.00  0.00     0.000 A 
ATOM     16  C   UNL d   1      45.311 -13.808  44.932  0.00  0.00     0.000 A 
ATOM     17  C   UNL d   1      44.717 -14.371  44.952  0.00  0.00     0.000 A 
ATOM     18  C   UNL d   1      44.881 -15.154  44.762  0.00  0.00     0.000 A 
ENDBRANCH   2  13
TORSDOF 2
ENDMDL
