MODEL 1
REMARK VINA RESULT:      -8.6      0.000      0.000
REMARK  3 active torsions:
REMARK  status: ('A' for Active; 'I' for Inactive)
REMARK    1  A    between atoms: N_3  and  C_1 
REMARK       I    between atoms: C_5  and  N_3 
REMARK    2  A    between atoms: C_14  and  C_4 
REMARK       I    between atoms: N_8  and  C_5 
REMARK    3  A    between atoms: C_11  and  N_8 
ROOT
ATOM      1  N   UNL d   1      52.666  33.291  53.189  0.00  0.00    -0.166 NA
ATOM      2  C   UNL d   1      52.801  32.527  53.039  0.00  0.00     0.370 C 
ATOM      3  N   UNL d   1      53.377  32.127  53.437  0.00  0.00    -0.191 NA
ATOM      4  O   UNL d   1      52.356  32.122  52.473  0.00  0.00    -0.242 OA
ENDROOT
BRANCH   1   5
ATOM      5  C   UNL d   1      52.089  33.689  52.789  0.00  0.00     0.199 A 
ATOM      6  N   UNL d   1      51.350  33.844  53.069  0.00  0.00    -0.221 NA
ATOM      7  C   UNL d   1      50.945  34.257  52.488  0.00  0.00     0.090 A 
ATOM      8  C   UNL d   1      51.458  34.348  51.848  0.00  0.00     0.058 A 
ATOM      9  S   UNL d   1      52.166  33.988  52.054  0.00  0.00    -0.046 SA
BRANCH   7  10
ATOM     10  C   UNL d   1      50.183  34.525  52.535  0.00  0.00     0.018 A 
ATOM     11  C   UNL d   1      49.913  34.929  53.209  0.00  0.00     0.002 A 
ATOM     12  C   UNL d   1      49.135  35.202  53.253  0.00  0.00     0.000 A 
ATOM     13  C   UNL d   1      48.622  35.077  52.636  0.00  0.00     0.000 A 
ATOM     14  C   UNL d   1      48.879  34.673  51.956  0.00  0.00     0.000 A 
ATOM     15  C   UNL d   1      49.664  34.394  51.901  0.00  0.00     0.002 A 
ENDBRANCH   7  10
ENDBRANCH   1   5
BRANCH   3  16
ATOM     16  C   UNL d   1      53.834  32.519  54.010  0.00  0.00     0.087 A 
ATOM     17  C   UNL d   1      54.512  32.873  53.799  0.00  0.00     0.032 A 
ATOM     18  C   UNL d   1      54.965  33.256  54.341  0.00  0.00     0.070 A 
ATOM     19 CL   UNL d   1      55.683  33.629  54.111  0.00  0.00    -0.081 Cl
ATOM     20  C   UNL d   1      54.748  33.293  55.104  0.00  0.00     0.068 A 
ATOM     21  C   UNL d   1      54.038  32.928  55.350  0.00  0.00     0.014 A 
ATOM     22 CL   UNL d   1      55.207  33.681  55.652  0.00  0.00    -0.082 Cl
ATOM     23  C   UNL d   1      53.584  32.544  54.807  0.00  0.00     0.020 A 
ENDBRANCH   3  16
TORSDOF 3
ENDMDL
MODEL 2
REMARK VINA RESULT:      -8.1      2.617      4.827
REMARK  3 active torsions:
REMARK  status: ('A' for Active; 'I' for Inactive)
REMARK    1  A    between atoms: N_3  and  C_1 
REMARK       I    between atoms: C_5  and  N_3 
REMARK    2  A    between atoms: C_14  and  C_4 
REMARK       I    between atoms: N_8  and  C_5 
REMARK    3  A    between atoms: C_11  and  N_8 
ROOT
ATOM      1  N   UNL d   1      52.587  33.143  53.174  0.00  0.00    -0.166 NA
ATOM      2  C   UNL d   1      52.817  33.842  53.464  0.00  0.00     0.370 C 
ATOM      3  N   UNL d   1      52.391  34.508  53.310  0.00  0.00    -0.191 NA
ATOM      4  O   UNL d   1      53.497  33.904  53.929  0.00  0.00    -0.242 OA
ENDROOT
BRANCH   1   5
ATOM      5  C   UNL d   1      53.016  32.477  53.330  0.00  0.00     0.199 A 
ATOM      6  N   UNL d   1      52.707  31.755  53.508  0.00  0.00    -0.221 NA
ATOM      7  C   UNL d   1      53.333  31.239  53.625  0.00  0.00     0.090 A 
ATOM      8  C   UNL d   1      54.030  31.667  53.514  0.00  0.00     0.058 A 
ATOM      9  S   UNL d   1      53.812  32.437  53.330  0.00  0.00    -0.046 SA
BRANCH   7  10
ATOM     10  C   UNL d   1      53.277  30.454  53.816  0.00  0.00     0.018 A 
ATOM     11  C   UNL d   1      53.422  30.191  54.591  0.00  0.00     0.002 A 
ATOM     12  C   UNL d   1      53.364  29.391  54.782  0.00  0.00     0.000 A 
ATOM     13  C   UNL d   1      53.164  28.848  54.212  0.00  0.00     0.000 A 
ATOM     14  C   UNL d   1      53.017  29.096  53.432  0.00  0.00     0.000 A 
ATOM     15  C   UNL d   1      53.073  29.904  53.229  0.00  0.00     0.002 A 
ENDBRANCH   7  10
ENDBRANCH   1   5
BRANCH   3  16
ATOM     16  C   UNL d   1      51.704  34.463  52.844  0.00  0.00     0.087 A 
ATOM     17  C   UNL d   1      50.991  34.542  53.183  0.00  0.00     0.032 A 
ATOM     18  C   UNL d   1      50.318  34.501  52.747  0.00  0.00     0.070 A 
ATOM     19 CL   UNL d   1      49.566  34.585  53.113  0.00  0.00    -0.081 Cl
ATOM     20  C   UNL d   1      50.345  34.381  51.963  0.00  0.00     0.068 A 
ATOM     21  C   UNL d   1      51.084  34.295  51.583  0.00  0.00     0.014 A 
ATOM     22 CL   UNL d   1      49.663  34.339  51.521  0.00  0.00    -0.082 Cl
ATOM     23  C   UNL d   1      51.758  34.336  52.019  0.00  0.00     0.020 A 
ENDBRANCH   3  16
TORSDOF 3
ENDMDL
MODEL 3
REMARK VINA RESULT:      -8.0      2.027      2.419
REMARK  3 active torsions:
REMARK  status: ('A' for Active; 'I' for Inactive)
REMARK    1  A    between atoms: N_3  and  C_1 
REMARK       I    between atoms: C_5  and  N_3 
REMARK    2  A    between atoms: C_14  and  C_4 
REMARK       I    between atoms: N_8  and  C_5 
REMARK    3  A    between atoms: C_11  and  N_8 
ROOT
ATOM      1  N   UNL d   1      52.726  32.513  53.343  0.00  0.00    -0.166 NA
ATOM      2  C   UNL d   1      53.513  32.577  53.378  0.00  0.00     0.370 C 
ATOM      3  N   UNL d   1      53.975  31.919  53.427  0.00  0.00    -0.191 NA
ATOM      4  O   UNL d   1      53.878  33.318  53.364  0.00  0.00    -0.242 OA
ENDROOT
BRANCH   1   5
ATOM      5  C   UNL d   1      52.265  33.174  53.293  0.00  0.00     0.199 A 
ATOM      6  N   UNL d   1      51.557  33.221  52.912  0.00  0.00    -0.221 NA
ATOM      7  C   UNL d   1      51.279  33.987  52.998  0.00  0.00     0.090 A 
ATOM      8  C   UNL d   1      51.837  34.404  53.441  0.00  0.00     0.058 A 
ATOM      9  S   UNL d   1      52.445  33.880  53.616  0.00  0.00    -0.046 SA
BRANCH   7  10
ATOM     10  C   UNL d   1      50.585  34.281  52.702  0.00  0.00     0.018 A 
ATOM     11  C   UNL d   1      50.053  34.691  53.191  0.00  0.00     0.002 A 
ATOM     12  C   UNL d   1      49.346  34.989  52.887  0.00  0.00     0.000 A 
ATOM     13  C   UNL d   1      49.162  34.884  52.103  0.00  0.00     0.000 A 
ATOM     14  C   UNL d   1      49.685  34.476  51.602  0.00  0.00     0.000 A 
ATOM     15  C   UNL d   1      50.403  34.170  51.900  0.00  0.00     0.002 A 
ENDBRANCH   7  10
ENDBRANCH   1   5
BRANCH   3  16
ATOM     16  C   UNL d   1      53.625  31.166  53.442  0.00  0.00     0.087 A 
ATOM     17  C   UNL d   1      53.588  30.761  54.124  0.00  0.00     0.032 A 
ATOM     18  C   UNL d   1      53.252  30.031  54.155  0.00  0.00     0.070 A 
ATOM     19 CL   UNL d   1      53.217  29.609  54.881  0.00  0.00    -0.081 Cl
ATOM     20  C   UNL d   1      52.947  29.693  53.505  0.00  0.00     0.068 A 
ATOM     21  C   UNL d   1      52.974  30.100  52.775  0.00  0.00     0.014 A 
ATOM     22 CL   UNL d   1      52.607  28.955  53.537  0.00  0.00    -0.082 Cl
ATOM     23  C   UNL d   1      53.310  30.830  52.744  0.00  0.00     0.020 A 
ENDBRANCH   3  16
TORSDOF 3
ENDMDL
MODEL 4
REMARK VINA RESULT:      -7.3      1.311      1.901
REMARK  3 active torsions:
REMARK  status: ('A' for Active; 'I' for Inactive)
REMARK    1  A    between atoms: N_3  and  C_1 
REMARK       I    between atoms: C_5  and  N_3 
REMARK    2  A    between atoms: C_14  and  C_4 
REMARK       I    between atoms: N_8  and  C_5 
REMARK    3  A    between atoms: C_11  and  N_8 
ROOT
ATOM      1  N   UNL d   1      51.919  33.777  53.141  0.00  0.00    -0.166 NA
ATOM      2  C   UNL d   1      52.565  34.184  52.934  0.00  0.00     0.370 C 
ATOM      3  N   UNL d   1      53.298  33.863  53.027  0.00  0.00    -0.191 NA
ATOM      4  O   UNL d   1      52.502  34.945  52.618  0.00  0.00    -0.242 OA
ENDROOT
BRANCH   1   5
ATOM      5  C   UNL d   1      51.186  34.102  53.047  0.00  0.00     0.199 A 
ATOM      6  N   UNL d   1      50.765  34.109  52.360  0.00  0.00    -0.221 NA
ATOM      7  C   UNL d   1      50.055  34.491  52.508  0.00  0.00     0.090 A 
ATOM      8  C   UNL d   1      50.057  34.717  53.302  0.00  0.00     0.058 A 
ATOM      9  S   UNL d   1      50.770  34.465  53.621  0.00  0.00    -0.046 SA
BRANCH   7  10
ATOM     10  C   UNL d   1      49.462  34.623  51.973  0.00  0.00     0.018 A 
ATOM     11  C   UNL d   1      49.487  34.282  51.216  0.00  0.00     0.002 A 
ATOM     12  C   UNL d   1      48.881  34.419  50.672  0.00  0.00     0.000 A 
ATOM     13  C   UNL d   1      48.251  34.890  50.872  0.00  0.00     0.000 A 
ATOM     14  C   UNL d   1      48.213  35.238  51.627  0.00  0.00     0.000 A 
ATOM     15  C   UNL d   1      48.821  35.106  52.184  0.00  0.00     0.002 A 
ENDBRANCH   7  10
ENDBRANCH   1   5
BRANCH   3  16
ATOM     16  C   UNL d   1      53.379  33.099  53.344  0.00  0.00     0.087 A 
ATOM     17  C   UNL d   1      53.655  33.005  54.082  0.00  0.00     0.032 A 
ATOM     18  C   UNL d   1      53.739  32.272  54.403  0.00  0.00     0.070 A 
ATOM     19 CL   UNL d   1      54.032  32.180  55.185  0.00  0.00    -0.081 Cl
ATOM     20  C   UNL d   1      53.549  31.621  53.991  0.00  0.00     0.068 A 
ATOM     21  C   UNL d   1      53.256  31.695  53.212  0.00  0.00     0.014 A 
ATOM     22 CL   UNL d   1      53.634  30.881  54.316  0.00  0.00    -0.082 Cl
ATOM     23  C   UNL d   1      53.172  32.427  52.891  0.00  0.00     0.020 A 
ENDBRANCH   3  16
TORSDOF 3
ENDMDL
MODEL 5
REMARK VINA RESULT:      -7.2      1.273      1.598
REMARK  3 active torsions:
REMARK  status: ('A' for Active; 'I' for Inactive)
REMARK    1  A    between atoms: N_3  and  C_1 
REMARK       I    between atoms: C_5  and  N_3 
REMARK    2  A    between atoms: C_14  and  C_4 
REMARK       I    between atoms: N_8  and  C_5 
REMARK    3  A    between atoms: C_11  and  N_8 
ROOT
ATOM      1  N   UNL d   1      51.829  34.156  53.156  0.00  0.00    -0.166 NA
ATOM      2  C   UNL d   1      52.392  34.514  52.732  0.00  0.00     0.370 C 
ATOM      3  N   UNL d   1      53.167  34.445  52.940  0.00  0.00    -0.191 NA
ATOM      4  O   UNL d   1      52.198  34.967  52.068  0.00  0.00    -0.242 OA
ENDROOT
BRANCH   1   5
ATOM      5  C   UNL d   1      51.052  34.227  52.945  0.00  0.00     0.199 A 
ATOM      6  N   UNL d   1      50.569  34.838  53.148  0.00  0.00    -0.221 NA
ATOM      7  C   UNL d   1      49.832  34.691  52.820  0.00  0.00     0.090 A 
ATOM      8  C   UNL d   1      49.881  33.975  52.413  0.00  0.00     0.058 A 
ATOM      9  S   UNL d   1      50.650  33.701  52.503  0.00  0.00    -0.046 SA
BRANCH   7  10
ATOM     10  C   UNL d   1      49.177  35.163  52.885  0.00  0.00     0.018 A 
ATOM     11  C   UNL d   1      48.993  35.542  53.601  0.00  0.00     0.002 A 
ATOM     12  C   UNL d   1      48.325  36.022  53.664  0.00  0.00     0.000 A 
ATOM     13  C   UNL d   1      47.837  36.129  53.023  0.00  0.00     0.000 A 
ATOM     14  C   UNL d   1      48.009  35.756  52.300  0.00  0.00     0.000 A 
ATOM     15  C   UNL d   1      48.683  35.269  52.227  0.00  0.00     0.002 A 
ENDBRANCH   7  10
ENDBRANCH   1   5
BRANCH   3  16
ATOM     16  C   UNL d   1      53.379  33.994  53.605  0.00  0.00     0.087 A 
ATOM     17  C   UNL d   1      53.595  33.235  53.514  0.00  0.00     0.032 A 
ATOM     18  C   UNL d   1      53.803  32.785  54.147  0.00  0.00     0.070 A 
ATOM     19 CL   UNL d   1      54.030  31.983  54.044  0.00  0.00    -0.081 Cl
ATOM     20  C   UNL d   1      53.800  33.085  54.881  0.00  0.00     0.068 A 
ATOM     21  C   UNL d   1      53.576  33.882  55.002  0.00  0.00     0.014 A 
ATOM     22 CL   UNL d   1      54.010  32.630  55.521  0.00  0.00    -0.082 Cl
ATOM     23  C   UNL d   1      53.368  34.332  54.369  0.00  0.00     0.020 A 
ENDBRANCH   3  16
TORSDOF 3
ENDMDL
MODEL 6
REMARK VINA RESULT:      -7.1      2.798      3.676
REMARK  3 active torsions:
REMARK  status: ('A' for Active; 'I' for Inactive)
REMARK    1  A    between atoms: N_3  and  C_1 
REMARK       I    between atoms: C_5  and  N_3 
REMARK    2  A    between atoms: C_14  and  C_4 
REMARK       I    between atoms: N_8  and  C_5 
REMARK    3  A    between atoms: C_11  and  N_8 
ROOT
ATOM      1  N   UNL d   1      53.359  31.406  53.633  0.00  0.00    -0.166 NA
ATOM      2  C   UNL d   1      53.022  31.117  52.978  0.00  0.00     0.370 C 
ATOM      3  N   UNL d   1      52.799  30.343  52.941  0.00  0.00    -0.191 NA
ATOM      4  O   UNL d   1      52.891  31.600  52.321  0.00  0.00    -0.242 OA
ENDROOT
BRANCH   1   5
ATOM      5  C   UNL d   1      53.581  32.182  53.667  0.00  0.00     0.199 A 
ATOM      6  N   UNL d   1      53.136  32.780  53.970  0.00  0.00    -0.221 NA
ATOM      7  C   UNL d   1      53.568  33.472  53.896  0.00  0.00     0.090 A 
ATOM      8  C   UNL d   1      54.287  33.279  53.540  0.00  0.00     0.058 A 
ATOM      9  S   UNL d   1      54.276  32.469  53.405  0.00  0.00    -0.046 SA
BRANCH   7  10
ATOM     10  C   UNL d   1      53.332  34.211  54.130  0.00  0.00     0.018 A 
ATOM     11  C   UNL d   1      52.964  34.730  53.596  0.00  0.00     0.002 A 
ATOM     12  C   UNL d   1      52.724  35.482  53.837  0.00  0.00     0.000 A 
ATOM     13  C   UNL d   1      52.847  35.725  54.602  0.00  0.00     0.000 A 
ATOM     14  C   UNL d   1      53.214  35.216  55.148  0.00  0.00     0.000 A 
ATOM     15  C   UNL d   1      53.460  34.453  54.913  0.00  0.00     0.002 A 
ENDBRANCH   7  10
ENDBRANCH   1   5
BRANCH   3  16
ATOM     16  C   UNL d   1      52.924  29.843  53.593  0.00  0.00     0.087 A 
ATOM     17  C   UNL d   1      53.574  29.390  53.624  0.00  0.00     0.032 A 
ATOM     18  C   UNL d   1      53.709  28.901  54.247  0.00  0.00     0.070 A 
ATOM     19 CL   UNL d   1      54.400  28.423  54.274  0.00  0.00    -0.081 Cl
ATOM     20  C   UNL d   1      53.196  28.857  54.851  0.00  0.00     0.068 A 
ATOM     21  C   UNL d   1      52.504  29.326  54.841  0.00  0.00     0.014 A 
ATOM     22 CL   UNL d   1      53.333  28.363  55.482  0.00  0.00    -0.082 Cl
ATOM     23  C   UNL d   1      52.369  29.814  54.218  0.00  0.00     0.020 A 
ENDBRANCH   3  16
TORSDOF 3
ENDMDL
MODEL 7
REMARK VINA RESULT:      -7.1      2.628      4.591
REMARK  3 active torsions:
REMARK  status: ('A' for Active; 'I' for Inactive)
REMARK    1  A    between atoms: N_3  and  C_1 
REMARK       I    between atoms: C_5  and  N_3 
REMARK    2  A    between atoms: C_14  and  C_4 
REMARK       I    between atoms: N_8  and  C_5 
REMARK    3  A    between atoms: C_11  and  N_8 
ROOT
ATOM      1  N   UNL d   1      53.559  32.397  53.704  0.00  0.00    -0.166 NA
ATOM      2  C   UNL d   1      54.251  32.662  53.430  0.00  0.00     0.370 C 
ATOM      3  N   UNL d   1      54.439  33.444  53.481  0.00  0.00    -0.191 NA
ATOM      4  O   UNL d   1      54.796  32.146  53.085  0.00  0.00    -0.242 OA
ENDROOT
BRANCH   1   5
ATOM      5  C   UNL d   1      53.374  31.612  53.650  0.00  0.00     0.199 A 
ATOM      6  N   UNL d   1      53.560  31.052  54.198  0.00  0.00    -0.221 NA
ATOM      7  C   UNL d   1      53.270  30.335  53.927  0.00  0.00     0.090 A 
ATOM      8  C   UNL d   1      52.904  30.474  53.201  0.00  0.00     0.058 A 
ATOM      9  S   UNL d   1      52.979  31.277  53.045  0.00  0.00    -0.046 SA
BRANCH   7  10
ATOM     10  C   UNL d   1      53.332  29.620  54.303  0.00  0.00     0.018 A 
ATOM     11  C   UNL d   1      53.648  28.958  53.913  0.00  0.00     0.002 A 
ATOM     12  C   UNL d   1      53.710  28.231  54.298  0.00  0.00     0.000 A 
ATOM     13  C   UNL d   1      53.463  28.155  55.068  0.00  0.00     0.000 A 
ATOM     14  C   UNL d   1      53.145  28.809  55.472  0.00  0.00     0.000 A 
ATOM     15  C   UNL d   1      53.078  29.549  55.090  0.00  0.00     0.002 A 
ENDBRANCH   7  10
ENDBRANCH   1   5
BRANCH   3  16
ATOM     16  C   UNL d   1      53.902  33.978  53.826  0.00  0.00     0.087 A 
ATOM     17  C   UNL d   1      53.337  34.311  53.379  0.00  0.00     0.032 A 
ATOM     18  C   UNL d   1      52.810  34.829  53.697  0.00  0.00     0.070 A 
ATOM     19 CL   UNL d   1      52.214  35.178  53.218  0.00  0.00    -0.081 Cl
ATOM     20  C   UNL d   1      52.839  35.022  54.466  0.00  0.00     0.068 A 
ATOM     21  C   UNL d   1      53.426  34.684  54.956  0.00  0.00     0.014 A 
ATOM     22 CL   UNL d   1      52.307  35.546  54.787  0.00  0.00    -0.082 Cl
ATOM     23  C   UNL d   1      53.953  34.166  54.638  0.00  0.00     0.020 A 
ENDBRANCH   3  16
TORSDOF 3
ENDMDL
