MODEL 1
REMARK VINA RESULT:      -5.0      0.000      0.000
REMARK  5 active torsions:
REMARK  status: ('A' for Active; 'I' for Inactive)
REMARK    1  A    between atoms: N_4  and  C_2 
REMARK    2  A    between atoms: S_8  and  C_3 
REMARK    3  A    between atoms: C_10  and  S_8 
REMARK    4  A    between atoms: C_9  and  C_10 
REMARK    5  A    between atoms: C_12  and  C_9 
ROOT
ATOM      1  N   UNL d   1     -41.509-123.006 -51.232  0.00  0.00    -0.203 NA
ATOM      2  C   UNL d   1     -41.585-122.561 -50.534  0.00  0.00     0.152 A 
ATOM      3  C   UNL d   1     -41.302-122.635 -51.924  0.00  0.00     0.196 A 
ATOM      4  C   UNL d   1     -41.461-121.787 -50.527  0.00  0.00     0.057 A 
ATOM      5  N   UNL d   1     -41.171-121.822 -51.917  0.00  0.00    -0.221 NA
ATOM      6  C   UNL d   1     -41.247-121.377 -51.219  0.00  0.00     0.087 A 
ATOM      7  C   UNL d   1     -41.123-120.554 -51.178  0.00  0.00     0.021 C 
ENDROOT
BRANCH   3   8
ATOM      8  S   UNL d   1     -41.217-123.041 -52.629  0.00  0.00    -0.045 SA
BRANCH   8   9
ATOM      9  C   UNL d   1     -41.437-122.666 -53.331  0.00  0.00     0.080 C 
BRANCH   9  10
ATOM     10  C   UNL d   1     -41.456-123.071 -54.065  0.00  0.00     0.202 C 
ATOM     11  O   UNL d   1     -41.125-123.813 -54.162  0.00  0.00    -0.286 OA
BRANCH  10  12
ATOM     12  C   UNL d   1     -41.828-122.666 -54.668  0.00  0.00     0.040 A 
ATOM     13  C   UNL d   1     -41.389-122.064 -55.085  0.00  0.00     0.003 A 
ATOM     14  C   UNL d   1     -41.724-121.657 -55.671  0.00  0.00     0.000 A 
ATOM     15  C   UNL d   1     -42.504-121.802 -55.898  0.00  0.00     0.000 A 
ATOM     16  C   UNL d   1     -42.927-122.372 -55.506  0.00  0.00     0.000 A 
ATOM     17  C   UNL d   1     -42.608-122.810 -54.894  0.00  0.00     0.003 A 
ENDBRANCH  10  12
ENDBRANCH   9  10
ENDBRANCH   8   9
ENDBRANCH   3   8
BRANCH   2  18
ATOM     18  N   UNL d   1     -41.802-122.971 -49.829  0.00  0.00    -0.285 N 
ATOM     19  C   UNL d   1     -42.555-123.054 -49.627  0.00  0.00     0.108 A 
ATOM     20  C   UNL d   1     -42.789-123.458 -48.930  0.00  0.00     0.142 A 
ATOM     21  O   UNL d   1     -42.162-123.771 -48.458  0.00  0.00    -0.300 OA
ATOM     22  C   UNL d   1     -41.420-123.668 -48.693  0.00  0.00     0.142 A 
ATOM     23  C   UNL d   1     -41.190-123.282 -49.359  0.00  0.00     0.108 A 
ENDBRANCH   2  18
TORSDOF 5
ENDMDL
MODEL 2
REMARK VINA RESULT:      -3.6      1.089      5.117
REMARK  5 active torsions:
REMARK  status: ('A' for Active; 'I' for Inactive)
REMARK    1  A    between atoms: N_4  and  C_2 
REMARK    2  A    between atoms: S_8  and  C_3 
REMARK    3  A    between atoms: C_10  and  S_8 
REMARK    4  A    between atoms: C_9  and  C_10 
REMARK    5  A    between atoms: C_12  and  C_9 
ROOT
ATOM      1  N   UNL d   1     -41.691-123.138 -52.050  0.00  0.00    -0.203 NA
ATOM      2  C   UNL d   1     -41.471-122.569 -52.616  0.00  0.00     0.152 A 
ATOM      3  C   UNL d   1     -41.724-122.932 -51.266  0.00  0.00     0.196 A 
ATOM      4  C   UNL d   1     -41.293-121.834 -52.408  0.00  0.00     0.057 A 
ATOM      5  N   UNL d   1     -41.538-122.160 -51.048  0.00  0.00    -0.221 NA
ATOM      6  C   UNL d   1     -41.317-121.591 -51.613  0.00  0.00     0.087 A 
ATOM      7  C   UNL d   1     -41.123-120.804 -51.425  0.00  0.00     0.021 C 
ENDROOT
BRANCH   3   8
ATOM      8  S   UNL d   1     -41.937-123.465 -50.683  0.00  0.00    -0.045 SA
BRANCH   8   9
ATOM      9  C   UNL d   1     -41.893-123.228 -49.894  0.00  0.00     0.080 C 
BRANCH   9  10
ATOM     10  C   UNL d   1     -42.432-123.506 -49.315  0.00  0.00     0.202 C 
ATOM     11  O   UNL d   1     -43.169-123.801 -49.512  0.00  0.00    -0.286 OA
BRANCH  10  12
ATOM     12  C   UNL d   1     -42.162-123.458 -48.547  0.00  0.00     0.040 A 
ATOM     13  C   UNL d   1     -42.621-123.013 -47.981  0.00  0.00     0.003 A 
ATOM     14  C   UNL d   1     -42.383-122.950 -47.232  0.00  0.00     0.000 A 
ATOM     15  C   UNL d   1     -41.687-123.310 -46.975  0.00  0.00     0.000 A 
ATOM     16  C   UNL d   1     -41.245-123.734 -47.507  0.00  0.00     0.000 A 
ATOM     17  C   UNL d   1     -41.465-123.817 -48.290  0.00  0.00     0.003 A 
ENDBRANCH  10  12
ENDBRANCH   9  10
ENDBRANCH   8   9
ENDBRANCH   3   8
BRANCH   2  18
ATOM     18  N   UNL d   1     -41.445-122.809 -53.424  0.00  0.00    -0.285 N 
ATOM     19  C   UNL d   1     -41.639-122.311 -53.998  0.00  0.00     0.108 A 
ATOM     20  C   UNL d   1     -41.618-122.532 -54.807  0.00  0.00     0.142 A 
ATOM     21  O   UNL d   1     -41.375-123.325 -54.967  0.00  0.00    -0.300 OA
ATOM     22  C   UNL d   1     -41.189-123.794 -54.365  0.00  0.00     0.142 A 
ATOM     23  C   UNL d   1     -41.206-123.588 -53.589  0.00  0.00     0.108 A 
ENDBRANCH   2  18
TORSDOF 5
ENDMDL
