MODEL 1
REMARK VINA RESULT:      19.5      0.000      0.000
REMARK  6 active torsions:
REMARK  status: ('A' for Active; 'I' for Inactive)
REMARK       I    between atoms: C_2  and  N_1 
REMARK    1  A    between atoms: C_3  and  C_2 
REMARK    2  A    between atoms: C_12  and  C_4 
REMARK       I    between atoms: C_5  and  N_8 
REMARK    3  A    between atoms: C_6  and  C_5 
REMARK       I    between atoms: N_9  and  C_6 
REMARK    4  A    between atoms: N_8  and  C_12 
REMARK    5  A    between atoms: C_19  and  N_9 
REMARK    6  A    between atoms: C_20  and  C_19 
ROOT
ATOM      1  C   UNL d   1      45.158 -15.868  44.569  0.00  0.00     0.337 C 
ATOM      2  N   UNL d   1      45.228 -15.061  44.692  0.00  0.00    -0.199 NA
ATOM      3  O   UNL d   1      44.412 -16.207  44.497  0.00  0.00    -0.260 OA
ENDROOT
BRANCH   2   4
ATOM      4  C   UNL d   1      45.975 -14.721  44.764  0.00  0.00     0.146 C 
BRANCH   4   5
ATOM      5  C   UNL d   1      46.070 -13.906  44.629  0.00  0.00     0.190 A 
ATOM      6  N   UNL d   1      45.591 -13.451  44.140  0.00  0.00    -0.250 N 
ATOM      7  C   UNL d   1      44.930 -13.640  43.675  0.00  0.00     0.272 C 
ATOM      8  C   UNL d   1      45.883 -12.678  44.169  0.00  0.00     0.112 A 
ATOM      9  O   UNL d   1      44.650 -14.419  43.656  0.00  0.00    -0.266 OA
ATOM     10  C   UNL d   1      46.533 -12.665  44.671  0.00  0.00     0.144 A 
ATOM     11  O   UNL d   1      46.643 -13.436  44.954  0.00  0.00    -0.285 OA
BRANCH   7  12
ATOM     12  C   UNL d   1      44.553 -13.059  43.232  0.00  0.00     0.086 A 
ATOM     13  S   UNL d   1      43.803 -12.713  43.309  0.00  0.00    -0.082 SA
ATOM     14  C   UNL d   1      43.723 -12.149  42.696  0.00  0.00     0.036 A 
ATOM     15  C   UNL d   1      44.421 -12.160  42.255  0.00  0.00     0.008 A 
ATOM     16  C   UNL d   1      44.933 -12.715  42.580  0.00  0.00     0.012 A 
ENDBRANCH   7  12
ENDBRANCH   4   5
ENDBRANCH   2   4
BRANCH   1  17
ATOM     17  C   UNL d   1      45.832 -16.350  44.517  0.00  0.00     0.337 C 
ATOM     18  N   UNL d   1      45.835 -17.015  44.038  0.00  0.00    -0.202 NA
ATOM     19  O   UNL d   1      46.503 -16.155  44.952  0.00  0.00    -0.260 OA
BRANCH  18  20
ATOM     20  C   UNL d   1      46.487 -17.500  43.974  0.00  0.00     0.102 C 
BRANCH  20  21
ATOM     21  C   UNL d   1      46.460 -18.207  43.541  0.00  0.00     0.019 A 
ATOM     22  C   UNL d   1      46.548 -18.195  42.736  0.00  0.00     0.002 A 
ATOM     23  C   UNL d   1      46.524 -18.889  42.300  0.00  0.00     0.000 A 
ATOM     24  C   UNL d   1      46.407 -19.621  42.685  0.00  0.00     0.000 A 
ATOM     25  C   UNL d   1      46.319 -19.629  43.500  0.00  0.00     0.000 A 
ATOM     26  C   UNL d   1      46.383 -20.328  42.232  0.00  0.00     0.000 C 
ATOM     27  C   UNL d   1      46.347 -18.918  43.919  0.00  0.00     0.002 A 
ENDBRANCH  20  21
ENDBRANCH  18  20
ENDBRANCH   1  17
TORSDOF 6
ENDMDL
