MODEL 1
REMARK VINA RESULT:      70.7      0.000      0.000
REMARK  7 active torsions:
REMARK  status: ('A' for Active; 'I' for Inactive)
REMARK    1  A    between atoms: C_8  and  N_1 
REMARK    2  A    between atoms: C_7  and  C_3 
REMARK    3  A    between atoms: C_10  and  C_6 
REMARK    4  A    between atoms: C_11  and  C_7 
REMARK    5  A    between atoms: C_14  and  C_8 
REMARK    6  A    between atoms: C_12  and  C_14 
REMARK       I    between atoms: N_17  and  C_12 
REMARK    7  A    between atoms: C_20  and  N_17 
ROOT
ATOM      1  C   UNL d   1      60.906  49.494  50.544  0.00  0.00     0.089 C 
ENDROOT
BRANCH   1   2
ATOM      2  N   UNL d   1      60.104  49.569  50.719  0.00  0.00    -0.259 N 
ATOM      3  C   UNL d   1      59.745  49.649  51.471  0.00  0.00     0.153 A 
ATOM      4  S   UNL d   1      58.919  49.708  51.372  0.00  0.00    -0.053 SA
ATOM      5  S   UNL d   1      60.157  49.667  52.201  0.00  0.00    -0.052 SA
ATOM      6  C   UNL d   1      58.756  49.665  50.552  0.00  0.00     0.090 A 
ATOM      7  C   UNL d   1      59.474  49.581  50.159  0.00  0.00     0.272 A 
ATOM      8  O   UNL d   1      59.556  49.517  49.313  0.00  0.00    -0.266 OA
BRANCH   6   9
ATOM      9  C   UNL d   1      58.002  49.702  50.220  0.00  0.00     0.036 C 
BRANCH   9  10
ATOM     10  C   UNL d   1      57.471  49.073  50.363  0.00  0.00     0.101 A 
ATOM     11  O   UNL d   1      57.451  48.494  50.957  0.00  0.00    -0.305 OA
ATOM     12  C   UNL d   1      56.771  48.017  50.793  0.00  0.00     0.123 A 
ATOM     13  C   UNL d   1      56.418  48.297  50.148  0.00  0.00     0.029 A 
ATOM     14  C   UNL d   1      56.827  48.950  49.860  0.00  0.00     0.027 A 
ENDBRANCH   9  10
ENDBRANCH   6   9
ENDBRANCH   1   2
BRANCH   1  15
ATOM     15  C   UNL d   1      61.372  48.865  50.881  0.00  0.00     0.082 C 
BRANCH  15  16
ATOM     16  C   UNL d   1      61.370  48.123  50.531  0.00  0.00     0.281 C 
ATOM     17  N   UNL d   1      61.268  47.450  51.001  0.00  0.00    -0.208 NA
ATOM     18  O   UNL d   1      61.469  48.058  49.713  0.00  0.00    -0.265 OA
BRANCH  17  19
ATOM     19  C   UNL d   1      61.266  46.705  50.649  0.00  0.00     0.088 A 
ATOM     20  C   UNL d   1      61.779  46.550  50.039  0.00  0.00     0.061 A 
ATOM     21  C   UNL d   1      61.795  45.823  49.677  0.00  0.00     0.203 A 
ATOM     22  O   UNL d   1      62.334  45.679  49.043  0.00  0.00    -0.286 OA
ATOM     23  C   UNL d   1      61.244  45.226  49.970  0.00  0.00     0.103 A 
ATOM     24  C   UNL d   1      60.732  45.378  50.578  0.00  0.00     0.011 A 
ATOM     25  C   UNL d   1      60.752  46.146  50.922  0.00  0.00     0.020 A 
BRANCH  23  26
ATOM     26  C   UNL d   1      61.223  44.466  49.630  0.00  0.00     0.214 C 
ATOM     27  O   UNL d   1      61.406  43.785  50.099  0.00  0.00    -0.644 OA
ATOM     28  O   UNL d   1      61.028  44.349  48.841  0.00  0.00    -0.644 OA
ENDBRANCH  23  26
ENDBRANCH  17  19
ENDBRANCH  15  16
ENDBRANCH   1  15
TORSDOF 7
ENDMDL
