MODEL 1
REMARK VINA RESULT:      -6.3      0.000      0.000
REMARK  1 active torsions:
REMARK  status: ('A' for Active; 'I' for Inactive)
REMARK       I    between atoms: C_4  and  N_1 
REMARK    1  A    between atoms: C_7  and  C_4 
ROOT
ATOM      1  N   UNL d   1     -41.497-122.526 -52.525  0.00  0.00    -0.175 N 
ATOM      2  N   UNL d   1     -41.437-121.698 -52.523  0.00  0.00    -0.057 NA
ATOM      3  N   UNL d   1     -41.290-121.456 -51.758  0.00  0.00    -0.129 NA
ATOM      4  C   UNL d   1     -41.645-123.003 -53.190  0.00  0.00     0.282 C 
ATOM      5  C   UNL d   1     -41.385-122.794 -51.754  0.00  0.00     0.107 A 
ATOM      6  C   UNL d   1     -41.257-122.133 -51.276  0.00  0.00     0.122 A 
ATOM      7  O   UNL d   1     -41.689-123.817 -53.103  0.00  0.00    -0.265 OA
ATOM      8  C   UNL d   1     -41.383-123.546 -51.421  0.00  0.00     0.021 A 
ATOM      9  C   UNL d   1     -41.124-122.228 -50.457  0.00  0.00     0.022 A 
ATOM     10  C   UNL d   1     -41.252-123.640 -50.612  0.00  0.00     0.002 A 
ATOM     11  C   UNL d   1     -41.123-122.984 -50.127  0.00  0.00     0.002 A 
ENDROOT
BRANCH   4  12
ATOM     12  C   UNL d   1     -41.745-122.652 -53.929  0.00  0.00     0.058 A 
ATOM     13  C   UNL d   1     -41.145-122.696 -54.493  0.00  0.00     0.005 A 
ATOM     14  C   UNL d   1     -41.245-122.345 -55.231  0.00  0.00     0.000 A 
ATOM     15  C   UNL d   1     -41.942-121.948 -55.414  0.00  0.00     0.000 A 
ATOM     16  C   UNL d   1     -42.543-121.902 -54.852  0.00  0.00     0.000 A 
ATOM     17  C   UNL d   1     -42.035-121.594 -56.166  0.00  0.00     0.000 C 
ATOM     18  C   UNL d   1     -42.446-122.252 -54.112  0.00  0.00     0.005 A 
ENDBRANCH   4  12
TORSDOF 1
ENDMDL
MODEL 2
REMARK VINA RESULT:      -5.5      0.937      1.435
REMARK  1 active torsions:
REMARK  status: ('A' for Active; 'I' for Inactive)
REMARK       I    between atoms: C_4  and  N_1 
REMARK    1  A    between atoms: C_7  and  C_4 
ROOT
ATOM      1  N   UNL d   1     -41.599-122.585 -52.182  0.00  0.00    -0.175 N 
ATOM      2  N   UNL d   1     -41.875-123.328 -52.429  0.00  0.00    -0.057 NA
ATOM      3  N   UNL d   1     -41.913-123.816 -51.776  0.00  0.00    -0.129 NA
ATOM      4  C   UNL d   1     -41.478-121.923 -52.669  0.00  0.00     0.282 C 
ATOM      5  C   UNL d   1     -41.468-122.618 -51.369  0.00  0.00     0.107 A 
ATOM      6  C   UNL d   1     -41.661-123.380 -51.115  0.00  0.00     0.122 A 
ATOM      7  O   UNL d   1     -41.202-121.223 -52.341  0.00  0.00    -0.265 OA
ATOM      8  C   UNL d   1     -41.199-122.062 -50.826  0.00  0.00     0.021 A 
ATOM      9  C   UNL d   1     -41.583-123.583 -50.309  0.00  0.00     0.022 A 
ATOM     10  C   UNL d   1     -41.123-122.263 -50.030  0.00  0.00     0.002 A 
ATOM     11  C   UNL d   1     -41.314-123.023 -49.767  0.00  0.00     0.002 A 
ENDROOT
BRANCH   4  12
ATOM     12  C   UNL d   1     -41.636-121.976 -53.476  0.00  0.00     0.058 A 
ATOM     13  C   UNL d   1     -42.274-121.568 -53.801  0.00  0.00     0.005 A 
ATOM     14  C   UNL d   1     -42.432-121.622 -54.607  0.00  0.00     0.000 A 
ATOM     15  C   UNL d   1     -41.957-122.081 -55.097  0.00  0.00     0.000 A 
ATOM     16  C   UNL d   1     -41.318-122.491 -54.774  0.00  0.00     0.000 A 
ATOM     17  C   UNL d   1     -42.125-122.130 -55.914  0.00  0.00     0.000 C 
ATOM     18  C   UNL d   1     -41.157-122.439 -53.967  0.00  0.00     0.005 A 
ENDBRANCH   4  12
TORSDOF 1
ENDMDL
MODEL 3
REMARK VINA RESULT:      -5.2      1.250      4.125
REMARK  1 active torsions:
REMARK  status: ('A' for Active; 'I' for Inactive)
REMARK       I    between atoms: C_4  and  N_1 
REMARK    1  A    between atoms: C_7  and  C_4 
ROOT
ATOM      1  N   UNL d   1     -41.586-122.692 -51.993  0.00  0.00    -0.175 N 
ATOM      2  N   UNL d   1     -41.652-123.519 -51.953  0.00  0.00    -0.057 NA
ATOM      3  N   UNL d   1     -41.574-123.817 -52.708  0.00  0.00    -0.129 NA
ATOM      4  C   UNL d   1     -41.632-122.167 -51.350  0.00  0.00     0.282 C 
ATOM      5  C   UNL d   1     -41.466-122.482 -52.781  0.00  0.00     0.107 A 
ATOM      6  C   UNL d   1     -41.459-123.178 -53.226  0.00  0.00     0.122 A 
ATOM      7  O   UNL d   1     -41.555-121.361 -51.479  0.00  0.00    -0.265 OA
ATOM      8  C   UNL d   1     -41.363-121.757 -53.154  0.00  0.00     0.021 A 
ATOM      9  C   UNL d   1     -41.347-123.143 -54.053  0.00  0.00     0.022 A 
ATOM     10  C   UNL d   1     -41.253-121.722 -53.971  0.00  0.00     0.002 A 
ATOM     11  C   UNL d   1     -41.244-122.413 -54.424  0.00  0.00     0.002 A 
ENDROOT
BRANCH   4  12
ATOM     12  C   UNL d   1     -41.754-122.462 -50.591  0.00  0.00     0.058 A 
ATOM     13  C   UNL d   1     -42.509-122.452 -50.259  0.00  0.00     0.005 A 
ATOM     14  C   UNL d   1     -42.631-122.747 -49.500  0.00  0.00     0.000 A 
ATOM     15  C   UNL d   1     -42.004-123.056 -49.066  0.00  0.00     0.000 A 
ATOM     16  C   UNL d   1     -41.248-123.067 -49.395  0.00  0.00     0.000 A 
ATOM     17  C   UNL d   1     -42.137-123.353 -48.296  0.00  0.00     0.000 C 
ATOM     18  C   UNL d   1     -41.122-122.772 -50.155  0.00  0.00     0.005 A 
ENDBRANCH   4  12
TORSDOF 1
ENDMDL
MODEL 4
REMARK VINA RESULT:      -5.1      0.648      3.736
REMARK  1 active torsions:
REMARK  status: ('A' for Active; 'I' for Inactive)
REMARK       I    between atoms: C_4  and  N_1 
REMARK    1  A    between atoms: C_7  and  C_4 
ROOT
ATOM      1  N   UNL d   1     -41.801-122.561 -53.219  0.00  0.00    -0.175 N 
ATOM      2  N   UNL d   1     -42.171-121.879 -52.923  0.00  0.00    -0.057 NA
ATOM      3  N   UNL d   1     -42.414-121.426 -53.557  0.00  0.00    -0.129 NA
ATOM      4  C   UNL d   1     -41.471-123.174 -52.763  0.00  0.00     0.282 C 
ATOM      5  C   UNL d   1     -41.817-122.525 -54.042  0.00  0.00     0.107 A 
ATOM      6  C   UNL d   1     -42.196-121.823 -54.254  0.00  0.00     0.122 A 
ATOM      7  O   UNL d   1     -41.123-123.815 -53.139  0.00  0.00    -0.265 OA
ATOM      8  C   UNL d   1     -41.540-123.034 -54.626  0.00  0.00     0.021 A 
ATOM      9  C   UNL d   1     -42.298-121.631 -55.060  0.00  0.00     0.022 A 
ATOM     10  C   UNL d   1     -41.640-122.843 -55.423  0.00  0.00     0.002 A 
ATOM     11  C   UNL d   1     -42.019-122.143 -55.644  0.00  0.00     0.002 A 
ENDROOT
BRANCH   4  12
ATOM     12  C   UNL d   1     -41.497-123.130 -51.942  0.00  0.00     0.058 A 
ATOM     13  C   UNL d   1     -41.899-123.705 -51.509  0.00  0.00     0.005 A 
ATOM     14  C   UNL d   1     -41.926-123.661 -50.687  0.00  0.00     0.000 A 
ATOM     15  C   UNL d   1     -41.554-123.045 -50.289  0.00  0.00     0.000 A 
ATOM     16  C   UNL d   1     -41.151-122.468 -50.719  0.00  0.00     0.000 A 
ATOM     17  C   UNL d   1     -41.586-123.008 -49.454  0.00  0.00     0.000 C 
ATOM     18  C   UNL d   1     -41.123-122.509 -51.542  0.00  0.00     0.005 A 
ENDBRANCH   4  12
TORSDOF 1
ENDMDL
MODEL 5
REMARK VINA RESULT:      -4.8      2.079      3.018
REMARK  1 active torsions:
REMARK  status: ('A' for Active; 'I' for Inactive)
REMARK       I    between atoms: C_4  and  N_1 
REMARK    1  A    between atoms: C_7  and  C_4 
ROOT
ATOM      1  N   UNL d   1     -42.269-123.044 -50.074  0.00  0.00    -0.175 N 
ATOM      2  N   UNL d   1     -42.838-123.483 -50.489  0.00  0.00    -0.057 NA
ATOM      3  N   UNL d   1     -43.348-123.817 -49.946  0.00  0.00    -0.129 NA
ATOM      4  C   UNL d   1     -41.643-122.613 -50.411  0.00  0.00     0.282 C 
ATOM      5  C   UNL d   1     -42.431-123.111 -49.268  0.00  0.00     0.107 A 
ATOM      6  C   UNL d   1     -43.099-123.589 -49.186  0.00  0.00     0.122 A 
ATOM      7  O   UNL d   1     -41.123-122.206 -49.925  0.00  0.00    -0.265 OA
ATOM      8  C   UNL d   1     -42.063-122.804 -48.600  0.00  0.00     0.021 A 
ATOM      9  C   UNL d   1     -43.400-123.760 -48.427  0.00  0.00     0.022 A 
ATOM     10  C   UNL d   1     -42.361-122.972 -47.849  0.00  0.00     0.002 A 
ATOM     11  C   UNL d   1     -43.029-123.450 -47.758  0.00  0.00     0.002 A 
ENDROOT
BRANCH   4  12
ATOM     12  C   UNL d   1     -41.553-122.599 -51.230  0.00  0.00     0.058 A 
ATOM     13  C   UNL d   1     -41.804-121.943 -51.663  0.00  0.00     0.005 A 
ATOM     14  C   UNL d   1     -41.714-121.930 -52.481  0.00  0.00     0.000 A 
ATOM     15  C   UNL d   1     -41.375-122.567 -52.875  0.00  0.00     0.000 A 
ATOM     16  C   UNL d   1     -41.124-123.224 -52.445  0.00  0.00     0.000 A 
ATOM     17  C   UNL d   1     -41.288-122.544 -53.707  0.00  0.00     0.000 C 
ATOM     18  C   UNL d   1     -41.212-123.241 -51.625  0.00  0.00     0.005 A 
ENDBRANCH   4  12
TORSDOF 1
ENDMDL
MODEL 6
REMARK VINA RESULT:      -3.7      2.000      4.744
REMARK  1 active torsions:
REMARK  status: ('A' for Active; 'I' for Inactive)
REMARK       I    between atoms: C_4  and  N_1 
REMARK    1  A    between atoms: C_7  and  C_4 
ROOT
ATOM      1  N   UNL d   1     -42.014-122.702 -50.418  0.00  0.00    -0.175 N 
ATOM      2  N   UNL d   1     -42.604-122.156 -50.214  0.00  0.00    -0.057 NA
ATOM      3  N   UNL d   1     -42.738-121.673 -50.858  0.00  0.00    -0.129 NA
ATOM      4  C   UNL d   1     -41.708-123.298 -49.925  0.00  0.00     0.282 C 
ATOM      5  C   UNL d   1     -41.784-122.553 -51.196  0.00  0.00     0.107 A 
ATOM      6  C   UNL d   1     -42.231-121.915 -51.470  0.00  0.00     0.122 A 
ATOM      7  O   UNL d   1     -41.123-123.798 -50.209  0.00  0.00    -0.265 OA
ATOM      8  C   UNL d   1     -41.231-122.908 -51.690  0.00  0.00     0.021 A 
ATOM      9  C   UNL d   1     -42.121-121.632 -52.248  0.00  0.00     0.022 A 
ATOM     10  C   UNL d   1     -41.123-122.628 -52.458  0.00  0.00     0.002 A 
ATOM     11  C   UNL d   1     -41.566-121.991 -52.741  0.00  0.00     0.002 A 
ENDROOT
BRANCH   4  12
ATOM     12  C   UNL d   1     -41.996-123.378 -49.158  0.00  0.00     0.058 A 
ATOM     13  C   UNL d   1     -42.739-123.711 -49.027  0.00  0.00     0.005 A 
ATOM     14  C   UNL d   1     -43.027-123.791 -48.260  0.00  0.00     0.000 A 
ATOM     15  C   UNL d   1     -42.579-123.542 -47.617  0.00  0.00     0.000 A 
ATOM     16  C   UNL d   1     -41.835-123.209 -47.744  0.00  0.00     0.000 A 
ATOM     17  C   UNL d   1     -42.879-123.628 -46.841  0.00  0.00     0.000 C 
ATOM     18  C   UNL d   1     -41.544-123.127 -48.511  0.00  0.00     0.005 A 
ENDBRANCH   4  12
TORSDOF 1
ENDMDL
