MODEL 1
REMARK VINA RESULT:     104.3      0.000      0.000
REMARK  5 active torsions:
REMARK  status: ('A' for Active; 'I' for Inactive)
REMARK    1  A    between atoms: N_4  and  S_1 
REMARK    2  A    between atoms: C_5  and  S_1 
REMARK       I    between atoms: N_2  and  C_3 
REMARK    3  A    between atoms: C_3  and  C_11 
REMARK    4  A    between atoms: C_21  and  N_4 
REMARK    5  A    between atoms: C_12  and  C_13 
ROOT
ATOM      1  C   UNL d   1      57.909  49.650  51.969  0.00  0.00     0.057 A 
ATOM      2  C   UNL d   1      59.252  49.638  51.015  0.00  0.00     0.094 A 
ATOM      3  C   UNL d   1      58.652  49.591  52.312  0.00  0.00     0.006 A 
ATOM      4  C   UNL d   1      57.833  49.704  51.145  0.00  0.00     0.006 A 
ATOM      5  C   UNL d   1      59.328  49.584  51.839  0.00  0.00     0.020 A 
ATOM      6  C   UNL d   1      58.509  49.698  50.672  0.00  0.00     0.020 A 
ENDROOT
BRANCH   2   7
ATOM      7  N   UNL d   1      59.928  49.631  50.542  0.00  0.00    -0.158 NA
BRANCH   7   8
ATOM      8  S   UNL d   1      60.354  48.929  50.432  0.00  0.00     0.285 S 
ATOM      9  O   UNL d   1      59.647  48.511  50.348  0.00  0.00    -0.198 OA
ATOM     10  O   UNL d   1      61.065  49.351  50.517  0.00  0.00    -0.198 OA
BRANCH   8  11
ATOM     11  C   UNL d   1      60.786  48.222  50.321  0.00  0.00     0.105 A 
ATOM     12  C   UNL d   1      60.830  47.673  50.932  0.00  0.00     0.013 A 
ATOM     13  C   UNL d   1      61.253  46.978  50.826  0.00  0.00    -0.004 A 
ATOM     14  C   UNL d   1      61.634  46.828  50.110  0.00  0.00    -0.023 A 
ATOM     15  C   UNL d   1      61.583  47.385  49.505  0.00  0.00    -0.004 A 
ATOM     16  C   UNL d   1      61.163  48.080  49.603  0.00  0.00     0.013 A 
BRANCH  14  17
ATOM     17  C   UNL d   1      62.067  46.126  49.990  0.00  0.00     0.019 C 
ATOM     18  C   UNL d   1      62.494  45.426  49.872  0.00  0.00     0.004 C 
ATOM     19  C   UNL d   1      61.468  45.692  50.366  0.00  0.00     0.004 C 
ATOM     20  C   UNL d   1      62.660  46.564  49.615  0.00  0.00     0.004 C 
ENDBRANCH  14  17
ENDBRANCH   8  11
ENDBRANCH   7   8
ENDBRANCH   2   7
BRANCH   1  21
ATOM     21  C   UNL d   1      57.233  49.657  52.442  0.00  0.00     0.265 C 
ATOM     22  N   UNL d   1      57.317  49.671  53.273  0.00  0.00    -0.268 N 
ATOM     23  C   UNL d   1      58.067  49.678  53.617  0.00  0.00     0.108 A 
ATOM     24  C   UNL d   1      56.641  49.678  53.746  0.00  0.00     0.108 A 
ATOM     25  C   UNL d   1      58.142  49.692  54.446  0.00  0.00     0.118 A 
ATOM     26  C   UNL d   1      58.896  49.699  54.792  0.00  0.00     0.028 C 
ATOM     27  O   UNL d   1      57.466  49.699  54.919  0.00  0.00    -0.304 OA
ATOM     28  C   UNL d   1      56.713  49.691  54.577  0.00  0.00     0.118 A 
ATOM     29  C   UNL d   1      56.037  49.698  55.056  0.00  0.00     0.028 C 
ATOM     30  O   UNL d   1      56.488  49.650  52.098  0.00  0.00    -0.267 OA
ENDBRANCH   1  21
TORSDOF 5
ENDMDL
MODEL 2
REMARK VINA RESULT:     104.6      1.799      2.733
REMARK  5 active torsions:
REMARK  status: ('A' for Active; 'I' for Inactive)
REMARK    1  A    between atoms: N_4  and  S_1 
REMARK    2  A    between atoms: C_5  and  S_1 
REMARK       I    between atoms: N_2  and  C_3 
REMARK    3  A    between atoms: C_3  and  C_11 
REMARK    4  A    between atoms: C_21  and  N_4 
REMARK    5  A    between atoms: C_12  and  C_13 
ROOT
ATOM      1  C   UNL d   1      59.575  49.113  51.149  0.00  0.00     0.057 A 
ATOM      2  C   UNL d   1      60.953  48.666  50.365  0.00  0.00     0.094 A 
ATOM      3  C   UNL d   1      59.990  48.451  51.399  0.00  0.00     0.006 A 
ATOM      4  C   UNL d   1      59.847  49.557  50.504  0.00  0.00     0.006 A 
ATOM      5  C   UNL d   1      60.680  48.222  51.010  0.00  0.00     0.020 A 
ATOM      6  C   UNL d   1      60.538  49.329  50.115  0.00  0.00     0.020 A 
ENDROOT
BRANCH   2   7
ATOM      7  N   UNL d   1      61.643  48.438  49.975  0.00  0.00    -0.158 NA
BRANCH   7   8
ATOM      8  S   UNL d   1      61.808  47.634  49.852  0.00  0.00     0.285 S 
ATOM      9  O   UNL d   1      61.308  47.632  49.195  0.00  0.00    -0.198 OA
ATOM     10  O   UNL d   1      62.311  47.640  50.513  0.00  0.00    -0.198 OA
BRANCH   8  11
ATOM     11  C   UNL d   1      61.975  46.825  49.729  0.00  0.00     0.105 A 
ATOM     12  C   UNL d   1      61.591  46.419  49.126  0.00  0.00     0.013 A 
ATOM     13  C   UNL d   1      61.753  45.624  49.002  0.00  0.00    -0.004 A 
ATOM     14  C   UNL d   1      62.299  45.231  49.481  0.00  0.00    -0.023 A 
ATOM     15  C   UNL d   1      62.677  45.648  50.082  0.00  0.00    -0.004 A 
ATOM     16  C   UNL d   1      62.521  46.441  50.211  0.00  0.00     0.013 A 
BRANCH  14  17
ATOM     17  C   UNL d   1      62.472  44.424  49.366  0.00  0.00     0.019 C 
ATOM     18  C   UNL d   1      62.647  43.623  49.250  0.00  0.00     0.004 C 
ATOM     19  C   UNL d   1      63.148  44.630  48.933  0.00  0.00     0.004 C 
ATOM     20  C   UNL d   1      61.796  44.224  49.799  0.00  0.00     0.004 C 
ENDBRANCH  14  17
ENDBRANCH   8  11
ENDBRANCH   7   8
ENDBRANCH   2   7
BRANCH   1  21
ATOM     21  C   UNL d   1      58.884  49.342  51.538  0.00  0.00     0.265 C 
ATOM     22  N   UNL d   1      58.154  49.294  51.135  0.00  0.00    -0.268 N 
ATOM     23  C   UNL d   1      58.124  49.022  50.356  0.00  0.00     0.108 A 
ATOM     24  C   UNL d   1      57.464  49.523  51.525  0.00  0.00     0.108 A 
ATOM     25  C   UNL d   1      57.393  48.978  49.962  0.00  0.00     0.118 A 
ATOM     26  C   UNL d   1      57.361  48.705  49.179  0.00  0.00     0.028 C 
ATOM     27  O   UNL d   1      56.702  49.206  50.351  0.00  0.00    -0.304 OA
ATOM     28  C   UNL d   1      56.729  49.479  51.131  0.00  0.00     0.118 A 
ATOM     29  C   UNL d   1      56.033  49.707  51.518  0.00  0.00     0.028 C 
ATOM     30  O   UNL d   1      58.917  49.612  52.313  0.00  0.00    -0.267 OA
ENDBRANCH   1  21
TORSDOF 5
ENDMDL
