MODEL 1
REMARK VINA RESULT:      46.8      0.000      0.000
REMARK  6 active torsions:
REMARK  status: ('A' for Active; 'I' for Inactive)
REMARK    1  A    between atoms: N_8  and  C_1 
REMARK    2  A    between atoms: C_6  and  N_2 
REMARK       I    between atoms: C_12  and  N_8 
REMARK    3  A    between atoms: C_20  and  C_12 
REMARK    4  A    between atoms: O_24  and  C_13 
REMARK    5  A    between atoms: O_25  and  C_15 
REMARK    6  A    between atoms: C_19  and  C_20 
ROOT
ATOM      1  C   UNL d   1      44.851 -14.766  44.609  0.00  0.00     0.169 A 
ATOM      2  N   UNL d   1      44.780 -13.953  44.471  0.00  0.00    -0.212 N 
ATOM      3  C   UNL d   1      44.087 -15.086  44.696  0.00  0.00     0.065 A 
ATOM      4  N   UNL d   1      43.972 -13.769  44.472  0.00  0.00    -0.163 NA
ATOM      5  C   UNL d   1      43.547 -14.467  44.611  0.00  0.00     0.114 A 
ATOM      6  S   UNL d   1      42.853 -15.588  44.834  0.00  0.00     0.091 S 
ATOM      7  C   UNL d   1      42.782 -14.774  44.695  0.00  0.00     0.090 A 
ATOM      8  C   UNL d   1      43.662 -15.777  44.833  0.00  0.00     0.073 A 
ATOM      9  O   UNL d   1      42.229 -16.120  44.952  0.00  0.00    -0.247 OA
ENDROOT
BRANCH   1  10
ATOM     10  N   UNL d   1      45.559 -15.194  44.654  0.00  0.00    -0.189 NA
ATOM     11  C   UNL d   1      45.599 -15.963  44.376  0.00  0.00     0.281 C 
ATOM     12  O   UNL d   1      44.923 -16.324  44.041  0.00  0.00    -0.265 OA
BRANCH  11  13
ATOM     13  C   UNL d   1      46.303 -16.391  44.420  0.00  0.00     0.063 C 
BRANCH  13  14
ATOM     14  C   UNL d   1      46.284 -17.190  44.290  0.00  0.00     0.007 A 
ATOM     15  C   UNL d   1      46.336 -17.498  43.519  0.00  0.00     0.026 A 
ATOM     16  C   UNL d   1      46.316 -18.313  43.394  0.00  0.00     0.116 A 
ATOM     17  C   UNL d   1      46.244 -18.821  44.041  0.00  0.00     0.116 A 
ATOM     18  C   UNL d   1      46.193 -18.528  44.804  0.00  0.00     0.026 A 
ATOM     19  C   UNL d   1      46.213 -17.709  44.927  0.00  0.00     0.002 A 
BRANCH  16  20
ATOM     20  O   UNL d   1      46.367 -18.614  42.633  0.00  0.00    -0.326 OA
ATOM     21  C   UNL d   1      46.641 -18.138  42.018  0.00  0.00     0.181 C 
ENDBRANCH  16  20
BRANCH  17  22
ATOM     22  O   UNL d   1      46.224 -19.636  43.916  0.00  0.00    -0.326 OA
ATOM     23  C   UNL d   1      45.734 -20.117  44.372  0.00  0.00     0.181 C 
ENDBRANCH  17  22
ENDBRANCH  13  14
ENDBRANCH  11  13
ENDBRANCH   1  10
BRANCH   2  24
ATOM     24  C   UNL d   1      45.399 -13.421  44.353  0.00  0.00     0.085 A 
ATOM     25  C   UNL d   1      45.457 -13.017  43.641  0.00  0.00     0.018 A 
ATOM     26  C   UNL d   1      46.077 -12.484  43.523  0.00  0.00     0.002 A 
ATOM     27  C   UNL d   1      44.903 -13.142  43.050  0.00  0.00     0.002 C 
ATOM     28  C   UNL d   1      46.138 -12.081  42.816  0.00  0.00     0.000 C 
ATOM     29  C   UNL d   1      46.629 -12.366  44.125  0.00  0.00     0.000 A 
ATOM     30  C   UNL d   1      46.558 -12.777  44.830  0.00  0.00     0.002 A 
ATOM     31  C   UNL d   1      45.952 -13.302  44.955  0.00  0.00     0.019 A 
ENDBRANCH   2  24
TORSDOF 6
ENDMDL
