MODEL 1
REMARK VINA RESULT:      61.5      0.000      0.000
REMARK  4 active torsions:
REMARK  status: ('A' for Active; 'I' for Inactive)
REMARK    1  A    between atoms: C_8  and  N_1 
REMARK    2  A    between atoms: N_7  and  C_4 
REMARK    3  A    between atoms: N_6  and  C_10 
REMARK    4  A    between atoms: C_15  and  N_7 
ROOT
ATOM      1  N   UNL d   1      13.369  13.933  -4.582  0.00  0.00    -0.241 N 
ATOM      2  C   UNL d   1      13.240  14.642  -4.210  0.00  0.00     0.269 A 
ATOM      3  C   UNL d   1      13.584  14.088  -5.356  0.00  0.00     0.285 A 
ATOM      4  C   UNL d   1      13.580  14.912  -5.433  0.00  0.00     0.142 A 
ATOM      5  C   UNL d   1      13.375  15.234  -4.752  0.00  0.00     0.085 A 
ATOM      6  O   UNL d   1      13.008  14.774  -3.412  0.00  0.00    -0.267 OA
ATOM      7  O   UNL d   1      13.772  13.524  -5.949  0.00  0.00    -0.265 OA
ENDROOT
BRANCH   4   8
ATOM      8  N   UNL d   1      13.765  15.377  -6.135  0.00  0.00    -0.241 NA
BRANCH   8   9
ATOM      9  C   UNL d   1      13.825  16.205  -6.105  0.00  0.00     0.082 A 
ATOM     10  C   UNL d   1      13.157  16.665  -6.284  0.00  0.00     0.021 A 
ATOM     11  C   UNL d   1      13.228  17.496  -6.252  0.00  0.00     0.019 A 
ATOM     12  C   UNL d   1      13.930  17.849  -6.051  0.00  0.00     0.064 A 
ATOM     13  C   UNL d   1      14.582  17.407  -5.876  0.00  0.00     0.019 A 
ATOM     14  C   UNL d   1      14.533  16.577  -5.903  0.00  0.00     0.021 A 
BRANCH  12  15
ATOM     15  N   UNL d   1      13.975  18.678  -6.025  0.00  0.00    -0.300 N 
ATOM     16  C   UNL d   1      14.611  19.035  -5.637  0.00  0.00     0.107 A 
ATOM     17  C   UNL d   1      14.647  19.861  -5.617  0.00  0.00     0.142 A 
ATOM     18  O   UNL d   1      14.062  20.307  -5.976  0.00  0.00    -0.300 OA
ATOM     19  C   UNL d   1      13.445  19.934  -6.354  0.00  0.00     0.142 A 
ATOM     20  C   UNL d   1      13.385  19.107  -6.388  0.00  0.00     0.107 A 
ENDBRANCH  12  15
ENDBRANCH   8   9
ENDBRANCH   4   8
BRANCH   1  21
ATOM     21  C   UNL d   1      13.279  13.229  -4.187  0.00  0.00     0.070 A 
ATOM     22  C   UNL d   1      12.860  12.587  -4.535  0.00  0.00     0.018 A 
ATOM     23  C   UNL d   1      12.773  11.878  -4.131  0.00  0.00     0.002 A 
ATOM     24  C   UNL d   1      13.102  11.795  -3.374  0.00  0.00     0.000 A 
ATOM     25  C   UNL d   1      13.508  12.411  -3.033  0.00  0.00     0.002 A 
ATOM     26  C   UNL d   1      13.595  13.124  -3.440  0.00  0.00     0.018 A 
ENDBRANCH   1  21
TORSDOF 4
ENDMDL
