MODEL 1
REMARK VINA RESULT:      56.3      0.000      0.000
REMARK  3 active torsions:
REMARK  status: ('A' for Active; 'I' for Inactive)
REMARK    1  A    between atoms: C_8  and  C_1 
REMARK    2  A    between atoms: O_12  and  C_8 
REMARK    3  A    between atoms: C_21  and  O_12 
ROOT
ATOM      1  C   UNL d   1     -58.707 -98.803 -45.148  0.00  0.00     0.084 A 
ATOM      2  C   UNL d   1     -57.898 -98.804 -45.066  0.00  0.00     0.065 A 
ATOM      3  C   UNL d   1     -57.711 -98.806 -44.220  0.00  0.00     0.107 A 
ATOM      4  N   UNL d   1     -58.398 -98.806 -43.794  0.00  0.00    -0.302 N 
ATOM      5  C   UNL d   1     -59.015 -98.804 -44.372  0.00  0.00     0.070 A 
ATOM      6  C   UNL d   1     -57.305 -98.804 -45.635  0.00  0.00     0.197 A 
ATOM      7  C   UNL d   1     -56.932 -98.808 -43.948  0.00  0.00     0.212 A 
ATOM      8  C   UNL d   1     -56.537 -98.806 -45.366  0.00  0.00     0.042 A 
ATOM      9  C   UNL d   1     -56.350 -98.808 -44.520  0.00  0.00     0.043 A 
ATOM     10  C   UNL d   1     -58.548 -98.808 -42.950  0.00  0.00     0.080 A 
ATOM     11  C   UNL d   1     -59.781 -98.804 -44.100  0.00  0.00     0.018 A 
ATOM     12  O   UNL d   1     -57.488 -98.802 -46.467  0.00  0.00    -0.286 OA
ATOM     13  O   UNL d   1     -56.744 -98.810 -43.118  0.00  0.00    -0.285 OA
ATOM     14  C   UNL d   1     -59.310 -98.807 -42.684  0.00  0.00     0.019 A 
ATOM     15  C   UNL d   1     -59.933 -98.805 -43.266  0.00  0.00     0.003 A 
ATOM     16  C   UNL d   1     -55.944 -98.805 -45.940  0.00  0.00     0.003 A 
ATOM     17  C   UNL d   1     -55.573 -98.809 -44.258  0.00  0.00     0.003 A 
ATOM     18  C   UNL d   1     -55.170 -98.807 -45.668  0.00  0.00     0.000 A 
ATOM     19  C   UNL d   1     -54.986 -98.809 -44.831  0.00  0.00     0.000 A 
ENDROOT
BRANCH   1  20
ATOM     20  C   UNL d   1     -59.130 -98.801 -45.890  0.00  0.00     0.302 C 
ATOM     21  O   UNL d   1     -59.939 -98.831 -45.886  0.00  0.00    -0.259 OA
BRANCH  20  22
ATOM     22  O   UNL d   1     -58.742 -98.770 -46.624  0.00  0.00    -0.273 OA
BRANCH  22  23
ATOM     23  C   UNL d   1     -59.062 -99.148 -47.329  0.00  0.00     0.103 C 
ATOM     24  C   UNL d   1     -58.927 -98.794 -48.097  0.00  0.00     0.027 C 
ATOM     25  C   UNL d   1     -59.511 -99.869 -47.264  0.00  0.00     0.027 C 
ENDBRANCH  22  23
ENDBRANCH  20  22
ENDBRANCH   1  20
TORSDOF 3
ENDMDL
