MODEL 1
REMARK VINA RESULT:       8.9      0.000      0.000
REMARK  12 active torsions:
REMARK  status: ('A' for Active; 'I' for Inactive)
REMARK    1  A    between atoms: C_7  and  C_1 
REMARK    2  A    between atoms: C_8  and  N_2 
REMARK    3  A    between atoms: C_6  and  C_5 
REMARK    4  A    between atoms: C_9  and  C_7 
REMARK    5  A    between atoms: C_24  and  C_8 
REMARK    6  A    between atoms: C_12  and  C_9 
REMARK    7  A    between atoms: C_11  and  C_12 
REMARK    8  A    between atoms: O_27  and  C_13 
REMARK    9  A    between atoms: N_14  and  C_24 
REMARK   10  A    between atoms: O_28  and  C_18 
REMARK   11  A    between atoms: C_33  and  O_28 
REMARK   12  A    between atoms: C_35  and  C_33 
ROOT
ATOM      1  C   UNL d   1      57.375  -0.495  31.455  0.00  0.00     0.099 A 
ATOM      2  N   UNL d   1      57.472  -1.450  30.526  0.00  0.00    -0.269 N 
ATOM      3  C   UNL d   1      56.751  -1.026  31.558  0.00  0.00     0.256 A 
ATOM      4  C   UNL d   1      56.808  -1.615  30.987  0.00  0.00     0.304 A 
ATOM      5  C   UNL d   1      57.823  -0.758  30.814  0.00  0.00     0.073 A 
ATOM      6  O   UNL d   1      56.297  -2.254  30.892  0.00  0.00    -0.263 OA
ATOM      7  O   UNL d   1      56.169  -0.973  32.137  0.00  0.00    -0.281 OA
ENDROOT
BRANCH   5   8
ATOM      8  C   UNL d   1      58.499  -0.400  30.513  0.00  0.00     0.018 A 
ATOM      9  C   UNL d   1      59.195  -0.415  30.938  0.00  0.00     0.028 A 
ATOM     10  C   UNL d   1      59.870  -0.057  30.636  0.00  0.00     0.117 A 
ATOM     11  C   UNL d   1      59.842   0.321  29.894  0.00  0.00     0.122 A 
ATOM     12  C   UNL d   1      59.136   0.333  29.469  0.00  0.00     0.027 A 
ATOM     13  C   UNL d   1      58.458  -0.030  29.777  0.00  0.00     0.004 A 
BRANCH  10  14
ATOM     14  O   UNL d   1      60.571  -0.070  31.063  0.00  0.00    -0.326 OA
ATOM     15  C   UNL d   1      60.625   0.340  31.781  0.00  0.00     0.181 C 
ENDBRANCH  10  14
BRANCH  11  16
ATOM     16  O   UNL d   1      60.518   0.679  29.593  0.00  0.00    -0.303 OA
BRANCH  16  17
ATOM     17  C   UNL d   1      60.682   0.627  28.782  0.00  0.00     0.123 C 
BRANCH  17  18
ATOM     18  C   UNL d   1      61.122  -0.008  28.493  0.00  0.00     0.027 C 
ATOM     19  C   UNL d   1      60.782  -0.755  28.460  0.00  0.00     0.002 C 
ENDBRANCH  17  18
ENDBRANCH  16  17
ENDBRANCH  11  16
ENDBRANCH   5   8
BRANCH   2  20
ATOM     20  C   UNL d   1      57.742  -1.897  29.886  0.00  0.00     0.102 C 
BRANCH  20  21
ATOM     21  C   UNL d   1      57.801  -2.718  29.950  0.00  0.00     0.100 C 
BRANCH  21  22
ATOM     22  N   UNL d   1      58.411  -3.116  29.570  0.00  0.00    -0.298 N 
ATOM     23  C   UNL d   1      58.673  -2.850  28.844  0.00  0.00     0.107 A 
ATOM     24  C   UNL d   1      59.287  -3.249  28.459  0.00  0.00     0.142 A 
ATOM     25  O   UNL d   1      59.630  -3.913  28.809  0.00  0.00    -0.300 OA
ATOM     26  C   UNL d   1      59.361  -4.177  29.543  0.00  0.00     0.142 A 
ATOM     27  C   UNL d   1      58.754  -3.782  29.923  0.00  0.00     0.107 A 
ENDBRANCH  21  22
ENDBRANCH  20  21
ENDBRANCH   2  20
BRANCH   1  28
ATOM     28  C   UNL d   1      57.524   0.172  31.906  0.00  0.00     0.200 C 
ATOM     29  O   UNL d   1      58.169   0.658  31.729  0.00  0.00    -0.286 OA
BRANCH  28  30
ATOM     30  C   UNL d   1      57.029   0.360  32.543  0.00  0.00     0.044 C 
BRANCH  30  31
ATOM     31  C   UNL d   1      57.351   0.676  33.238  0.00  0.00     0.028 C 
BRANCH  31  32
ATOM     32  C   UNL d   1      56.945   0.605  33.943  0.00  0.00     0.100 A 
ATOM     33  O   UNL d   1      57.273   0.468  34.682  0.00  0.00    -0.305 OA
ATOM     34  C   UNL d   1      56.661   0.436  35.240  0.00  0.00     0.123 A 
ATOM     35  C   UNL d   1      55.952   0.554  34.844  0.00  0.00     0.029 A 
ATOM     36  C   UNL d   1      56.122   0.659  34.039  0.00  0.00     0.027 A 
ENDBRANCH  31  32
ENDBRANCH  30  31
ENDBRANCH  28  30
ENDBRANCH   1  28
TORSDOF 12
ENDMDL
MODEL 2
REMARK VINA RESULT:      10.2      1.604      4.662
REMARK  12 active torsions:
REMARK  status: ('A' for Active; 'I' for Inactive)
REMARK    1  A    between atoms: C_7  and  C_1 
REMARK    2  A    between atoms: C_8  and  N_2 
REMARK    3  A    between atoms: C_6  and  C_5 
REMARK    4  A    between atoms: C_9  and  C_7 
REMARK    5  A    between atoms: C_24  and  C_8 
REMARK    6  A    between atoms: C_12  and  C_9 
REMARK    7  A    between atoms: C_11  and  C_12 
REMARK    8  A    between atoms: O_27  and  C_13 
REMARK    9  A    between atoms: N_14  and  C_24 
REMARK   10  A    between atoms: O_28  and  C_18 
REMARK   11  A    between atoms: C_33  and  O_28 
REMARK   12  A    between atoms: C_35  and  C_33 
ROOT
ATOM      1  C   UNL d   1      58.992   0.192  32.276  0.00  0.00     0.099 A 
ATOM      2  N   UNL d   1      57.729   0.205  32.708  0.00  0.00    -0.269 N 
ATOM      3  C   UNL d   1      58.986   0.449  33.060  0.00  0.00     0.256 A 
ATOM      4  C   UNL d   1      58.209   0.459  33.329  0.00  0.00     0.304 A 
ATOM      5  C   UNL d   1      58.211   0.040  32.057  0.00  0.00     0.073 A 
ATOM      6  O   UNL d   1      57.956   0.680  34.081  0.00  0.00    -0.263 OA
ATOM      7  O   UNL d   1      59.649   0.662  33.499  0.00  0.00    -0.281 OA
ENDROOT
BRANCH   5   8
ATOM      8  C   UNL d   1      57.954  -0.227  31.324  0.00  0.00     0.018 A 
ATOM      9  C   UNL d   1      57.659   0.300  30.776  0.00  0.00     0.028 A 
ATOM     10  C   UNL d   1      57.401   0.032  30.043  0.00  0.00     0.117 A 
ATOM     11  C   UNL d   1      57.442  -0.780  29.861  0.00  0.00     0.122 A 
ATOM     12  C   UNL d   1      57.741  -1.308  30.418  0.00  0.00     0.027 A 
ATOM     13  C   UNL d   1      57.999  -1.034  31.156  0.00  0.00     0.004 A 
BRANCH  10  14
ATOM     14  O   UNL d   1      57.105   0.562  29.490  0.00  0.00    -0.326 OA
ATOM     15  C   UNL d   1      57.128   0.373  28.684  0.00  0.00     0.181 C 
ENDBRANCH  10  14
BRANCH  11  16
ATOM     16  O   UNL d   1      57.185  -1.047  29.127  0.00  0.00    -0.303 OA
BRANCH  16  17
ATOM     17  C   UNL d   1      57.498  -1.747  28.813  0.00  0.00     0.123 C 
BRANCH  17  18
ATOM     18  C   UNL d   1      58.243  -2.007  29.054  0.00  0.00     0.027 C 
ATOM     19  C   UNL d   1      58.433  -2.804  28.993  0.00  0.00     0.002 C 
ENDBRANCH  17  18
ENDBRANCH  16  17
ENDBRANCH  11  16
ENDBRANCH   5   8
BRANCH   2  20
ATOM     20  C   UNL d   1      56.906   0.129  32.732  0.00  0.00     0.102 C 
BRANCH  20  21
ATOM     21  C   UNL d   1      56.533  -0.118  33.426  0.00  0.00     0.100 C 
BRANCH  21  22
ATOM     22  N   UNL d   1      55.713  -0.146  33.463  0.00  0.00    -0.298 N 
ATOM     23  C   UNL d   1      55.327  -0.850  33.318  0.00  0.00     0.107 A 
ATOM     24  C   UNL d   1      54.502  -0.880  33.355  0.00  0.00     0.142 A 
ATOM     25  O   UNL d   1      54.072  -0.199  33.537  0.00  0.00    -0.300 OA
ATOM     26  C   UNL d   1      54.468   0.511  33.682  0.00  0.00     0.142 A 
ATOM     27  C   UNL d   1      55.285   0.539  33.645  0.00  0.00     0.107 A 
ENDBRANCH  21  22
ENDBRANCH  20  21
ENDBRANCH   2  20
BRANCH   1  28
ATOM     28  C   UNL d   1      59.652   0.103  31.799  0.00  0.00     0.200 C 
ATOM     29  O   UNL d   1      60.264  -0.405  32.027  0.00  0.00    -0.286 OA
BRANCH  28  30
ATOM     30  C   UNL d   1      59.707   0.521  31.086  0.00  0.00     0.044 C 
BRANCH  30  31
ATOM     31  C   UNL d   1      60.451   0.670  30.751  0.00  0.00     0.028 C 
BRANCH  31  32
ATOM     32  C   UNL d   1      60.627   0.378  30.008  0.00  0.00     0.100 A 
ATOM     33  O   UNL d   1      60.362   0.680  29.293  0.00  0.00    -0.305 OA
ATOM     34  C   UNL d   1      60.674   0.216  28.681  0.00  0.00     0.123 A 
ATOM     35  C   UNL d   1      61.132  -0.374  29.020  0.00  0.00     0.029 A 
ATOM     36  C   UNL d   1      61.107  -0.278  29.844  0.00  0.00     0.027 A 
ENDBRANCH  31  32
ENDBRANCH  30  31
ENDBRANCH  28  30
ENDBRANCH   1  28
TORSDOF 12
ENDMDL
