MODEL 1
REMARK VINA RESULT:      -1.7      0.000      0.000
REMARK  5 active torsions:
REMARK  status: ('A' for Active; 'I' for Inactive)
REMARK    1  A    between atoms: N_2  and  S_1 
REMARK    2  A    between atoms: C_6  and  S_1 
REMARK       I    between atoms: C_3  and  N_4 
REMARK    3  A    between atoms: C_5  and  C_3 
REMARK    4  A    between atoms: O_20  and  C_21 
REMARK    5  A    between atoms: C_24  and  O_20 
ROOT
ATOM      1  S   UNL d   1      32.500  16.524 -23.195  0.00  0.00     0.271 S 
ATOM      2  O   UNL d   1      33.241  16.482 -22.839  0.00  0.00    -0.200 OA
ATOM      3  O   UNL d   1      32.342  15.752 -22.959  0.00  0.00    -0.200 OA
ENDROOT
BRANCH   1   4
ATOM      4  N   UNL d   1      32.655  17.299 -23.433  0.00  0.00    -0.226 N 
ATOM      5  C   UNL d   1      32.691  17.905 -22.883  0.00  0.00     0.111 A 
ATOM      6  C   UNL d   1      32.846  18.676 -23.124  0.00  0.00     0.103 A 
ATOM      7  N   UNL d   1      32.965  18.833 -23.923  0.00  0.00    -0.267 N 
ATOM      8  C   UNL d   1      33.120  19.604 -24.164  0.00  0.00     0.288 C 
ATOM      9  C   UNL d   1      32.930  18.233 -24.478  0.00  0.00     0.103 A 
ATOM     10  O   UNL d   1      33.240  19.773 -24.962  0.00  0.00    -0.264 OA
ATOM     11  C   UNL d   1      32.775  17.458 -24.241  0.00  0.00     0.111 A 
BRANCH   8  12
ATOM     12  C   UNL d   1      33.156  20.216 -23.608  0.00  0.00     0.156 A 
ATOM     13  O   UNL d   1      33.210  20.136 -22.787  0.00  0.00    -0.300 OA
ATOM     14  C   UNL d   1      33.232  20.885 -22.454  0.00  0.00     0.123 A 
ATOM     15  C   UNL d   1      33.191  21.442 -23.064  0.00  0.00     0.029 A 
ATOM     16  C   UNL d   1      33.145  21.022 -23.779  0.00  0.00     0.032 A 
ENDBRANCH   8  12
ENDBRANCH   1   4
BRANCH   1  17
ATOM     17  C   UNL d   1      31.757  16.564 -23.551  0.00  0.00     0.104 A 
ATOM     18  C   UNL d   1      31.617  16.205 -24.283  0.00  0.00     0.015 A 
ATOM     19  C   UNL d   1      30.875  16.248 -24.632  0.00  0.00     0.025 A 
ATOM     20  C   UNL d   1      30.269  16.650 -24.252  0.00  0.00     0.100 A 
ATOM     21  C   UNL d   1      30.397  17.012 -23.521  0.00  0.00     0.025 A 
ATOM     22  C   UNL d   1      31.140  16.971 -23.169  0.00  0.00     0.015 A 
BRANCH  20  23
ATOM     23  O   UNL d   1      29.518  16.691 -24.609  0.00  0.00    -0.307 OA
BRANCH  23  24
ATOM     24  C   UNL d   1      28.843  16.504 -24.165  0.00  0.00     0.100 A 
ATOM     25  C   UNL d   1      28.612  15.713 -24.061  0.00  0.00     0.025 A 
ATOM     26  C   UNL d   1      27.939  15.534 -23.618  0.00  0.00     0.002 A 
ATOM     27  C   UNL d   1      27.497  16.142 -23.278  0.00  0.00     0.000 A 
ATOM     28  C   UNL d   1      27.728  16.933 -23.382  0.00  0.00     0.002 A 
ATOM     29  C   UNL d   1      28.401  17.113 -23.825  0.00  0.00     0.025 A 
ENDBRANCH  23  24
ENDBRANCH  20  23
ENDBRANCH   1  17
TORSDOF 5
ENDMDL
