MODEL 1
REMARK VINA RESULT:      -6.0      0.000      0.000
REMARK  3 active torsions:
REMARK  status: ('A' for Active; 'I' for Inactive)
REMARK    1  A    between atoms: C_12  and  C_4 
REMARK       I    between atoms: C_6  and  N_11 
REMARK    2  A    between atoms: C_7  and  C_6 
REMARK    3  A    between atoms: N_11  and  C_18 
ROOT
ATOM      1  C   UNL d   1     -41.404-122.780 -52.207  0.00  0.00     0.019 A 
ATOM      2  C   UNL d   1     -41.226-122.159 -51.692  0.00  0.00     0.003 A 
ATOM      3  C   UNL d   1     -41.488-123.539 -51.919  0.00  0.00     0.003 A 
ATOM      4  C   UNL d   1     -41.217-123.066 -50.597  0.00  0.00     0.085 A 
ATOM      5  C   UNL d   1     -41.394-123.682 -51.112  0.00  0.00     0.019 A 
ATOM      6  C   UNL d   1     -41.133-122.302 -50.894  0.00  0.00     0.019 A 
ENDROOT
BRANCH   1   7
ATOM      7  C   UNL d   1     -41.498-122.637 -53.019  0.00  0.00     0.101 A 
ATOM      8  N   UNL d   1     -42.007-122.080 -53.318  0.00  0.00    -0.221 NA
ATOM      9  C   UNL d   1     -41.954-122.094 -54.140  0.00  0.00     0.179 A 
ATOM     10  N   UNL d   1     -41.409-122.664 -54.354  0.00  0.00    -0.282 N 
ATOM     11  S   UNL d   1     -42.246-121.747 -54.831  0.00  0.00    -0.048 SA
ATOM     12  C   UNL d   1     -41.123-123.005 -53.655  0.00  0.00     0.101 A 
ATOM     13  C   UNL d   1     -41.355-122.679 -55.176  0.00  0.00     0.089 A 
ATOM     14  C   UNL d   1     -41.877-122.108 -55.467  0.00  0.00     0.057 A 
ENDBRANCH   1   7
BRANCH   4  15
ATOM     15  N   UNL d   1     -41.123-123.208 -49.786  0.00  0.00    -0.208 NA
ATOM     16  C   UNL d   1     -41.767-123.124 -49.274  0.00  0.00     0.279 C 
ATOM     17  O   UNL d   1     -41.677-123.264 -48.471  0.00  0.00    -0.265 OA
BRANCH  16  18
ATOM     18  C   UNL d   1     -42.498-122.899 -49.577  0.00  0.00     0.058 A 
ATOM     19  C   UNL d   1     -43.158-122.871 -49.076  0.00  0.00     0.005 A 
ATOM     20  C   UNL d   1     -43.238-122.673 -49.878  0.00  0.00     0.005 A 
ENDBRANCH  16  18
ENDBRANCH   4  15
TORSDOF 3
ENDMDL
MODEL 2
REMARK VINA RESULT:      -3.9      2.270      4.559
REMARK  3 active torsions:
REMARK  status: ('A' for Active; 'I' for Inactive)
REMARK    1  A    between atoms: C_12  and  C_4 
REMARK       I    between atoms: C_6  and  N_11 
REMARK    2  A    between atoms: C_7  and  C_6 
REMARK    3  A    between atoms: N_11  and  C_18 
ROOT
ATOM      1  C   UNL d   1     -41.846-122.516 -50.985  0.00  0.00     0.019 A 
ATOM      2  C   UNL d   1     -42.540-122.497 -51.432  0.00  0.00     0.003 A 
ATOM      3  C   UNL d   1     -41.140-122.276 -51.315  0.00  0.00     0.003 A 
ATOM      4  C   UNL d   1     -41.812-121.994 -52.545  0.00  0.00     0.085 A 
ATOM      5  C   UNL d   1     -41.123-122.014 -52.097  0.00  0.00     0.019 A 
ATOM      6  C   UNL d   1     -42.522-122.238 -52.206  0.00  0.00     0.019 A 
ENDROOT
BRANCH   1   7
ATOM      7  C   UNL d   1     -41.862-122.779 -50.198  0.00  0.00     0.101 A 
ATOM      8  N   UNL d   1     -42.502-122.684 -49.708  0.00  0.00    -0.221 NA
ATOM      9  C   UNL d   1     -42.318-123.010 -48.974  0.00  0.00     0.179 A 
ATOM     10  N   UNL d   1     -41.558-123.310 -49.007  0.00  0.00    -0.282 N 
ATOM     11  S   UNL d   1     -42.615-123.148 -48.215  0.00  0.00    -0.048 SA
ATOM     12  C   UNL d   1     -41.271-123.167 -49.772  0.00  0.00     0.101 A 
ATOM     13  C   UNL d   1     -41.374-123.637 -48.274  0.00  0.00     0.089 A 
ATOM     14  C   UNL d   1     -42.033-123.533 -47.786  0.00  0.00     0.057 A 
ENDBRANCH   1   7
BRANCH   4  15
ATOM     15  N   UNL d   1     -41.797-121.732 -53.332  0.00  0.00    -0.208 NA
ATOM     16  C   UNL d   1     -41.579-122.253 -53.937  0.00  0.00     0.279 C 
ATOM     17  O   UNL d   1     -41.564-121.996 -54.715  0.00  0.00    -0.265 OA
BRANCH  16  18
ATOM     18  C   UNL d   1     -41.380-123.029 -53.751  0.00  0.00     0.058 A 
ATOM     19  C   UNL d   1     -41.269-123.580 -54.360  0.00  0.00     0.005 A 
ATOM     20  C   UNL d   1     -41.178-123.813 -53.569  0.00  0.00     0.005 A 
ENDBRANCH  16  18
ENDBRANCH   4  15
TORSDOF 3
ENDMDL
