MODEL 1
REMARK VINA RESULT:      37.7      0.000      0.000
REMARK  4 active torsions:
REMARK  status: ('A' for Active; 'I' for Inactive)
REMARK    1  A    between atoms: N_7  and  C_1 
REMARK    2  A    between atoms: C_8  and  C_2 
REMARK    3  A    between atoms: C_11  and  N_7 
REMARK    4  A    between atoms: C_19  and  C_12 
ROOT
ATOM      1  C   UNL d   1      59.959  49.482  51.115  0.00  0.00     0.189 A 
ATOM      2  C   UNL d   1      60.628  49.319  51.571  0.00  0.00     0.119 A 
ATOM      3  C   UNL d   1      61.334  49.102  51.202  0.00  0.00     0.204 A 
ATOM      4  O   UNL d   1      60.000  49.426  50.292  0.00  0.00    -0.289 OA
ATOM      5  C   UNL d   1      61.370  49.048  50.386  0.00  0.00     0.067 A 
ATOM      6  C   UNL d   1      60.702  49.211  49.931  0.00  0.00     0.105 A 
ATOM      7  O   UNL d   1      62.004  48.939  51.660  0.00  0.00    -0.286 OA
ATOM      8  C   UNL d   1      60.723  49.160  49.096  0.00  0.00     0.027 C 
ENDROOT
BRANCH   1   9
ATOM      9  N   UNL d   1      59.225  49.707  51.487  0.00  0.00    -0.222 NA
BRANCH   9  10
ATOM     10  C   UNL d   1      58.516  49.653  51.077  0.00  0.00     0.084 A 
ATOM     11  C   UNL d   1      58.514  49.591  50.250  0.00  0.00     0.019 A 
ATOM     12  C   UNL d   1      57.802  49.536  49.838  0.00  0.00     0.002 A 
ATOM     13  C   UNL d   1      57.087  49.544  50.251  0.00  0.00     0.000 A 
ATOM     14  C   UNL d   1      57.086  49.605  51.067  0.00  0.00     0.002 A 
ATOM     15  C   UNL d   1      57.799  49.659  51.479  0.00  0.00     0.019 A 
BRANCH  13  16
ATOM     16  C   UNL d   1      56.371  49.489  49.837  0.00  0.00     0.000 C 
ATOM     17  C   UNL d   1      56.370  49.293  49.042  0.00  0.00     0.000 C 
ENDBRANCH  13  16
ENDBRANCH   9  10
ENDBRANCH   1   9
BRANCH   2  18
ATOM     18  C   UNL d   1      60.577  49.378  52.410  0.00  0.00     0.202 C 
ATOM     19  O   UNL d   1      59.884  49.134  52.791  0.00  0.00    -0.286 OA
ATOM     20  C   UNL d   1      61.205  49.672  52.846  0.00  0.00     0.046 C 
ENDBRANCH   2  18
TORSDOF 4
ENDMDL
