MODEL 1
REMARK VINA RESULT:      57.1      0.000      0.000
REMARK  5 active torsions:
REMARK  status: ('A' for Active; 'I' for Inactive)
REMARK    1  A    between atoms: C_9  and  C_3 
REMARK    2  A    between atoms: C_8  and  C_4 
REMARK    3  A    between atoms: C_11  and  C_8 
REMARK    4  A    between atoms: O_16  and  C_9 
REMARK    5  A    between atoms: C_18  and  C_11 
ROOT
ATOM      1  N   UNL d   1     -51.489  25.614  33.386  0.00  0.00    -0.254 N 
ATOM      2  C   UNL d   1     -51.960  24.938  33.346  0.00  0.00     0.182 A 
ATOM      3  C   UNL d   1     -50.321  24.799  33.417  0.00  0.00     0.097 A 
ATOM      4  C   UNL d   1     -50.669  25.550  33.421  0.00  0.00     0.075 A 
ATOM      5  N   UNL d   1     -51.607  24.195  33.342  0.00  0.00    -0.222 NA
ATOM      6  C   UNL d   1     -50.789  24.120  33.377  0.00  0.00     0.090 A 
ATOM      7  C   UNL d   1     -51.842  26.359  33.390  0.00  0.00     0.267 A 
ATOM      8  S   UNL d   1     -52.777  25.002  33.310  0.00  0.00    -0.049 SA
ATOM      9  C   UNL d   1     -52.662  26.424  33.354  0.00  0.00     0.068 A 
ATOM     10  O   UNL d   1     -51.375  27.038  33.429  0.00  0.00    -0.267 OA
ATOM     11  C   UNL d   1     -53.129  25.745  33.314  0.00  0.00     0.043 A 
ATOM     12  C   UNL d   1     -50.442  23.375  33.373  0.00  0.00     0.021 C 
ENDROOT
BRANCH   4  13
ATOM     13  C   UNL d   1     -50.202  26.228  33.461  0.00  0.00     0.018 C 
BRANCH  13  14
ATOM     14  C   UNL d   1     -50.081  26.593  34.193  0.00  0.00     0.002 C 
BRANCH  14  15
ATOM     15  C   UNL d   1     -49.614  27.272  34.237  0.00  0.00     0.000 A 
ATOM     16  C   UNL d   1     -49.540  27.763  33.582  0.00  0.00     0.000 A 
ATOM     17  C   UNL d   1     -49.073  28.441  33.630  0.00  0.00     0.000 A 
ATOM     18  C   UNL d   1     -48.682  28.625  34.331  0.00  0.00     0.000 A 
ATOM     19  C   UNL d   1     -48.759  28.130  34.984  0.00  0.00     0.000 A 
ATOM     20  C   UNL d   1     -49.226  27.452  34.937  0.00  0.00     0.000 A 
ENDBRANCH  14  15
ENDBRANCH  13  14
ENDBRANCH   4  13
BRANCH   3  21
ATOM     21  C   UNL d   1     -49.504  24.730  33.453  0.00  0.00     0.299 C 
ATOM     22  O   UNL d   1     -49.037  25.385  33.635  0.00  0.00    -0.259 OA
BRANCH  21  23
ATOM     23  O   UNL d   1     -49.143  24.004  33.306  0.00  0.00    -0.296 OA
ATOM     24  C   UNL d   1     -48.464  23.781  33.718  0.00  0.00     0.185 C 
ENDBRANCH  21  23
ENDBRANCH   3  21
TORSDOF 5
ENDMDL
