MODEL 1
REMARK VINA RESULT:      -2.7      0.000      0.000
REMARK  5 active torsions:
REMARK  status: ('A' for Active; 'I' for Inactive)
REMARK    1  A    between atoms: C_8  and  N_1 
REMARK       I    between atoms: N_2  and  C_6 
REMARK    2  A    between atoms: S_11  and  C_3 
REMARK    3  A    between atoms: C_6  and  C_8 
REMARK    4  A    between atoms: C_9  and  C_15 
REMARK       I    between atoms: N_10  and  C_9 
REMARK    5  A    between atoms: C_15  and  S_11 
ROOT
ATOM      1  N   UNL d   1      59.221  -0.976  29.247  0.00  0.00    -0.300 N 
ATOM      2  C   UNL d   1      58.674  -0.071  30.058  0.00  0.00     0.049 A 
ATOM      3  C   UNL d   1      58.510  -0.728  29.584  0.00  0.00     0.087 A 
ATOM      4  C   UNL d   1      59.481   0.083  30.013  0.00  0.00     0.024 A 
ATOM      5  C   UNL d   1      59.819  -0.477  29.510  0.00  0.00     0.065 A 
ATOM      6  C   UNL d   1      59.950   0.660  30.363  0.00  0.00     0.002 A 
ATOM      7  C   UNL d   1      60.630  -0.461  29.357  0.00  0.00     0.018 A 
ATOM      8  C   UNL d   1      60.764   0.680  30.212  0.00  0.00     0.000 A 
ATOM      9  C   UNL d   1      61.098   0.115  29.707  0.00  0.00     0.002 A 
ENDROOT
BRANCH   1  10
ATOM     10  C   UNL d   1      59.315  -1.613  28.735  0.00  0.00     0.142 C 
BRANCH  10  11
ATOM     11  C   UNL d   1      58.726  -2.182  28.674  0.00  0.00     0.283 C 
ATOM     12  N   UNL d   1      58.925  -2.979  28.626  0.00  0.00    -0.267 N 
ATOM     13  C   UNL d   1      58.337  -3.551  28.565  0.00  0.00     0.108 A 
ATOM     14  C   UNL d   1      59.714  -3.211  28.641  0.00  0.00     0.108 A 
ATOM     15  C   UNL d   1      58.536  -4.348  28.518  0.00  0.00     0.118 A 
ATOM     16  C   UNL d   1      57.937  -4.928  28.455  0.00  0.00     0.028 C 
ATOM     17  O   UNL d   1      59.327  -4.585  28.532  0.00  0.00    -0.304 OA
ATOM     18  C   UNL d   1      59.916  -4.017  28.593  0.00  0.00     0.118 A 
ATOM     19  C   UNL d   1      60.705  -4.249  28.607  0.00  0.00     0.028 C 
ATOM     20  O   UNL d   1      57.937  -1.953  28.659  0.00  0.00    -0.265 OA
ENDBRANCH  10  11
ENDBRANCH   1  10
BRANCH   2  21
ATOM     21  S   UNL d   1      58.122   0.353  30.499  0.00  0.00    -0.080 SA
BRANCH  21  22
ATOM     22  C   UNL d   1      57.695  -0.014  31.099  0.00  0.00     0.097 C 
BRANCH  22  23
ATOM     23  C   UNL d   1      56.984   0.327  31.363  0.00  0.00     0.272 C 
ATOM     24  N   UNL d   1      56.804   0.333  32.162  0.00  0.00    -0.267 N 
ATOM     25  C   UNL d   1      56.097   0.673  32.413  0.00  0.00     0.110 A 
ATOM     26  C   UNL d   1      57.328   0.003  32.706  0.00  0.00     0.110 A 
ATOM     27  C   UNL d   1      55.913   0.682  33.220  0.00  0.00     0.142 A 
ATOM     28  O   UNL d   1      56.442   0.347  33.772  0.00  0.00    -0.300 OA
ATOM     29  C   UNL d   1      57.142   0.012  33.513  0.00  0.00     0.142 A 
ATOM     30  O   UNL d   1      56.453   0.660  30.822  0.00  0.00    -0.266 OA
ENDBRANCH  22  23
ENDBRANCH  21  22
ENDBRANCH   2  21
TORSDOF 5
ENDMDL
