MODEL 1
REMARK VINA RESULT:      -3.1      0.000      0.000
REMARK  4 active torsions:
REMARK  status: ('A' for Active; 'I' for Inactive)
REMARK    1  A    between atoms: C_2  and  C_1 
REMARK       I    between atoms: N_9  and  C_2 
REMARK    2  A    between atoms: N_4  and  C_14 
REMARK    3  A    between atoms: C_13  and  N_9 
REMARK    4  A    between atoms: C_14  and  C_13 
ROOT
ATOM      1  C   UNL d   1      58.123   0.250  29.182  0.00  0.00     0.281 C 
ATOM      2  O   UNL d   1      57.983   0.682  28.495  0.00  0.00    -0.265 OA
ATOM      3  N   UNL d   1      57.680   0.390  29.863  0.00  0.00    -0.205 NA
ENDROOT
BRANCH   1   4
ATOM      4  C   UNL d   1      58.717  -0.334  29.188  0.00  0.00     0.077 A 
ATOM      5  C   UNL d   1      58.525  -1.115  29.004  0.00  0.00     0.105 A 
ATOM      6  N   UNL d   1      59.109  -1.694  29.010  0.00  0.00    -0.233 NA
ATOM      7  C   UNL d   1      59.889  -1.493  29.199  0.00  0.00     0.139 A 
ATOM      8  C   UNL d   1      60.081  -0.716  29.382  0.00  0.00     0.031 A 
ATOM      9 CL   UNL d   1      60.486  -2.076  29.206  0.00  0.00    -0.061 Cl
ATOM     10  C   UNL d   1      59.496  -0.134  29.377  0.00  0.00     0.009 A 
ENDBRANCH   1   4
BRANCH   3  11
ATOM     11  C   UNL d   1      57.819  -0.042  30.550  0.00  0.00     0.121 C 
BRANCH  11  12
ATOM     12  C   UNL d   1      57.661   0.283  31.288  0.00  0.00     0.101 C 
BRANCH  12  13
ATOM     13  N   UNL d   1      57.059  -0.029  31.754  0.00  0.00    -0.298 N 
ATOM     14  C   UNL d   1      57.006  -0.839  31.872  0.00  0.00     0.107 A 
ATOM     15  C   UNL d   1      56.398  -1.154  32.343  0.00  0.00     0.142 A 
ATOM     16  O   UNL d   1      55.848  -0.655  32.692  0.00  0.00    -0.300 OA
ATOM     17  C   UNL d   1      55.897   0.165  32.576  0.00  0.00     0.142 A 
ATOM     18  C   UNL d   1      56.505   0.480  32.105  0.00  0.00     0.107 A 
ENDBRANCH  12  13
ENDBRANCH  11  12
ENDBRANCH   3  11
TORSDOF 4
ENDMDL
MODEL 2
REMARK VINA RESULT:      -2.7      2.338      4.592
REMARK  4 active torsions:
REMARK  status: ('A' for Active; 'I' for Inactive)
REMARK    1  A    between atoms: C_2  and  C_1 
REMARK       I    between atoms: N_9  and  C_2 
REMARK    2  A    between atoms: N_4  and  C_14 
REMARK    3  A    between atoms: C_13  and  N_9 
REMARK    4  A    between atoms: C_14  and  C_13 
ROOT
ATOM      1  C   UNL d   1      56.421  -1.100  32.262  0.00  0.00     0.281 C 
ATOM      2  O   UNL d   1      56.221  -1.896  32.196  0.00  0.00    -0.265 OA
ATOM      3  N   UNL d   1      56.907  -0.743  31.699  0.00  0.00    -0.205 NA
ENDROOT
BRANCH   1   4
ATOM      4  C   UNL d   1      56.130  -0.653  32.901  0.00  0.00     0.077 A 
ATOM      5  C   UNL d   1      56.631  -0.461  33.528  0.00  0.00     0.105 A 
ATOM      6  N   UNL d   1      56.347  -0.020  34.160  0.00  0.00    -0.233 NA
ATOM      7  C   UNL d   1      55.559   0.233  34.168  0.00  0.00     0.139 A 
ATOM      8  C   UNL d   1      55.059   0.043  33.545  0.00  0.00     0.031 A 
ATOM      9 CL   UNL d   1      55.265   0.682  34.807  0.00  0.00    -0.061 Cl
ATOM     10  C   UNL d   1      55.343  -0.400  32.909  0.00  0.00     0.009 A 
ENDBRANCH   1   4
BRANCH   3  11
ATOM     11  C   UNL d   1      57.108   0.053  31.764  0.00  0.00     0.121 C 
BRANCH  11  12
ATOM     12  C   UNL d   1      57.272   0.499  31.094  0.00  0.00     0.101 C 
BRANCH  12  13
ATOM     13  N   UNL d   1      58.030   0.501  30.775  0.00  0.00    -0.298 N 
ATOM     14  C   UNL d   1      58.144   0.326  29.982  0.00  0.00     0.107 A 
ATOM     15  C   UNL d   1      58.910   0.328  29.660  0.00  0.00     0.142 A 
ATOM     16  O   UNL d   1      59.556   0.505  30.135  0.00  0.00    -0.300 OA
ATOM     17  C   UNL d   1      59.446   0.682  30.938  0.00  0.00     0.142 A 
ATOM     18  C   UNL d   1      58.680   0.680  31.259  0.00  0.00     0.107 A 
ENDBRANCH  12  13
ENDBRANCH  11  12
ENDBRANCH   3  11
TORSDOF 4
ENDMDL
MODEL 3
REMARK VINA RESULT:      -2.5      1.177      1.633
REMARK  4 active torsions:
REMARK  status: ('A' for Active; 'I' for Inactive)
REMARK    1  A    between atoms: C_2  and  C_1 
REMARK       I    between atoms: N_9  and  C_2 
REMARK    2  A    between atoms: N_4  and  C_14 
REMARK    3  A    between atoms: C_13  and  N_9 
REMARK    4  A    between atoms: C_14  and  C_13 
ROOT
ATOM      1  C   UNL d   1      59.997  -0.081  28.928  0.00  0.00     0.281 C 
ATOM      2  O   UNL d   1      60.555   0.297  28.455  0.00  0.00    -0.265 OA
ATOM      3  N   UNL d   1      59.484   0.357  29.402  0.00  0.00    -0.205 NA
ENDROOT
BRANCH   1   4
ATOM      4  C   UNL d   1      59.951  -0.912  28.927  0.00  0.00     0.077 A 
ATOM      5  C   UNL d   1      59.385  -1.291  28.462  0.00  0.00     0.105 A 
ATOM      6  N   UNL d   1      59.337  -2.111  28.459  0.00  0.00    -0.233 NA
ATOM      7  C   UNL d   1      59.856  -2.558  28.923  0.00  0.00     0.139 A 
ATOM      8  C   UNL d   1      60.421  -2.183  29.387  0.00  0.00     0.031 A 
ATOM      9 CL   UNL d   1      59.812  -3.392  28.924  0.00  0.00    -0.061 Cl
ATOM     10  C   UNL d   1      60.470  -1.359  29.391  0.00  0.00     0.009 A 
ENDBRANCH   1   4
BRANCH   3  11
ATOM     11  C   UNL d   1      58.926  -0.020  29.875  0.00  0.00     0.121 C 
BRANCH  11  12
ATOM     12  C   UNL d   1      58.241   0.370  30.108  0.00  0.00     0.101 C 
BRANCH  12  13
ATOM     13  N   UNL d   1      57.960   0.286  30.877  0.00  0.00    -0.298 N 
ATOM     14  C   UNL d   1      58.341   0.664  31.498  0.00  0.00     0.107 A 
ATOM     15  C   UNL d   1      58.057   0.579  32.275  0.00  0.00     0.142 A 
ATOM     16  O   UNL d   1      57.395   0.117  32.423  0.00  0.00    -0.300 OA
ATOM     17  C   UNL d   1      57.008  -0.267  31.799  0.00  0.00     0.142 A 
ATOM     18  C   UNL d   1      57.291  -0.183  31.022  0.00  0.00     0.107 A 
ENDBRANCH  12  13
ENDBRANCH  11  12
ENDBRANCH   3  11
TORSDOF 4
ENDMDL
MODEL 4
REMARK VINA RESULT:      -2.0      2.254      3.834
REMARK  4 active torsions:
REMARK  status: ('A' for Active; 'I' for Inactive)
REMARK    1  A    between atoms: C_2  and  C_1 
REMARK       I    between atoms: N_9  and  C_2 
REMARK    2  A    between atoms: N_4  and  C_14 
REMARK    3  A    between atoms: C_13  and  N_9 
REMARK    4  A    between atoms: C_14  and  C_13 
ROOT
ATOM      1  C   UNL d   1      59.984   0.093  29.620  0.00  0.00     0.281 C 
ATOM      2  O   UNL d   1      60.552   0.682  29.712  0.00  0.00    -0.265 OA
ATOM      3  N   UNL d   1      60.137  -0.567  29.149  0.00  0.00    -0.205 NA
ENDROOT
BRANCH   1   4
ATOM      4  C   UNL d   1      59.249   0.165  30.005  0.00  0.00     0.077 A 
ATOM      5  C   UNL d   1      58.581   0.388  29.574  0.00  0.00     0.105 A 
ATOM      6  N   UNL d   1      57.855   0.459  29.951  0.00  0.00    -0.233 NA
ATOM      7  C   UNL d   1      57.792   0.307  30.762  0.00  0.00     0.139 A 
ATOM      8  C   UNL d   1      58.455   0.085  31.192  0.00  0.00     0.031 A 
ATOM      9 CL   UNL d   1      57.056   0.378  31.150  0.00  0.00    -0.061 Cl
ATOM     10  C   UNL d   1      59.186   0.013  30.815  0.00  0.00     0.009 A 
ENDBRANCH   1   4
BRANCH   3  11
ATOM     11  C   UNL d   1      59.570  -1.156  29.056  0.00  0.00     0.121 C 
BRANCH  11  12
ATOM     12  C   UNL d   1      59.659  -1.737  28.482  0.00  0.00     0.101 C 
BRANCH  12  13
ATOM     13  N   UNL d   1      59.434  -2.512  28.642  0.00  0.00    -0.298 N 
ATOM     14  C   UNL d   1      59.967  -3.033  28.986  0.00  0.00     0.107 A 
ATOM     15  C   UNL d   1      59.739  -3.816  29.148  0.00  0.00     0.142 A 
ATOM     16  O   UNL d   1      58.980  -4.071  28.964  0.00  0.00    -0.300 OA
ATOM     17  C   UNL d   1      58.439  -3.547  28.617  0.00  0.00     0.142 A 
ATOM     18  C   UNL d   1      58.666  -2.765  28.455  0.00  0.00     0.107 A 
ENDBRANCH  12  13
ENDBRANCH  11  12
ENDBRANCH   3  11
TORSDOF 4
ENDMDL
MODEL 5
REMARK VINA RESULT:      -1.7      1.974      4.203
REMARK  4 active torsions:
REMARK  status: ('A' for Active; 'I' for Inactive)
REMARK    1  A    between atoms: C_2  and  C_1 
REMARK       I    between atoms: N_9  and  C_2 
REMARK    2  A    between atoms: N_4  and  C_14 
REMARK    3  A    between atoms: C_13  and  N_9 
REMARK    4  A    between atoms: C_14  and  C_13 
ROOT
ATOM      1  C   UNL d   1      57.873   0.424  32.807  0.00  0.00     0.281 C 
ATOM      2  O   UNL d   1      58.221   0.681  33.507  0.00  0.00    -0.265 OA
ATOM      3  N   UNL d   1      58.214   0.607  32.078  0.00  0.00    -0.205 NA
ENDROOT
BRANCH   1   4
ATOM      4  C   UNL d   1      57.171  -0.023  32.834  0.00  0.00     0.077 A 
ATOM      5  C   UNL d   1      57.210  -0.847  32.812  0.00  0.00     0.105 A 
ATOM      6  N   UNL d   1      56.519  -1.291  32.839  0.00  0.00    -0.233 NA
ATOM      7  C   UNL d   1      55.785  -0.913  32.888  0.00  0.00     0.139 A 
ATOM      8  C   UNL d   1      55.745  -0.092  32.911  0.00  0.00     0.031 A 
ATOM      9 CL   UNL d   1      55.079  -1.358  32.916  0.00  0.00    -0.061 Cl
ATOM     10  C   UNL d   1      56.437   0.355  32.884  0.00  0.00     0.009 A 
ENDBRANCH   1   4
BRANCH   3  11
ATOM     11  C   UNL d   1      57.867   0.351  31.377  0.00  0.00     0.121 C 
BRANCH  11  12
ATOM     12  C   UNL d   1      58.083   0.682  30.657  0.00  0.00     0.101 C 
BRANCH  12  13
ATOM     13  N   UNL d   1      58.528   0.246  30.120  0.00  0.00    -0.298 N 
ATOM     14  C   UNL d   1      59.346   0.309  30.116  0.00  0.00     0.107 A 
ATOM     15  C   UNL d   1      59.796  -0.132  29.573  0.00  0.00     0.142 A 
ATOM     16  O   UNL d   1      59.423  -0.632  29.039  0.00  0.00    -0.300 OA
ATOM     17  C   UNL d   1      58.596  -0.699  29.040  0.00  0.00     0.142 A 
ATOM     18  C   UNL d   1      58.147  -0.258  29.582  0.00  0.00     0.107 A 
ENDBRANCH  12  13
ENDBRANCH  11  12
ENDBRANCH   3  11
TORSDOF 4
ENDMDL
MODEL 6
REMARK VINA RESULT:      -0.6      9.156      9.624
REMARK  4 active torsions:
REMARK  status: ('A' for Active; 'I' for Inactive)
REMARK    1  A    between atoms: C_2  and  C_1 
REMARK       I    between atoms: N_9  and  C_2 
REMARK    2  A    between atoms: N_4  and  C_14 
REMARK    3  A    between atoms: C_13  and  N_9 
REMARK    4  A    between atoms: C_14  and  C_13 
ROOT
ATOM      1  C   UNL d   1      60.544  -9.541  33.062  0.00  0.00     0.281 C 
ATOM      2  O   UNL d   1      61.132  -9.802  32.549  0.00  0.00    -0.265 OA
ATOM      3  N   UNL d   1      60.740  -9.211  33.792  0.00  0.00    -0.205 NA
ENDROOT
BRANCH   1   4
ATOM      4  C   UNL d   1      59.744  -9.611  32.842  0.00  0.00     0.077 A 
ATOM      5  C   UNL d   1      59.531  -9.556  32.046  0.00  0.00     0.105 A 
ATOM      6  N   UNL d   1      58.743  -9.625  31.826  0.00  0.00    -0.233 NA
ATOM      7  C   UNL d   1      58.161  -9.748  32.401  0.00  0.00     0.139 A 
ATOM      8  C   UNL d   1      58.370  -9.802  33.194  0.00  0.00     0.031 A 
ATOM      9 CL   UNL d   1      57.358  -9.818  32.184  0.00  0.00    -0.061 Cl
ATOM     10  C   UNL d   1      59.162  -9.734  33.417  0.00  0.00     0.009 A 
ENDBRANCH   1   4
BRANCH   3  11
ATOM     11  C   UNL d   1      60.152  -8.951  34.306  0.00  0.00     0.121 C 
BRANCH  11  12
ATOM     12  C   UNL d   1      60.299  -8.884  35.111  0.00  0.00     0.101 C 
BRANCH  12  13
ATOM     13  N   UNL d   1      60.215  -8.157  35.487  0.00  0.00    -0.298 N 
ATOM     14  C   UNL d   1      59.497  -7.948  35.826  0.00  0.00     0.107 A 
ATOM     15  C   UNL d   1      59.413  -7.214  36.205  0.00  0.00     0.142 A 
ATOM     16  O   UNL d   1      60.047  -6.694  36.242  0.00  0.00    -0.300 OA
ATOM     17  C   UNL d   1      60.774  -6.900  35.901  0.00  0.00     0.142 A 
ATOM     18  C   UNL d   1      60.859  -7.635  35.521  0.00  0.00     0.107 A 
ENDBRANCH  12  13
ENDBRANCH  11  12
ENDBRANCH   3  11
TORSDOF 4
ENDMDL
