MODEL 1
REMARK VINA RESULT:      -6.6      0.000      0.000
REMARK  4 active torsions:
REMARK  status: ('A' for Active; 'I' for Inactive)
REMARK    1  A    between atoms: C_8  and  C_1 
REMARK    2  A    between atoms: C_12  and  C_3 
REMARK    3  A    between atoms: N_10  and  C_8 
REMARK    4  A    between atoms: C_25  and  C_13 
ROOT
ATOM      1  C   UNL d   1     -39.466  14.903  20.842  0.00  0.00     0.079 A 
ATOM      2  C   UNL d   1     -39.842  14.405  19.558  0.00  0.00     0.062 A 
ATOM      3  C   UNL d   1     -38.845  14.166  18.568  0.00  0.00     0.064 A 
ATOM      4  C   UNL d   1     -39.259  14.658  20.084  0.00  0.00     0.108 A 
ATOM      5  C   UNL d   1     -39.635  14.159  18.799  0.00  0.00     0.199 A 
ATOM      6  O   UNL d   1     -38.469  14.664  19.852  0.00  0.00    -0.305 OA
ATOM      7  C   UNL d   1     -38.262  14.419  19.095  0.00  0.00     0.126 A 
ATOM      8  C   UNL d   1     -40.259  14.897  21.077  0.00  0.00     0.199 A 
ATOM      9  C   UNL d   1     -40.632  14.398  19.789  0.00  0.00     0.008 A 
ATOM     10  C   UNL d   1     -40.842  14.645  20.551  0.00  0.00     0.039 A 
ATOM     11  O   UNL d   1     -40.218  13.906  18.273  0.00  0.00    -0.286 OA
ATOM     12  O   UNL d   1     -40.469  15.140  21.826  0.00  0.00    -0.286 OA
ENDROOT
BRANCH   3  13
ATOM     13  C   UNL d   1     -38.638  13.920  17.810  0.00  0.00     0.007 A 
ATOM     14  C   UNL d   1     -38.562  14.477  17.193  0.00  0.00     0.027 A 
ATOM     15  C   UNL d   1     -38.355  14.230  16.436  0.00  0.00     0.123 A 
ATOM     16  O   UNL d   1     -38.281  14.785  15.831  0.00  0.00    -0.301 OA
ATOM     17  C   UNL d   1     -38.223  13.430  16.286  0.00  0.00     0.123 A 
ATOM     18  C   UNL d   1     -38.073  14.540  15.065  0.00  0.00     0.149 A 
ATOM     19  C   UNL d   1     -37.940  13.731  14.918  0.00  0.00     0.149 A 
ATOM     20  O   UNL d   1     -38.016  13.185  15.528  0.00  0.00    -0.301 OA
ATOM     21  C   UNL d   1     -38.298  12.875  16.899  0.00  0.00     0.027 A 
ATOM     22  C   UNL d   1     -38.505  13.120  17.656  0.00  0.00     0.002 A 
ENDBRANCH   3  13
BRANCH   1  23
ATOM     23  C   UNL d   1     -38.883  15.156  21.368  0.00  0.00     0.085 C 
BRANCH  23  24
ATOM     24  N   UNL d   1     -38.623  14.655  21.968  0.00  0.00    -0.304 N 
ATOM     25  C   UNL d   1     -38.203  14.957  22.610  0.00  0.00     0.064 A 
ATOM     26  C   UNL d   1     -38.042  15.763  22.651  0.00  0.00     0.019 C 
ATOM     27  C   UNL d   1     -37.948  14.454  23.204  0.00  0.00     0.018 A 
ATOM     28  C   UNL d   1     -38.111  13.638  23.163  0.00  0.00     0.003 A 
ATOM     29  C   UNL d   1     -38.529  13.341  22.523  0.00  0.00     0.019 A 
ATOM     30  C   UNL d   1     -38.789  13.842  21.922  0.00  0.00     0.080 A 
ENDBRANCH  23  24
ENDBRANCH   1  23
BRANCH  10  31
ATOM     31  C   UNL d   1     -41.638  14.639  20.788  0.00  0.00     0.003 C 
ATOM     32  C   UNL d   1     -42.040  13.922  20.856  0.00  0.00     0.000 C 
ENDBRANCH  10  31
TORSDOF 4
ENDMDL
MODEL 2
REMARK VINA RESULT:      -6.3      7.261      9.842
REMARK  4 active torsions:
REMARK  status: ('A' for Active; 'I' for Inactive)
REMARK    1  A    between atoms: C_8  and  C_1 
REMARK    2  A    between atoms: C_12  and  C_3 
REMARK    3  A    between atoms: N_10  and  C_8 
REMARK    4  A    between atoms: C_25  and  C_13 
ROOT
ATOM      1  C   UNL d   1     -48.562  13.532  23.136  0.00  0.00     0.079 A 
ATOM      2  C   UNL d   1     -47.153  13.588  22.918  0.00  0.00     0.062 A 
ATOM      3  C   UNL d   1     -46.368  12.405  23.037  0.00  0.00     0.064 A 
ATOM      4  C   UNL d   1     -47.831  13.156  23.103  0.00  0.00     0.108 A 
ATOM      5  C   UNL d   1     -46.420  13.212  22.884  0.00  0.00     0.199 A 
ATOM      6  O   UNL d   1     -47.777  12.349  23.255  0.00  0.00    -0.305 OA
ATOM      7  C   UNL d   1     -47.046  11.973  23.222  0.00  0.00     0.126 A 
ATOM      8  C   UNL d   1     -48.619  14.343  22.984  0.00  0.00     0.199 A 
ATOM      9  C   UNL d   1     -47.206  14.395  22.765  0.00  0.00     0.008 A 
ATOM     10  C   UNL d   1     -47.940  14.774  22.798  0.00  0.00     0.039 A 
ATOM     11  O   UNL d   1     -45.742  13.643  22.699  0.00  0.00    -0.286 OA
ATOM     12  O   UNL d   1     -49.341  14.719  23.015  0.00  0.00    -0.286 OA
ENDROOT
BRANCH   3  13
ATOM     13  C   UNL d   1     -45.635  12.029  23.003  0.00  0.00     0.007 A 
ATOM     14  C   UNL d   1     -45.528  11.284  23.364  0.00  0.00     0.027 A 
ATOM     15  C   UNL d   1     -44.796  10.909  23.331  0.00  0.00     0.123 A 
ATOM     16  O   UNL d   1     -44.696  10.173  23.689  0.00  0.00    -0.301 OA
ATOM     17  C   UNL d   1     -44.167  11.271  22.939  0.00  0.00     0.123 A 
ATOM     18  C   UNL d   1     -43.960   9.792  23.657  0.00  0.00     0.149 A 
ATOM     19  C   UNL d   1     -43.327  10.160  23.261  0.00  0.00     0.149 A 
ATOM     20  O   UNL d   1     -43.435  10.894  22.906  0.00  0.00    -0.301 OA
ATOM     21  C   UNL d   1     -44.272  12.012  22.580  0.00  0.00     0.027 A 
ATOM     22  C   UNL d   1     -45.004  12.387  22.613  0.00  0.00     0.002 A 
ENDBRANCH   3  13
BRANCH   1  23
ATOM     23  C   UNL d   1     -49.240  13.101  23.322  0.00  0.00     0.085 C 
BRANCH  23  24
ATOM     24  N   UNL d   1     -49.763  12.877  22.726  0.00  0.00    -0.304 N 
ATOM     25  C   UNL d   1     -50.534  12.648  22.911  0.00  0.00     0.064 A 
ATOM     26  C   UNL d   1     -50.781  12.643  23.696  0.00  0.00     0.019 C 
ATOM     27  C   UNL d   1     -51.049  12.427  22.314  0.00  0.00     0.018 A 
ATOM     28  C   UNL d   1     -50.799  12.432  21.520  0.00  0.00     0.003 A 
ATOM     29  C   UNL d   1     -50.032  12.660  21.339  0.00  0.00     0.019 A 
ATOM     30  C   UNL d   1     -49.509  12.883  21.935  0.00  0.00     0.080 A 
ENDBRANCH  23  24
ENDBRANCH   1  23
BRANCH  10  31
ATOM     31  C   UNL d   1     -47.998  15.589  22.645  0.00  0.00     0.003 C 
ATOM     32  C   UNL d   1     -47.795  15.882  21.901  0.00  0.00     0.000 C 
ENDBRANCH  10  31
TORSDOF 4
ENDMDL
MODEL 3
REMARK VINA RESULT:      -5.4      7.244     10.230
REMARK  4 active torsions:
REMARK  status: ('A' for Active; 'I' for Inactive)
REMARK    1  A    between atoms: C_8  and  C_1 
REMARK    2  A    between atoms: C_12  and  C_3 
REMARK    3  A    between atoms: N_10  and  C_8 
REMARK    4  A    between atoms: C_25  and  C_13 
ROOT
ATOM      1  C   UNL d   1     -49.379  13.360  23.346  0.00  0.00     0.079 A 
ATOM      2  C   UNL d   1     -48.305  12.445  23.129  0.00  0.00     0.062 A 
ATOM      3  C   UNL d   1     -47.013  12.935  22.780  0.00  0.00     0.064 A 
ATOM      4  C   UNL d   1     -48.591  13.219  23.158  0.00  0.00     0.108 A 
ATOM      5  C   UNL d   1     -47.516  12.303  22.940  0.00  0.00     0.199 A 
ATOM      6  O   UNL d   1     -48.087  13.850  22.997  0.00  0.00    -0.305 OA
ATOM      7  C   UNL d   1     -47.299  13.709  22.809  0.00  0.00     0.126 A 
ATOM      8  C   UNL d   1     -49.886  12.727  23.508  0.00  0.00     0.199 A 
ATOM      9  C   UNL d   1     -48.808  11.813  23.289  0.00  0.00     0.008 A 
ATOM     10  C   UNL d   1     -49.601  11.954  23.479  0.00  0.00     0.039 A 
ATOM     11  O   UNL d   1     -47.230  11.530  22.912  0.00  0.00    -0.286 OA
ATOM     12  O   UNL d   1     -50.668  12.862  23.695  0.00  0.00    -0.286 OA
ENDROOT
BRANCH   3  13
ATOM     13  C   UNL d   1     -46.224  12.793  22.591  0.00  0.00     0.007 A 
ATOM     14  C   UNL d   1     -45.803  12.183  22.975  0.00  0.00     0.027 A 
ATOM     15  C   UNL d   1     -45.015  12.042  22.786  0.00  0.00     0.123 A 
ATOM     16  O   UNL d   1     -44.604  11.438  23.168  0.00  0.00    -0.301 OA
ATOM     17  C   UNL d   1     -44.640  12.505  22.215  0.00  0.00     0.123 A 
ATOM     18  C   UNL d   1     -43.809  11.293  22.980  0.00  0.00     0.149 A 
ATOM     19  C   UNL d   1     -43.434  11.762  22.403  0.00  0.00     0.149 A 
ATOM     20  O   UNL d   1     -43.851  12.363  22.027  0.00  0.00    -0.301 OA
ATOM     21  C   UNL d   1     -45.058  13.112  21.833  0.00  0.00     0.027 A 
ATOM     22  C   UNL d   1     -45.846  13.254  22.021  0.00  0.00     0.002 A 
ENDBRANCH   3  13
BRANCH   1  23
ATOM     23  C   UNL d   1     -49.665  14.133  23.375  0.00  0.00     0.085 C 
BRANCH  23  24
ATOM     24  N   UNL d   1     -50.125  14.427  22.758  0.00  0.00    -0.304 N 
ATOM     25  C   UNL d   1     -50.559  15.121  22.855  0.00  0.00     0.064 A 
ATOM     26  C   UNL d   1     -50.533  15.523  23.573  0.00  0.00     0.019 C 
ATOM     27  C   UNL d   1     -51.015  15.407  22.237  0.00  0.00     0.018 A 
ATOM     28  C   UNL d   1     -51.042  15.001  21.511  0.00  0.00     0.003 A 
ATOM     29  C   UNL d   1     -50.608  14.311  21.418  0.00  0.00     0.019 A 
ATOM     30  C   UNL d   1     -50.148  14.017  22.035  0.00  0.00     0.080 A 
ENDBRANCH  23  24
ENDBRANCH   1  23
BRANCH  10  31
ATOM     31  C   UNL d   1     -50.111  11.319  23.641  0.00  0.00     0.003 C 
ATOM     32  C   UNL d   1     -49.808  10.553  23.698  0.00  0.00     0.000 C 
ENDBRANCH  10  31
TORSDOF 4
ENDMDL
MODEL 4
REMARK VINA RESULT:      -4.9      6.589      9.503
REMARK  4 active torsions:
REMARK  status: ('A' for Active; 'I' for Inactive)
REMARK    1  A    between atoms: C_8  and  C_1 
REMARK    2  A    between atoms: C_12  and  C_3 
REMARK    3  A    between atoms: N_10  and  C_8 
REMARK    4  A    between atoms: C_25  and  C_13 
ROOT
ATOM      1  C   UNL d   1     -48.820  13.694  22.113  0.00  0.00     0.079 A 
ATOM      2  C   UNL d   1     -47.452  13.985  22.396  0.00  0.00     0.062 A 
ATOM      3  C   UNL d   1     -46.459  12.979  22.217  0.00  0.00     0.064 A 
ATOM      4  C   UNL d   1     -48.034  13.455  22.148  0.00  0.00     0.108 A 
ATOM      5  C   UNL d   1     -46.664  13.747  22.431  0.00  0.00     0.199 A 
ATOM      6  O   UNL d   1     -47.828  12.687  21.934  0.00  0.00    -0.305 OA
ATOM      7  C   UNL d   1     -47.041  12.449  21.969  0.00  0.00     0.126 A 
ATOM      8  C   UNL d   1     -49.030  14.465  22.327  0.00  0.00     0.199 A 
ATOM      9  C   UNL d   1     -47.657  14.753  22.610  0.00  0.00     0.008 A 
ATOM     10  C   UNL d   1     -48.448  14.994  22.575  0.00  0.00     0.039 A 
ATOM     11  O   UNL d   1     -46.083  14.277  22.679  0.00  0.00    -0.286 OA
ATOM     12  O   UNL d   1     -49.808  14.705  22.295  0.00  0.00    -0.286 OA
ENDROOT
BRANCH   3  13
ATOM     13  C   UNL d   1     -45.671  12.741  22.252  0.00  0.00     0.007 A 
ATOM     14  C   UNL d   1     -45.116  13.045  21.708  0.00  0.00     0.027 A 
ATOM     15  C   UNL d   1     -44.329  12.806  21.743  0.00  0.00     0.123 A 
ATOM     16  O   UNL d   1     -43.785  13.110  21.204  0.00  0.00    -0.301 OA
ATOM     17  C   UNL d   1     -44.089  12.265  22.318  0.00  0.00     0.123 A 
ATOM     18  C   UNL d   1     -42.990  12.872  21.236  0.00  0.00     0.149 A 
ATOM     19  C   UNL d   1     -42.752  12.325  21.818  0.00  0.00     0.149 A 
ATOM     20  O   UNL d   1     -43.301  12.028  22.352  0.00  0.00    -0.301 OA
ATOM     21  C   UNL d   1     -44.641  11.962  22.859  0.00  0.00     0.027 A 
ATOM     22  C   UNL d   1     -45.428  12.200  22.825  0.00  0.00     0.002 A 
ENDBRANCH   3  13
BRANCH   1  23
ATOM     23  C   UNL d   1     -49.402  13.164  21.865  0.00  0.00     0.085 C 
BRANCH  23  24
ATOM     24  N   UNL d   1     -49.843  12.745  22.420  0.00  0.00    -0.304 N 
ATOM     25  C   UNL d   1     -50.631  12.553  22.268  0.00  0.00     0.064 A 
ATOM     26  C   UNL d   1     -50.978  12.782  21.558  0.00  0.00     0.019 C 
ATOM     27  C   UNL d   1     -51.064  12.136  22.825  0.00  0.00     0.018 A 
ATOM     28  C   UNL d   1     -50.713  11.905  23.544  0.00  0.00     0.003 A 
ATOM     29  C   UNL d   1     -49.930  12.097  23.691  0.00  0.00     0.019 A 
ATOM     30  C   UNL d   1     -49.489  12.517  23.136  0.00  0.00     0.080 A 
ENDBRANCH  23  24
ENDBRANCH   1  23
BRANCH  10  31
ATOM     31  C   UNL d   1     -48.659  15.769  22.790  0.00  0.00     0.003 C 
ATOM     32  C   UNL d   1     -49.186  15.892  23.414  0.00  0.00     0.000 C 
ENDBRANCH  10  31
TORSDOF 4
ENDMDL
