MODEL 1
REMARK VINA RESULT:      28.9      0.000      0.000
REMARK  7 active torsions:
REMARK  status: ('A' for Active; 'I' for Inactive)
REMARK    1  A    between atoms: C_6  and  N_2 
REMARK    2  A    between atoms: C_7  and  C_3 
REMARK    3  A    between atoms: C_10  and  C_6 
REMARK    4  A    between atoms: C_17  and  C_7 
REMARK    5  A    between atoms: O_8  and  C_10 
REMARK    6  A    between atoms: C_9  and  O_8 
REMARK    7  A    between atoms: C_14  and  C_17 
ROOT
ATOM      1  N   UNL d   1      13.246  11.784  -2.988  0.00  0.00    -0.227 NA
ATOM      2  N   UNL d   1      13.928  12.926  -2.858  0.00  0.00    -0.287 N 
ATOM      3  C   UNL d   1      13.719  12.222  -2.455  0.00  0.00     0.148 A 
ATOM      4  C   UNL d   1      13.594  12.913  -3.607  0.00  0.00     0.083 A 
ATOM      5  C   UNL d   1      13.154  12.176  -3.691  0.00  0.00     0.099 A 
ATOM      6  C   UNL d   1      13.625  13.454  -4.214  0.00  0.00     0.019 A 
ATOM      7  C   UNL d   1      12.773  12.066  -4.424  0.00  0.00     0.021 A 
ATOM      8  C   UNL d   1      13.230  13.277  -4.899  0.00  0.00     0.002 A 
ATOM      9  C   UNL d   1      12.817  12.587  -4.977  0.00  0.00     0.002 A 
ENDROOT
BRANCH   2  10
ATOM     10  C   UNL d   1      14.387  13.420  -2.429  0.00  0.00     0.108 C 
BRANCH  10  11
ATOM     11  C   UNL d   1      14.229  14.221  -2.364  0.00  0.00     0.142 C 
BRANCH  11  12
ATOM     12  O   UNL d   1      14.273  14.629  -1.658  0.00  0.00    -0.304 OA
BRANCH  12  13
ATOM     13  C   UNL d   1      14.660  15.352  -1.575  0.00  0.00     0.100 A 
ATOM     14  C   UNL d   1      14.719  15.911  -2.178  0.00  0.00     0.025 A 
ATOM     15  C   UNL d   1      15.106  16.633  -2.095  0.00  0.00     0.002 A 
ATOM     16  C   UNL d   1      15.457  16.808  -1.360  0.00  0.00     0.000 A 
ATOM     17  C   UNL d   1      15.411  16.258  -0.731  0.00  0.00     0.002 A 
ATOM     18  C   UNL d   1      15.011  15.528  -0.841  0.00  0.00     0.025 A 
ENDBRANCH  12  13
ENDBRANCH  11  12
ENDBRANCH  10  11
ENDBRANCH   2  10
BRANCH   3  19
ATOM     19  C   UNL d   1      14.112  12.394  -1.771  0.00  0.00     0.041 C 
BRANCH  19  20
ATOM     20  C   UNL d   1      14.284  11.780  -1.229  0.00  0.00     0.049 C 
BRANCH  20  21
ATOM     21  C   UNL d   1      14.231  11.913  -0.407  0.00  0.00     0.234 C 
ATOM     22  O   UNL d   1      13.498  11.853  -0.015  0.00  0.00    -0.283 OA
ENDBRANCH  20  21
ENDBRANCH  19  20
ENDBRANCH   3  19
TORSDOF 7
ENDMDL
MODEL 2
REMARK VINA RESULT:      30.7      1.295      4.124
REMARK  7 active torsions:
REMARK  status: ('A' for Active; 'I' for Inactive)
REMARK    1  A    between atoms: C_6  and  N_2 
REMARK    2  A    between atoms: C_7  and  C_3 
REMARK    3  A    between atoms: C_10  and  C_6 
REMARK    4  A    between atoms: C_17  and  C_7 
REMARK    5  A    between atoms: O_8  and  C_10 
REMARK    6  A    between atoms: C_9  and  O_8 
REMARK    7  A    between atoms: C_14  and  C_17 
ROOT
ATOM      1  N   UNL d   1      15.596  13.884  -0.562  0.00  0.00    -0.227 NA
ATOM      2  N   UNL d   1      14.587  13.799  -1.434  0.00  0.00    -0.287 N 
ATOM      3  C   UNL d   1      15.181  14.314  -1.147  0.00  0.00     0.148 A 
ATOM      4  C   UNL d   1      14.641  13.084  -1.036  0.00  0.00     0.083 A 
ATOM      5  C   UNL d   1      15.292  13.139  -0.474  0.00  0.00     0.099 A 
ATOM      6  C   UNL d   1      14.201  12.403  -1.102  0.00  0.00     0.019 A 
ATOM      7  C   UNL d   1      15.430  12.457  -0.016  0.00  0.00     0.021 A 
ATOM      8  C   UNL d   1      14.394  11.779  -0.623  0.00  0.00     0.002 A 
ATOM      9  C   UNL d   1      15.004  11.831  -0.096  0.00  0.00     0.002 A 
ENDROOT
BRANCH   2  10
ATOM     10  C   UNL d   1      14.129  14.119  -2.005  0.00  0.00     0.108 C 
BRANCH  10  11
ATOM     11  C   UNL d   1      14.106  13.824  -2.768  0.00  0.00     0.142 C 
BRANCH  11  12
ATOM     12  O   UNL d   1      13.419  13.774  -3.207  0.00  0.00    -0.304 OA
BRANCH  12  13
ATOM     13  C   UNL d   1      13.274  13.175  -3.755  0.00  0.00     0.100 A 
ATOM     14  C   UNL d   1      13.266  13.294  -4.571  0.00  0.00     0.025 A 
ATOM     15  C   UNL d   1      13.122  12.697  -5.118  0.00  0.00     0.002 A 
ATOM     16  C   UNL d   1      12.975  11.928  -4.831  0.00  0.00     0.000 A 
ATOM     17  C   UNL d   1      12.977  11.781  -4.007  0.00  0.00     0.002 A 
ATOM     18  C   UNL d   1      13.127  12.407  -3.469  0.00  0.00     0.025 A 
ENDBRANCH  12  13
ENDBRANCH  11  12
ENDBRANCH  10  11
ENDBRANCH   2  10
BRANCH   3  19
ATOM     19  C   UNL d   1      14.992  14.938  -1.623  0.00  0.00     0.041 C 
BRANCH  19  20
ATOM     20  C   UNL d   1      15.348  15.684  -1.488  0.00  0.00     0.049 C 
BRANCH  20  21
ATOM     21  C   UNL d   1      14.905  16.315  -1.169  0.00  0.00     0.234 C 
ATOM     22  O   UNL d   1      15.070  17.101  -1.392  0.00  0.00    -0.283 OA
ENDBRANCH  20  21
ENDBRANCH  19  20
ENDBRANCH   3  19
TORSDOF 7
ENDMDL
