MODEL 1
REMARK VINA RESULT:      -2.8      0.000      0.000
REMARK  5 active torsions:
REMARK  status: ('A' for Active; 'I' for Inactive)
REMARK    1  A    between atoms: N_4  and  S_1 
REMARK    2  A    between atoms: C_5  and  S_1 
REMARK       I    between atoms: N_2  and  C_3 
REMARK    3  A    between atoms: C_3  and  C_11 
REMARK    4  A    between atoms: C_21  and  N_4 
REMARK    5  A    between atoms: C_12  and  C_13 
ROOT
ATOM      1  C   UNL d   1      59.855  -1.109  29.306  0.00  0.00     0.057 A 
ATOM      2  C   UNL d   1      58.843   0.084  29.823  0.00  0.00     0.094 A 
ATOM      3  C   UNL d   1      59.980  -0.756  30.036  0.00  0.00     0.006 A 
ATOM      4  C   UNL d   1      59.221  -0.867  28.829  0.00  0.00     0.006 A 
ATOM      5  C   UNL d   1      59.477  -0.158  30.300  0.00  0.00     0.020 A 
ATOM      6  C   UNL d   1      58.718  -0.269  29.093  0.00  0.00     0.020 A 
ENDROOT
BRANCH   2   7
ATOM      7  N   UNL d   1      58.339   0.682  30.087  0.00  0.00    -0.158 NA
BRANCH   7   8
ATOM      8  S   UNL d   1      57.875   0.568  30.765  0.00  0.00     0.285 S 
ATOM      9  O   UNL d   1      57.208   0.456  30.290  0.00  0.00    -0.198 OA
ATOM     10  O   UNL d   1      58.547   0.681  31.240  0.00  0.00    -0.198 OA
BRANCH   8  11
ATOM     11  C   UNL d   1      57.408   0.455  31.448  0.00  0.00     0.105 A 
ATOM     12  C   UNL d   1      57.727   0.621  32.188  0.00  0.00     0.013 A 
ATOM     13  C   UNL d   1      57.272   0.510  32.862  0.00  0.00    -0.004 A 
ATOM     14  C   UNL d   1      56.497   0.233  32.800  0.00  0.00    -0.023 A 
ATOM     15  C   UNL d   1      56.188   0.070  32.054  0.00  0.00    -0.004 A 
ATOM     16  C   UNL d   1      56.636   0.178  31.377  0.00  0.00     0.013 A 
BRANCH  14  17
ATOM     17  C   UNL d   1      56.024   0.117  33.476  0.00  0.00     0.019 C 
ATOM     18  C   UNL d   1      55.557   0.002  34.151  0.00  0.00     0.004 C 
ATOM     19  C   UNL d   1      56.682   0.259  33.961  0.00  0.00     0.004 C 
ATOM     20  C   UNL d   1      55.371  -0.024  32.988  0.00  0.00     0.004 C 
ENDBRANCH  14  17
ENDBRANCH   8  11
ENDBRANCH   7   8
ENDBRANCH   2   7
BRANCH   1  21
ATOM     21  C   UNL d   1      60.359  -1.707  29.042  0.00  0.00     0.265 C 
ATOM     22  N   UNL d   1      60.080  -2.494  29.017  0.00  0.00    -0.268 N 
ATOM     23  C   UNL d   1      59.309  -2.671  29.254  0.00  0.00     0.108 A 
ATOM     24  C   UNL d   1      60.583  -3.091  28.753  0.00  0.00     0.108 A 
ATOM     25  C   UNL d   1      59.039  -3.458  29.226  0.00  0.00     0.118 A 
ATOM     26  C   UNL d   1      58.265  -3.637  29.464  0.00  0.00     0.028 C 
ATOM     27  O   UNL d   1      59.542  -4.055  28.963  0.00  0.00    -0.304 OA
ATOM     28  C   UNL d   1      60.315  -3.881  28.725  0.00  0.00     0.118 A 
ATOM     29  C   UNL d   1      60.817  -4.484  28.461  0.00  0.00     0.028 C 
ATOM     30  O   UNL d   1      61.124  -1.528  28.807  0.00  0.00    -0.267 OA
ENDBRANCH   1  21
TORSDOF 5
ENDMDL
MODEL 2
REMARK VINA RESULT:      -2.6      0.992      1.467
REMARK  5 active torsions:
REMARK  status: ('A' for Active; 'I' for Inactive)
REMARK    1  A    between atoms: N_4  and  S_1 
REMARK    2  A    between atoms: C_5  and  S_1 
REMARK       I    between atoms: N_2  and  C_3 
REMARK    3  A    between atoms: C_3  and  C_11 
REMARK    4  A    between atoms: C_21  and  N_4 
REMARK    5  A    between atoms: C_12  and  C_13 
ROOT
ATOM      1  C   UNL d   1      58.438  -1.376  29.444  0.00  0.00     0.057 A 
ATOM      2  C   UNL d   1      58.043  -0.009  30.276  0.00  0.00     0.094 A 
ATOM      3  C   UNL d   1      58.708  -0.646  29.182  0.00  0.00     0.006 A 
ATOM      4  C   UNL d   1      57.968  -1.426  30.125  0.00  0.00     0.006 A 
ATOM      5  C   UNL d   1      58.513   0.041  29.595  0.00  0.00     0.020 A 
ATOM      6  C   UNL d   1      57.774  -0.739  30.538  0.00  0.00     0.020 A 
ENDROOT
BRANCH   2   7
ATOM      7  N   UNL d   1      57.849   0.678  30.689  0.00  0.00    -0.158 NA
BRANCH   7   8
ATOM      8  S   UNL d   1      57.421   0.633  31.398  0.00  0.00     0.285 S 
ATOM      9  O   UNL d   1      56.715   0.593  30.971  0.00  0.00    -0.198 OA
ATOM     10  O   UNL d   1      58.132   0.673  31.825  0.00  0.00    -0.198 OA
BRANCH   8  11
ATOM     11  C   UNL d   1      56.992   0.588  32.114  0.00  0.00     0.105 A 
ATOM     12  C   UNL d   1      56.174   0.668  32.101  0.00  0.00     0.013 A 
ATOM     13  C   UNL d   1      55.749   0.624  32.802  0.00  0.00    -0.004 A 
ATOM     14  C   UNL d   1      56.140   0.501  33.518  0.00  0.00    -0.023 A 
ATOM     15  C   UNL d   1      56.960   0.422  33.519  0.00  0.00    -0.004 A 
ATOM     16  C   UNL d   1      57.390   0.464  32.824  0.00  0.00     0.013 A 
BRANCH  14  17
ATOM     17  C   UNL d   1      55.721   0.454  34.237  0.00  0.00     0.019 C 
ATOM     18  C   UNL d   1      55.307   0.409  34.953  0.00  0.00     0.004 C 
ATOM     19  C   UNL d   1      56.435   0.500  34.657  0.00  0.00     0.004 C 
ATOM     20  C   UNL d   1      55.012   0.409  33.813  0.00  0.00     0.004 C 
ENDBRANCH  14  17
ENDBRANCH   8  11
ENDBRANCH   7   8
ENDBRANCH   2   7
BRANCH   1  21
ATOM     21  C   UNL d   1      58.632  -2.063  29.031  0.00  0.00     0.265 C 
ATOM     22  N   UNL d   1      59.362  -2.438  29.185  0.00  0.00    -0.268 N 
ATOM     23  C   UNL d   1      59.884  -2.125  29.744  0.00  0.00     0.108 A 
ATOM     24  C   UNL d   1      59.557  -3.125  28.772  0.00  0.00     0.108 A 
ATOM     25  C   UNL d   1      60.609  -2.505  29.891  0.00  0.00     0.118 A 
ATOM     26  C   UNL d   1      61.133  -2.191  30.452  0.00  0.00     0.028 C 
ATOM     27  O   UNL d   1      60.803  -3.192  29.478  0.00  0.00    -0.304 OA
ATOM     28  C   UNL d   1      60.284  -3.508  28.918  0.00  0.00     0.118 A 
ATOM     29  C   UNL d   1      60.483  -4.199  28.506  0.00  0.00     0.028 C 
ATOM     30  O   UNL d   1      58.113  -2.372  28.476  0.00  0.00    -0.267 OA
ENDBRANCH   1  21
TORSDOF 5
ENDMDL
MODEL 3
REMARK VINA RESULT:      -2.2      1.475      5.639
REMARK  5 active torsions:
REMARK  status: ('A' for Active; 'I' for Inactive)
REMARK    1  A    between atoms: N_4  and  S_1 
REMARK    2  A    between atoms: C_5  and  S_1 
REMARK       I    between atoms: N_2  and  C_3 
REMARK    3  A    between atoms: C_3  and  C_11 
REMARK    4  A    between atoms: C_21  and  N_4 
REMARK    5  A    between atoms: C_12  and  C_13 
ROOT
ATOM      1  C   UNL d   1      56.473  -0.019  31.976  0.00  0.00     0.057 A 
ATOM      2  C   UNL d   1      57.513  -0.004  30.699  0.00  0.00     0.094 A 
ATOM      3  C   UNL d   1      56.567   0.666  31.534  0.00  0.00     0.006 A 
ATOM      4  C   UNL d   1      56.900  -0.702  31.782  0.00  0.00     0.006 A 
ATOM      5  C   UNL d   1      57.086   0.679  30.894  0.00  0.00     0.020 A 
ATOM      6  C   UNL d   1      57.420  -0.689  31.141  0.00  0.00     0.020 A 
ENDROOT
BRANCH   2   7
ATOM      7  N   UNL d   1      58.033   0.008  30.058  0.00  0.00    -0.158 NA
BRANCH   7   8
ATOM      8  S   UNL d   1      58.418  -0.686  29.818  0.00  0.00     0.285 S 
ATOM      9  O   UNL d   1      57.821  -0.828  29.266  0.00  0.00    -0.198 OA
ATOM     10  O   UNL d   1      59.018  -0.541  30.374  0.00  0.00    -0.198 OA
BRANCH   8  11
ATOM     11  C   UNL d   1      58.808  -1.385  29.578  0.00  0.00     0.105 A 
ATOM     12  C   UNL d   1      59.630  -1.407  29.567  0.00  0.00     0.013 A 
ATOM     13  C   UNL d   1      60.016  -2.092  29.332  0.00  0.00    -0.004 A 
ATOM     14  C   UNL d   1      59.583  -2.757  29.105  0.00  0.00    -0.023 A 
ATOM     15  C   UNL d   1      58.760  -2.723  29.120  0.00  0.00    -0.004 A 
ATOM     16  C   UNL d   1      58.368  -2.044  29.354  0.00  0.00     0.013 A 
BRANCH  14  17
ATOM     17  C   UNL d   1      59.963  -3.458  28.864  0.00  0.00     0.019 C 
ATOM     18  C   UNL d   1      60.343  -4.155  28.626  0.00  0.00     0.004 C 
ATOM     19  C   UNL d   1      60.648  -3.227  29.270  0.00  0.00     0.004 C 
ATOM     20  C   UNL d   1      59.276  -3.684  28.461  0.00  0.00     0.004 C 
ENDBRANCH  14  17
ENDBRANCH   8  11
ENDBRANCH   7   8
ENDBRANCH   2   7
BRANCH   1  21
ATOM     21  C   UNL d   1      55.954  -0.032  32.617  0.00  0.00     0.265 C 
ATOM     22  N   UNL d   1      56.243   0.143  33.381  0.00  0.00    -0.268 N 
ATOM     23  C   UNL d   1      57.041   0.326  33.493  0.00  0.00     0.108 A 
ATOM     24  C   UNL d   1      55.724   0.130  34.022  0.00  0.00     0.108 A 
ATOM     25  C   UNL d   1      57.322   0.498  34.257  0.00  0.00     0.118 A 
ATOM     26  C   UNL d   1      58.122   0.682  34.371  0.00  0.00     0.028 C 
ATOM     27  O   UNL d   1      56.802   0.485  34.898  0.00  0.00    -0.304 OA
ATOM     28  C   UNL d   1      56.003   0.302  34.789  0.00  0.00     0.118 A 
ATOM     29  C   UNL d   1      55.485   0.291  35.435  0.00  0.00     0.028 C 
ATOM     30  O   UNL d   1      55.162  -0.214  32.503  0.00  0.00    -0.267 OA
ENDBRANCH   1  21
TORSDOF 5
ENDMDL
