MODEL 1
REMARK VINA RESULT:      39.0      0.000      0.000
REMARK  4 active torsions:
REMARK  status: ('A' for Active; 'I' for Inactive)
REMARK    1  A    between atoms: C_8  and  N_1 
REMARK    2  A    between atoms: C_7  and  C_2 
REMARK    3  A    between atoms: C_9  and  C_7 
REMARK    4  A    between atoms: C_17  and  C_8 
ROOT
ATOM      1  N   UNL d   1     -51.632  24.903  33.310  0.00  0.00    -0.224 N 
ATOM      2  C   UNL d   1     -50.353  25.530  33.308  0.00  0.00     0.117 A 
ATOM      3  C   UNL d   1     -51.178  25.590  33.309  0.00  0.00     0.273 A 
ATOM      4  C   UNL d   1     -51.275  24.174  33.310  0.00  0.00     0.359 A 
ATOM      5  N   UNL d   1     -50.459  24.124  33.309  0.00  0.00    -0.153 NA
ATOM      6  C   UNL d   1     -49.995  24.801  33.308  0.00  0.00     0.288 A 
ATOM      7  O   UNL d   1     -51.722  23.489  33.310  0.00  0.00    -0.244 OA
ATOM      8  O   UNL d   1     -51.537  26.322  33.309  0.00  0.00    -0.266 OA
ATOM      9  O   UNL d   1     -49.178  24.736  33.307  0.00  0.00    -0.265 OA
ENDROOT
BRANCH   1  10
ATOM     10  C   UNL d   1     -52.455  24.964  33.311  0.00  0.00     0.087 C 
BRANCH  10  11
ATOM     11  C   UNL d   1     -52.903  24.397  33.713  0.00  0.00     0.018 A 
ATOM     12  C   UNL d   1     -53.252  23.787  33.307  0.00  0.00     0.002 A 
ATOM     13  C   UNL d   1     -53.700  23.220  33.708  0.00  0.00     0.000 A 
ATOM     14  C   UNL d   1     -53.789  23.281  34.528  0.00  0.00     0.000 A 
ATOM     15  C   UNL d   1     -53.440  23.891  34.935  0.00  0.00     0.000 A 
ATOM     16  C   UNL d   1     -52.992  24.458  34.532  0.00  0.00     0.002 A 
ENDBRANCH  10  11
ENDBRANCH   1  10
BRANCH   2  17
ATOM     17  C   UNL d   1     -49.886  26.223  33.307  0.00  0.00     0.034 C 
BRANCH  17  18
ATOM     18  C   UNL d   1     -50.057  26.829  33.824  0.00  0.00     0.100 A 
ATOM     19  O   UNL d   1     -50.609  26.907  34.432  0.00  0.00    -0.305 OA
ATOM     20  C   UNL d   1     -50.521  27.638  34.756  0.00  0.00     0.123 A 
ATOM     21  C   UNL d   1     -49.929  28.035  34.374  0.00  0.00     0.029 A 
ATOM     22  C   UNL d   1     -49.634  27.537  33.792  0.00  0.00     0.027 A 
ENDBRANCH  17  18
ENDBRANCH   2  17
TORSDOF 4
ENDMDL
