MODEL 1
REMARK VINA RESULT:      -7.6      0.000      0.000
REMARK  2 active torsions:
REMARK  status: ('A' for Active; 'I' for Inactive)
REMARK    1  A    between atoms: S_8  and  C_4 
REMARK    2  A    between atoms: C_12  and  S_8 
ROOT
ATOM      1  C   UNL d   1     -48.403  14.076  22.645  0.00  0.00     0.141 A 
ATOM      2  O   UNL d   1     -48.547  14.675  23.194  0.00  0.00    -0.303 OA
ATOM      3  C   UNL d   1     -49.102  13.939  22.224  0.00  0.00     0.110 A 
ATOM      4  C   UNL d   1     -47.729  13.641  22.477  0.00  0.00     0.137 A 
ATOM      5  C   UNL d   1     -49.675  14.453  22.512  0.00  0.00     0.043 A 
ATOM      6  C   UNL d   1     -49.339  14.910  23.112  0.00  0.00     0.102 A 
ATOM      7  N   UNL d   1     -47.746  13.062  21.883  0.00  0.00    -0.215 NA
ATOM      8  N   UNL d   1     -49.114  13.363  21.636  0.00  0.00    -0.222 NA
ATOM      9  C   UNL d   1     -48.439  12.928  21.468  0.00  0.00     0.200 A 
ATOM     10  C   UNL d   1     -50.470  14.563  22.303  0.00  0.00     0.004 A 
ATOM     11  C   UNL d   1     -49.790  15.480  23.506  0.00  0.00     0.025 A 
ATOM     12  C   UNL d   1     -50.922  15.133  22.697  0.00  0.00     0.000 A 
ATOM     13  C   UNL d   1     -50.582  15.587  23.294  0.00  0.00     0.002 A 
ENDROOT
BRANCH   4  14
ATOM     14  S   UNL d   1     -47.024  13.773  22.895  0.00  0.00    -0.066 SA
BRANCH  14  15
ATOM     15  C   UNL d   1     -46.403  13.232  22.829  0.00  0.00     0.031 C 
ATOM     16  C   UNL d   1     -46.393  12.555  23.298  0.00  0.00     0.007 C 
ATOM     17  C   UNL d   1     -45.796  13.372  22.295  0.00  0.00     0.007 C 
ENDBRANCH  14  15
ENDBRANCH   4  14
TORSDOF 2
ENDMDL
MODEL 2
REMARK VINA RESULT:      -7.6      1.831      2.267
REMARK  2 active torsions:
REMARK  status: ('A' for Active; 'I' for Inactive)
REMARK    1  A    between atoms: S_8  and  C_4 
REMARK    2  A    between atoms: C_12  and  S_8 
ROOT
ATOM      1  C   UNL d   1     -48.337  12.601  22.973  0.00  0.00     0.141 A 
ATOM      2  O   UNL d   1     -48.949  13.085  22.707  0.00  0.00    -0.303 OA
ATOM      3  C   UNL d   1     -48.671  11.956  23.370  0.00  0.00     0.110 A 
ATOM      4  C   UNL d   1     -47.522  12.666  22.905  0.00  0.00     0.137 A 
ATOM      5  C   UNL d   1     -49.488  12.043  23.348  0.00  0.00     0.043 A 
ATOM      6  C   UNL d   1     -49.666  12.739  22.940  0.00  0.00     0.102 A 
ATOM      7  N   UNL d   1     -47.031  12.083  23.234  0.00  0.00    -0.215 NA
ATOM      8  N   UNL d   1     -48.179  11.382  23.694  0.00  0.00    -0.222 NA
ATOM      9  C   UNL d   1     -47.364  11.446  23.626  0.00  0.00     0.200 A 
ATOM     10  C   UNL d   1     -50.098  11.572  23.652  0.00  0.00     0.004 A 
ATOM     11  C   UNL d   1     -50.453  12.969  22.832  0.00  0.00     0.025 A 
ATOM     12  C   UNL d   1     -50.886  11.803  23.543  0.00  0.00     0.000 A 
ATOM     13  C   UNL d   1     -51.059  12.497  23.136  0.00  0.00     0.002 A 
ENDROOT
BRANCH   4  14
ATOM     14  S   UNL d   1     -47.179  13.310  22.508  0.00  0.00    -0.066 SA
BRANCH  14  15
ATOM     15  C   UNL d   1     -46.401  13.527  22.680  0.00  0.00     0.031 C 
ATOM     16  C   UNL d   1     -45.779  13.227  22.230  0.00  0.00     0.007 C 
ATOM     17  C   UNL d   1     -46.249  14.043  23.300  0.00  0.00     0.007 C 
ENDBRANCH  14  15
ENDBRANCH   4  14
TORSDOF 2
ENDMDL
MODEL 3
REMARK VINA RESULT:      -7.5      1.318      3.588
REMARK  2 active torsions:
REMARK  status: ('A' for Active; 'I' for Inactive)
REMARK    1  A    between atoms: S_8  and  C_4 
REMARK    2  A    between atoms: C_12  and  S_8 
ROOT
ATOM      1  C   UNL d   1     -48.612  13.546  23.099  0.00  0.00     0.141 A 
ATOM      2  O   UNL d   1     -48.727  12.780  23.384  0.00  0.00    -0.303 OA
ATOM      3  C   UNL d   1     -47.800  13.659  22.986  0.00  0.00     0.110 A 
ATOM      4  C   UNL d   1     -49.139  14.150  22.930  0.00  0.00     0.137 A 
ATOM      5  C   UNL d   1     -47.416  12.964  23.200  0.00  0.00     0.043 A 
ATOM      6  C   UNL d   1     -47.984  12.418  23.447  0.00  0.00     0.102 A 
ATOM      7  N   UNL d   1     -48.859  14.877  22.644  0.00  0.00    -0.215 NA
ATOM      8  N   UNL d   1     -47.527  14.381  22.702  0.00  0.00    -0.222 NA
ATOM      9  C   UNL d   1     -48.055  14.987  22.533  0.00  0.00     0.200 A 
ATOM     10  C   UNL d   1     -46.613  12.758  23.202  0.00  0.00     0.004 A 
ATOM     11  C   UNL d   1     -47.756  11.662  23.698  0.00  0.00     0.025 A 
ATOM     12  C   UNL d   1     -46.385  12.003  23.453  0.00  0.00     0.000 A 
ATOM     13  C   UNL d   1     -46.954  11.461  23.698  0.00  0.00     0.002 A 
ENDROOT
BRANCH   4  14
ATOM     14  S   UNL d   1     -49.955  14.044  23.041  0.00  0.00    -0.066 SA
BRANCH  14  15
ATOM     15  C   UNL d   1     -50.479  14.640  22.809  0.00  0.00     0.031 C 
ATOM     16  C   UNL d   1     -50.663  15.253  23.327  0.00  0.00     0.007 C 
ATOM     17  C   UNL d   1     -50.816  14.618  22.061  0.00  0.00     0.007 C 
ENDBRANCH  14  15
ENDBRANCH   4  14
TORSDOF 2
ENDMDL
MODEL 4
REMARK VINA RESULT:      -7.4      1.660      3.723
REMARK  2 active torsions:
REMARK  status: ('A' for Active; 'I' for Inactive)
REMARK    1  A    between atoms: S_8  and  C_4 
REMARK    2  A    between atoms: C_12  and  S_8 
ROOT
ATOM      1  C   UNL d   1     -48.932  12.752  22.825  0.00  0.00     0.141 A 
ATOM      2  O   UNL d   1     -48.201  13.115  22.707  0.00  0.00    -0.303 OA
ATOM      3  C   UNL d   1     -48.802  12.026  23.201  0.00  0.00     0.110 A 
ATOM      4  C   UNL d   1     -49.695  12.988  22.640  0.00  0.00     0.137 A 
ATOM      5  C   UNL d   1     -47.992  11.942  23.313  0.00  0.00     0.043 A 
ATOM      6  C   UNL d   1     -47.615  12.612  23.010  0.00  0.00     0.102 A 
ATOM      7  N   UNL d   1     -50.339  12.499  22.829  0.00  0.00    -0.215 NA
ATOM      8  N   UNL d   1     -49.443  11.545  23.386  0.00  0.00    -0.222 NA
ATOM      9  C   UNL d   1     -50.207  11.781  23.200  0.00  0.00     0.200 A 
ATOM     10  C   UNL d   1     -47.545  11.335  23.657  0.00  0.00     0.004 A 
ATOM     11  C   UNL d   1     -46.792  12.681  23.048  0.00  0.00     0.025 A 
ATOM     12  C   UNL d   1     -46.721  11.404  23.695  0.00  0.00     0.000 A 
ATOM     13  C   UNL d   1     -46.350  12.073  23.391  0.00  0.00     0.002 A 
ENDROOT
BRANCH   4  14
ATOM     14  S   UNL d   1     -49.834  13.715  22.263  0.00  0.00    -0.066 SA
BRANCH  14  15
ATOM     15  C   UNL d   1     -50.607  13.998  22.195  0.00  0.00     0.031 C 
ATOM     16  C   UNL d   1     -51.062  13.805  21.536  0.00  0.00     0.007 C 
ATOM     17  C   UNL d   1     -50.921  14.472  22.787  0.00  0.00     0.007 C 
ENDBRANCH  14  15
ENDBRANCH   4  14
TORSDOF 2
ENDMDL
