MODEL 1
REMARK VINA RESULT:      -5.4      0.000      0.000
REMARK  6 active torsions:
REMARK  status: ('A' for Active; 'I' for Inactive)
REMARK    1  A    between atoms: C_3  and  C_1 
REMARK    2  A    between atoms: C_5  and  C_1 
REMARK    3  A    between atoms: C_2  and  C_5 
REMARK    4  A    between atoms: C_4  and  C_2 
REMARK    5  A    between atoms: C_8  and  C_3 
REMARK    6  A    between atoms: C_7  and  C_4 
ROOT
ATOM      1  C   UNL d   1     -41.486-123.081 -51.772  0.00  0.00     0.196 C 
ATOM      2  O   UNL d   1     -41.123-123.817 -51.911  0.00  0.00    -0.287 OA
ENDROOT
BRANCH   1   3
ATOM      3  C   UNL d   1     -41.700-122.866 -51.010  0.00  0.00     0.042 C 
BRANCH   3   4
ATOM      4  C   UNL d   1     -41.896-123.434 -50.444  0.00  0.00     0.003 C 
BRANCH   4   5
ATOM      5  C   UNL d   1     -42.005-123.234 -49.619  0.00  0.00     0.000 A 
ATOM      6  C   UNL d   1     -41.405-123.368 -49.068  0.00  0.00     0.002 A 
ATOM      7  C   UNL d   1     -41.517-123.175 -48.283  0.00  0.00     0.030 A 
ATOM      8  C   UNL d   1     -42.229-122.847 -48.043  0.00  0.00     0.140 A 
ATOM      9  C   UNL d   1     -42.829-122.713 -48.593  0.00  0.00     0.030 A 
ATOM     10  F   UNL d   1     -42.354-122.645 -47.242  0.00  0.00    -0.204 F 
ATOM     11  C   UNL d   1     -42.735-122.904 -49.401  0.00  0.00     0.002 A 
ENDBRANCH   4   5
ENDBRANCH   3   4
ENDBRANCH   1   3
BRANCH   1  12
ATOM     12  C   UNL d   1     -41.630-122.570 -52.392  0.00  0.00     0.042 C 
BRANCH  12  13
ATOM     13  C   UNL d   1     -41.170-122.606 -53.076  0.00  0.00     0.003 C 
BRANCH  13  14
ATOM     14  C   UNL d   1     -41.516-122.412 -53.819  0.00  0.00     0.000 A 
ATOM     15  C   UNL d   1     -41.894-121.676 -53.893  0.00  0.00     0.002 A 
ATOM     16  C   UNL d   1     -42.235-121.475 -54.613  0.00  0.00     0.030 A 
ATOM     17  C   UNL d   1     -42.198-122.008 -55.256  0.00  0.00     0.140 A 
ATOM     18  C   UNL d   1     -41.817-122.739 -55.164  0.00  0.00     0.030 A 
ATOM     19  F   UNL d   1     -42.547-121.792 -55.975  0.00  0.00    -0.204 F 
ATOM     20  C   UNL d   1     -41.475-122.940 -54.443  0.00  0.00     0.002 A 
ENDBRANCH  13  14
ENDBRANCH  12  13
ENDBRANCH   1  12
TORSDOF 6
ENDMDL
