MODEL 1
REMARK VINA RESULT:      -7.5      0.000      0.000
REMARK  4 active torsions:
REMARK  status: ('A' for Active; 'I' for Inactive)
REMARK    1  A    between atoms: C_2  and  S_1 
REMARK    2  A    between atoms: C_5  and  S_1 
REMARK    3  A    between atoms: C_7  and  C_5 
REMARK       I    between atoms: N_9  and  C_7 
REMARK    4  A    between atoms: C_8  and  N_9 
ROOT
ATOM      1  S   UNL d   1     -46.817  13.446  22.729  0.00  0.00     0.217 S 
ATOM      2  O   UNL d   1     -46.520  13.916  23.346  0.00  0.00    -0.217 OA
ATOM      3  O   UNL d   1     -47.115  12.974  22.110  0.00  0.00    -0.217 OA
ENDROOT
BRANCH   1   4
ATOM      4  C   UNL d   1     -46.221  12.889  22.862  0.00  0.00     0.109 A 
ATOM      5  C   UNL d   1     -46.248  12.269  23.404  0.00  0.00     0.110 A 
ATOM      6  N   UNL d   1     -45.541  11.853  23.354  0.00  0.00    -0.243 NA
ATOM      7  C   UNL d   1     -45.074  12.218  22.777  0.00  0.00     0.082 A 
ATOM      8  C   UNL d   1     -45.498  12.855  22.478  0.00  0.00     0.030 A 
ATOM      9  C   UNL d   1     -44.318  12.048  22.491  0.00  0.00     0.019 A 
ATOM     10  C   UNL d   1     -45.169  13.330  21.887  0.00  0.00     0.002 A 
ATOM     11  C   UNL d   1     -44.415  13.161  21.601  0.00  0.00     0.000 A 
ATOM     12  C   UNL d   1     -43.994  12.524  21.902  0.00  0.00     0.002 A 
ENDBRANCH   1   4
BRANCH   1  13
ATOM     13  C   UNL d   1     -47.425  14.007  22.589  0.00  0.00     0.161 C 
BRANCH  13  14
ATOM     14  C   UNL d   1     -48.175  13.881  22.917  0.00  0.00     0.291 C 
ATOM     15  N   UNL d   1     -48.810  14.335  22.650  0.00  0.00    -0.207 NA
ATOM     16  O   UNL d   1     -48.289  13.316  23.498  0.00  0.00    -0.264 OA
BRANCH  15  17
ATOM     17  C   UNL d   1     -49.562  14.212  22.974  0.00  0.00     0.085 A 
ATOM     18  C   UNL d   1     -49.980  14.847  23.293  0.00  0.00     0.018 A 
ATOM     19  C   UNL d   1     -50.730  14.734  23.619  0.00  0.00     0.002 A 
ATOM     20  C   UNL d   1     -49.641  15.609  23.285  0.00  0.00     0.002 C 
ATOM     21  C   UNL d   1     -51.063  13.982  23.626  0.00  0.00     0.000 A 
ATOM     22  C   UNL d   1     -50.650  13.342  23.309  0.00  0.00     0.002 A 
ATOM     23  C   UNL d   1     -49.899  13.460  22.983  0.00  0.00     0.019 A 
ATOM     24  C   UNL d   1     -50.984  12.571  23.312  0.00  0.00     0.000 C 
ENDBRANCH  15  17
ENDBRANCH  13  14
ENDBRANCH   1  13
TORSDOF 4
ENDMDL
MODEL 2
REMARK VINA RESULT:      -6.3      0.949      4.847
REMARK  4 active torsions:
REMARK  status: ('A' for Active; 'I' for Inactive)
REMARK    1  A    between atoms: C_2  and  S_1 
REMARK    2  A    between atoms: C_5  and  S_1 
REMARK    3  A    between atoms: C_7  and  C_5 
REMARK       I    between atoms: N_9  and  C_7 
REMARK    4  A    between atoms: C_8  and  N_9 
ROOT
ATOM      1  S   UNL d   1     -47.215  13.624  22.711  0.00  0.00     0.217 S 
ATOM      2  O   UNL d   1     -47.380  13.305  21.962  0.00  0.00    -0.217 OA
ATOM      3  O   UNL d   1     -47.051  13.945  23.463  0.00  0.00    -0.217 OA
ENDROOT
BRANCH   1   4
ATOM      4  C   UNL d   1     -48.016  13.573  22.912  0.00  0.00     0.109 A 
ATOM      5  C   UNL d   1     -48.398  12.908  23.215  0.00  0.00     0.110 A 
ATOM      6  N   UNL d   1     -49.187  13.099  23.335  0.00  0.00    -0.243 NA
ATOM      7  C   UNL d   1     -49.295  13.886  23.105  0.00  0.00     0.082 A 
ATOM      8  C   UNL d   1     -48.570  14.172  22.846  0.00  0.00     0.030 A 
ATOM      9  C   UNL d   1     -49.962  14.374  23.101  0.00  0.00     0.019 A 
ATOM     10  C   UNL d   1     -48.504  14.951  22.578  0.00  0.00     0.002 A 
ATOM     11  C   UNL d   1     -49.169  15.438  22.574  0.00  0.00     0.000 A 
ATOM     12  C   UNL d   1     -49.892  15.150  22.833  0.00  0.00     0.002 A 
ENDBRANCH   1   4
BRANCH   1  13
ATOM     13  C   UNL d   1     -46.402  13.680  22.514  0.00  0.00     0.161 C 
BRANCH  13  14
ATOM     14  C   UNL d   1     -45.881  13.092  22.777  0.00  0.00     0.291 C 
ATOM     15  N   UNL d   1     -45.367  12.740  22.235  0.00  0.00    -0.207 NA
ATOM     16  O   UNL d   1     -45.872  12.860  23.562  0.00  0.00    -0.264 OA
BRANCH  15  17
ATOM     17  C   UNL d   1     -44.845  12.153  22.494  0.00  0.00     0.085 A 
ATOM     18  C   UNL d   1     -44.050  12.189  22.283  0.00  0.00     0.018 A 
ATOM     19  C   UNL d   1     -43.521  11.607  22.536  0.00  0.00     0.002 A 
ATOM     20  C   UNL d   1     -43.776  12.819  21.810  0.00  0.00     0.002 C 
ATOM     21  C   UNL d   1     -43.791  10.985  23.003  0.00  0.00     0.000 A 
ATOM     22  C   UNL d   1     -44.586  10.943  23.218  0.00  0.00     0.002 A 
ATOM     23  C   UNL d   1     -45.112  11.528  22.962  0.00  0.00     0.019 A 
ATOM     24  C   UNL d   1     -44.869  10.312  23.694  0.00  0.00     0.000 C 
ENDBRANCH  15  17
ENDBRANCH  13  14
ENDBRANCH   1  13
TORSDOF 4
ENDMDL
MODEL 3
REMARK VINA RESULT:      -6.0      1.002      4.797
REMARK  4 active torsions:
REMARK  status: ('A' for Active; 'I' for Inactive)
REMARK    1  A    between atoms: C_2  and  S_1 
REMARK    2  A    between atoms: C_5  and  S_1 
REMARK    3  A    between atoms: C_7  and  C_5 
REMARK       I    between atoms: N_9  and  C_7 
REMARK    4  A    between atoms: C_8  and  N_9 
ROOT
ATOM      1  S   UNL d   1     -48.262  13.983  22.594  0.00  0.00     0.217 S 
ATOM      2  O   UNL d   1     -48.149  14.227  21.808  0.00  0.00    -0.217 OA
ATOM      3  O   UNL d   1     -48.377  13.739  23.383  0.00  0.00    -0.217 OA
ENDROOT
BRANCH   1   4
ATOM      4  C   UNL d   1     -49.078  13.938  22.466  0.00  0.00     0.109 A 
ATOM      5  C   UNL d   1     -49.470  13.353  22.038  0.00  0.00     0.110 A 
ATOM      6  N   UNL d   1     -50.273  13.522  22.050  0.00  0.00    -0.243 NA
ATOM      7  C   UNL d   1     -50.380  14.216  22.488  0.00  0.00     0.082 A 
ATOM      8  C   UNL d   1     -49.640  14.467  22.741  0.00  0.00     0.030 A 
ATOM      9  C   UNL d   1     -51.057  14.646  22.685  0.00  0.00     0.019 A 
ATOM     10  C   UNL d   1     -49.569  15.153  23.196  0.00  0.00     0.002 A 
ATOM     11  C   UNL d   1     -50.245  15.583  23.393  0.00  0.00     0.000 A 
ATOM     12  C   UNL d   1     -50.982  15.329  23.138  0.00  0.00     0.002 A 
ENDBRANCH   1   4
BRANCH   1  13
ATOM     13  C   UNL d   1     -47.436  14.027  22.732  0.00  0.00     0.161 C 
BRANCH  13  14
ATOM     14  C   UNL d   1     -46.982  13.335  22.691  0.00  0.00     0.291 C 
ATOM     15  N   UNL d   1     -46.212  13.343  22.988  0.00  0.00    -0.207 NA
ATOM     16  O   UNL d   1     -47.289  12.651  22.363  0.00  0.00    -0.264 OA
BRANCH  15  17
ATOM     17  C   UNL d   1     -45.755  12.654  22.949  0.00  0.00     0.085 A 
ATOM     18  C   UNL d   1     -45.053  12.651  22.519  0.00  0.00     0.018 A 
ATOM     19  C   UNL d   1     -44.590  11.968  22.475  0.00  0.00     0.002 A 
ATOM     20  C   UNL d   1     -44.807  13.344  22.124  0.00  0.00     0.002 C 
ATOM     21  C   UNL d   1     -44.832  11.285  22.865  0.00  0.00     0.000 A 
ATOM     22  C   UNL d   1     -45.534  11.282  23.297  0.00  0.00     0.002 A 
ATOM     23  C   UNL d   1     -45.995  11.968  23.339  0.00  0.00     0.019 A 
ATOM     24  C   UNL d   1     -45.788  10.588  23.698  0.00  0.00     0.000 C 
ENDBRANCH  15  17
ENDBRANCH  13  14
ENDBRANCH   1  13
TORSDOF 4
ENDMDL
MODEL 4
REMARK VINA RESULT:      -5.6      8.247      9.315
REMARK  4 active torsions:
REMARK  status: ('A' for Active; 'I' for Inactive)
REMARK    1  A    between atoms: C_2  and  S_1 
REMARK    2  A    between atoms: C_5  and  S_1 
REMARK    3  A    between atoms: C_7  and  C_5 
REMARK       I    between atoms: N_9  and  C_7 
REMARK    4  A    between atoms: C_8  and  N_9 
ROOT
ATOM      1  S   UNL d   1     -40.387  14.968  19.028  0.00  0.00     0.217 S 
ATOM      2  O   UNL d   1     -40.760  14.229  18.952  0.00  0.00    -0.217 OA
ATOM      3  O   UNL d   1     -40.013  15.709  19.103  0.00  0.00    -0.217 OA
ENDROOT
BRANCH   1   4
ATOM      4  C   UNL d   1     -40.231  14.975  18.216  0.00  0.00     0.109 A 
ATOM      5  C   UNL d   1     -39.551  14.686  17.850  0.00  0.00     0.110 A 
ATOM      6  N   UNL d   1     -39.626  14.804  17.041  0.00  0.00    -0.243 NA
ATOM      7  C   UNL d   1     -40.355  15.169  16.905  0.00  0.00     0.082 A 
ATOM      8  C   UNL d   1     -40.723  15.272  17.632  0.00  0.00     0.030 A 
ATOM      9  C   UNL d   1     -40.726  15.419  16.210  0.00  0.00     0.019 A 
ATOM     10  C   UNL d   1     -41.468  15.626  17.673  0.00  0.00     0.002 A 
ATOM     11  C   UNL d   1     -41.839  15.876  16.980  0.00  0.00     0.000 A 
ATOM     12  C   UNL d   1     -41.469  15.772  16.255  0.00  0.00     0.002 A 
ENDBRANCH   1   4
BRANCH   1  13
ATOM     13  C   UNL d   1     -40.543  14.966  19.852  0.00  0.00     0.161 C 
BRANCH  13  14
ATOM     14  C   UNL d   1     -39.924  14.810  20.380  0.00  0.00     0.291 C 
ATOM     15  N   UNL d   1     -40.089  14.766  21.188  0.00  0.00    -0.207 NA
ATOM     16  O   UNL d   1     -39.160  14.701  20.110  0.00  0.00    -0.264 OA
BRANCH  15  17
ATOM     17  C   UNL d   1     -39.474  14.611  21.719  0.00  0.00     0.085 A 
ATOM     18  C   UNL d   1     -39.295  15.155  22.311  0.00  0.00     0.018 A 
ATOM     19  C   UNL d   1     -38.683  15.009  22.846  0.00  0.00     0.002 A 
ATOM     20  C   UNL d   1     -39.736  15.861  22.370  0.00  0.00     0.002 C 
ATOM     21  C   UNL d   1     -38.248  14.312  22.787  0.00  0.00     0.000 A 
ATOM     22  C   UNL d   1     -38.422  13.763  22.197  0.00  0.00     0.002 A 
ATOM     23  C   UNL d   1     -39.035  13.914  21.664  0.00  0.00     0.019 A 
ATOM     24  C   UNL d   1     -37.982  13.050  22.132  0.00  0.00     0.000 C 
ENDBRANCH  15  17
ENDBRANCH  13  14
ENDBRANCH   1  13
TORSDOF 4
ENDMDL
MODEL 5
REMARK VINA RESULT:      -5.5      8.513      9.653
REMARK  4 active torsions:
REMARK  status: ('A' for Active; 'I' for Inactive)
REMARK    1  A    between atoms: C_2  and  S_1 
REMARK    2  A    between atoms: C_5  and  S_1 
REMARK    3  A    between atoms: C_7  and  C_5 
REMARK       I    between atoms: N_9  and  C_7 
REMARK    4  A    between atoms: C_8  and  N_9 
ROOT
ATOM      1  S   UNL d   1     -39.713  14.594  20.610  0.00  0.00     0.217 S 
ATOM      2  O   UNL d   1     -39.000  14.207  20.433  0.00  0.00    -0.217 OA
ATOM      3  O   UNL d   1     -40.429  14.983  20.788  0.00  0.00    -0.217 OA
ENDROOT
BRANCH   1   4
ATOM      4  C   UNL d   1     -39.369  14.928  21.283  0.00  0.00     0.109 A 
ATOM      5  C   UNL d   1     -39.171  15.722  21.384  0.00  0.00     0.110 A 
ATOM      6  N   UNL d   1     -38.844  15.811  22.132  0.00  0.00    -0.243 NA
ATOM      7  C   UNL d   1     -38.838  15.069  22.496  0.00  0.00     0.082 A 
ATOM      8  C   UNL d   1     -39.163  14.529  21.968  0.00  0.00     0.030 A 
ATOM      9  C   UNL d   1     -38.579  14.821  23.240  0.00  0.00     0.019 A 
ATOM     10  C   UNL d   1     -39.231  13.733  22.179  0.00  0.00     0.002 A 
ATOM     11  C   UNL d   1     -38.972  13.485  22.922  0.00  0.00     0.000 A 
ATOM     12  C   UNL d   1     -38.648  14.027  23.446  0.00  0.00     0.002 A 
ENDBRANCH   1   4
BRANCH   1  13
ATOM     13  C   UNL d   1     -40.069  14.259  19.928  0.00  0.00     0.161 C 
BRANCH  13  14
ATOM     14  C   UNL d   1     -39.837  14.525  19.179  0.00  0.00     0.291 C 
ATOM     15  N   UNL d   1     -39.806  13.985  18.554  0.00  0.00    -0.207 NA
ATOM     16  O   UNL d   1     -39.640  15.309  19.054  0.00  0.00    -0.264 OA
BRANCH  15  17
ATOM     17  C   UNL d   1     -39.575  14.246  17.804  0.00  0.00     0.085 A 
ATOM     18  C   UNL d   1     -39.040  13.802  17.361  0.00  0.00     0.018 A 
ATOM     19  C   UNL d   1     -38.804  14.054  16.611  0.00  0.00     0.002 A 
ATOM     20  C   UNL d   1     -38.736  13.091  17.675  0.00  0.00     0.002 C 
ATOM     21  C   UNL d   1     -39.105  14.755  16.303  0.00  0.00     0.000 A 
ATOM     22  C   UNL d   1     -39.640  15.205  16.740  0.00  0.00     0.002 A 
ATOM     23  C   UNL d   1     -39.874  14.948  17.491  0.00  0.00     0.019 A 
ATOM     24  C   UNL d   1     -39.951  15.922  16.432  0.00  0.00     0.000 C 
ENDBRANCH  15  17
ENDBRANCH  13  14
ENDBRANCH   1  13
TORSDOF 4
ENDMDL
