MODEL 1
REMARK VINA RESULT:      -8.0      0.000      0.000
REMARK  4 active torsions:
REMARK  status: ('A' for Active; 'I' for Inactive)
REMARK    1  A    between atoms: N_3  and  S_1 
REMARK    2  A    between atoms: C_4  and  S_1 
REMARK    3  A    between atoms: C_2  and  C_5 
REMARK    4  A    between atoms: C_8  and  N_3 
ROOT
ATOM      1  N   UNL d   1     -48.493  13.236  23.621  0.00  0.00    -0.158 NA
ENDROOT
BRANCH   1   2
ATOM      2  S   UNL d   1     -47.732  13.205  23.306  0.00  0.00     0.285 S 
ATOM      3  O   UNL d   1     -47.817  13.972  22.991  0.00  0.00    -0.198 OA
ATOM      4  O   UNL d   1     -47.647  12.447  23.617  0.00  0.00    -0.198 OA
BRANCH   2   5
ATOM      5  C   UNL d   1     -46.971  13.181  22.988  0.00  0.00     0.105 A 
ATOM      6  C   UNL d   1     -46.667  13.832  22.590  0.00  0.00     0.013 A 
ATOM      7  C   UNL d   1     -45.913  13.800  22.278  0.00  0.00     0.001 A 
ATOM      8  C   UNL d   1     -45.449  13.118  22.358  0.00  0.00     0.000 A 
ATOM      9  C   UNL d   1     -45.757  12.468  22.757  0.00  0.00     0.001 A 
ATOM     10  C   UNL d   1     -44.688  13.087  22.042  0.00  0.00     0.000 C 
ATOM     11  C   UNL d   1     -46.517  12.492  23.074  0.00  0.00     0.013 A 
ENDBRANCH   2   5
ENDBRANCH   1   2
BRANCH   1  12
ATOM     12  C   UNL d   1     -49.162  12.842  23.327  0.00  0.00     0.094 A 
ATOM     13  C   UNL d   1     -49.556  13.142  22.660  0.00  0.00     0.024 A 
ATOM     14  C   UNL d   1     -50.224  12.746  22.370  0.00  0.00     0.073 A 
ATOM     15  C   UNL d   1     -50.500  12.056  22.738  0.00  0.00     0.004 A 
ATOM     16  C   UNL d   1     -50.102  11.763  23.403  0.00  0.00     0.002 A 
ATOM     17  C   UNL d   1     -49.434  12.158  23.694  0.00  0.00     0.020 A 
BRANCH  14  18
ATOM     18  C   UNL d   1     -50.619  13.039  21.708  0.00  0.00     0.419 C 
ATOM     19  F   UNL d   1     -50.570  12.640  20.987  0.00  0.00    -0.166 F 
ATOM     20  F   UNL d   1     -51.063  13.728  21.761  0.00  0.00    -0.166 F 
ATOM     21  F   UNL d   1     -50.242  12.355  21.443  0.00  0.00    -0.166 F 
ENDBRANCH  14  18
ENDBRANCH   1  12
TORSDOF 4
ENDMDL
MODEL 2
REMARK VINA RESULT:      -7.7      2.147      4.071
REMARK  4 active torsions:
REMARK  status: ('A' for Active; 'I' for Inactive)
REMARK    1  A    between atoms: N_3  and  S_1 
REMARK    2  A    between atoms: C_4  and  S_1 
REMARK    3  A    between atoms: C_2  and  C_5 
REMARK    4  A    between atoms: C_8  and  N_3 
ROOT
ATOM      1  N   UNL d   1     -47.408  13.983  23.294  0.00  0.00    -0.158 NA
ENDROOT
BRANCH   1   2
ATOM      2  S   UNL d   1     -48.142  14.034  22.923  0.00  0.00     0.285 S 
ATOM      3  O   UNL d   1     -47.830  14.546  22.345  0.00  0.00    -0.198 OA
ATOM      4  O   UNL d   1     -48.452  13.527  23.494  0.00  0.00    -0.198 OA
BRANCH   2   5
ATOM      5  C   UNL d   1     -48.874  14.090  22.547  0.00  0.00     0.105 A 
ATOM      6  C   UNL d   1     -49.348  14.751  22.656  0.00  0.00     0.013 A 
ATOM      7  C   UNL d   1     -50.070  14.799  22.281  0.00  0.00     0.001 A 
ATOM      8  C   UNL d   1     -50.334  14.187  21.788  0.00  0.00     0.000 A 
ATOM      9  C   UNL d   1     -49.856  13.525  21.680  0.00  0.00     0.001 A 
ATOM     10  C   UNL d   1     -51.064  14.235  21.408  0.00  0.00     0.000 C 
ATOM     11  C   UNL d   1     -49.125  13.470  22.056  0.00  0.00     0.013 A 
ENDBRANCH   2   5
ENDBRANCH   1   2
BRANCH   1  12
ATOM     12  C   UNL d   1     -46.776  13.494  23.067  0.00  0.00     0.094 A 
ATOM     13  C   UNL d   1     -46.740  12.713  23.346  0.00  0.00     0.024 A 
ATOM     14  C   UNL d   1     -46.109  12.227  23.118  0.00  0.00     0.073 A 
ATOM     15  C   UNL d   1     -45.515  12.514  22.615  0.00  0.00     0.004 A 
ATOM     16  C   UNL d   1     -45.557  13.295  22.340  0.00  0.00     0.002 A 
ATOM     17  C   UNL d   1     -46.189  13.781  22.567  0.00  0.00     0.020 A 
BRANCH  14  18
ATOM     18  C   UNL d   1     -46.068  11.451  23.393  0.00  0.00     0.419 C 
ATOM     19  F   UNL d   1     -45.333  11.095  23.519  0.00  0.00    -0.166 F 
ATOM     20  F   UNL d   1     -46.755  11.027  23.543  0.00  0.00    -0.166 F 
ATOM     21  F   UNL d   1     -45.281  11.687  23.309  0.00  0.00    -0.166 F 
ENDBRANCH  14  18
ENDBRANCH   1  12
TORSDOF 4
ENDMDL
MODEL 3
REMARK VINA RESULT:      -7.5      2.388      4.349
REMARK  4 active torsions:
REMARK  status: ('A' for Active; 'I' for Inactive)
REMARK    1  A    between atoms: N_3  and  S_1 
REMARK    2  A    between atoms: C_4  and  S_1 
REMARK    3  A    between atoms: C_2  and  C_5 
REMARK    4  A    between atoms: C_8  and  N_3 
ROOT
ATOM      1  N   UNL d   1     -47.729  13.116  21.738  0.00  0.00    -0.158 NA
ENDROOT
BRANCH   1   2
ATOM      2  S   UNL d   1     -48.394  12.835  22.135  0.00  0.00     0.285 S 
ATOM      3  O   UNL d   1     -48.227  12.056  21.892  0.00  0.00    -0.198 OA
ATOM      4  O   UNL d   1     -48.560  13.606  22.376  0.00  0.00    -0.198 OA
BRANCH   2   5
ATOM      5  C   UNL d   1     -49.059  12.547  22.530  0.00  0.00     0.105 A 
ATOM      6  C   UNL d   1     -48.980  12.173  23.256  0.00  0.00     0.013 A 
ATOM      7  C   UNL d   1     -49.642  11.890  23.641  0.00  0.00     0.001 A 
ATOM      8  C   UNL d   1     -50.395  11.977  23.308  0.00  0.00     0.000 A 
ATOM      9  C   UNL d   1     -50.471  12.353  22.580  0.00  0.00     0.001 A 
ATOM     10  C   UNL d   1     -51.064  11.691  23.697  0.00  0.00     0.000 C 
ATOM     11  C   UNL d   1     -49.807  12.640  22.185  0.00  0.00     0.013 A 
ENDBRANCH   2   5
ENDBRANCH   1   2
BRANCH   1  12
ATOM     12  C   UNL d   1     -47.033  13.404  22.088  0.00  0.00     0.094 A 
ATOM     13  C   UNL d   1     -46.311  13.020  21.945  0.00  0.00     0.024 A 
ATOM     14  C   UNL d   1     -45.619  13.310  22.296  0.00  0.00     0.073 A 
ATOM     15  C   UNL d   1     -45.642  13.979  22.787  0.00  0.00     0.004 A 
ATOM     16  C   UNL d   1     -46.366  14.357  22.926  0.00  0.00     0.002 A 
ATOM     17  C   UNL d   1     -47.059  14.067  22.575  0.00  0.00     0.020 A 
BRANCH  14  18
ATOM     18  C   UNL d   1     -44.899  12.933  22.157  0.00  0.00     0.419 C 
ATOM     19  F   UNL d   1     -44.357  13.260  21.627  0.00  0.00    -0.166 F 
ATOM     20  F   UNL d   1     -44.716  12.232  22.544  0.00  0.00    -0.166 F 
ATOM     21  F   UNL d   1     -44.881  13.605  21.678  0.00  0.00    -0.166 F 
ENDBRANCH  14  18
ENDBRANCH   1  12
TORSDOF 4
ENDMDL
MODEL 4
REMARK VINA RESULT:      -6.6      9.258     10.744
REMARK  4 active torsions:
REMARK  status: ('A' for Active; 'I' for Inactive)
REMARK    1  A    between atoms: N_3  and  S_1 
REMARK    2  A    between atoms: C_4  and  S_1 
REMARK    3  A    between atoms: C_2  and  C_5 
REMARK    4  A    between atoms: C_8  and  N_3 
ROOT
ATOM      1  N   UNL d   1     -40.388  14.847  17.233  0.00  0.00    -0.158 NA
ENDROOT
BRANCH   1   2
ATOM      2  S   UNL d   1     -40.482  14.950  18.046  0.00  0.00     0.285 S 
ATOM      3  O   UNL d   1     -40.463  15.778  17.956  0.00  0.00    -0.198 OA
ATOM      4  O   UNL d   1     -40.502  14.131  18.135  0.00  0.00    -0.198 OA
BRANCH   2   5
ATOM      5  C   UNL d   1     -40.576  15.061  18.858  0.00  0.00     0.105 A 
ATOM      6  C   UNL d   1     -40.701  15.813  19.162  0.00  0.00     0.013 A 
ATOM      7  C   UNL d   1     -40.793  15.915  19.966  0.00  0.00     0.001 A 
ATOM      8  C   UNL d   1     -40.762  15.267  20.482  0.00  0.00     0.000 A 
ATOM      9  C   UNL d   1     -40.636  14.515  20.174  0.00  0.00     0.001 A 
ATOM     10  C   UNL d   1     -40.855  15.370  21.295  0.00  0.00     0.000 C 
ATOM     11  C   UNL d   1     -40.543  14.404  19.363  0.00  0.00     0.013 A 
ENDBRANCH   2   5
ENDBRANCH   1   2
BRANCH   1  12
ATOM     12  C   UNL d   1     -39.669  14.848  16.818  0.00  0.00     0.094 A 
ATOM     13  C   UNL d   1     -39.299  14.128  16.634  0.00  0.00     0.024 A 
ATOM     14  C   UNL d   1     -38.582  14.132  16.220  0.00  0.00     0.073 A 
ATOM     15  C   UNL d   1     -38.231  14.848  15.989  0.00  0.00     0.004 A 
ATOM     16  C   UNL d   1     -38.606  15.563  16.176  0.00  0.00     0.002 A 
ATOM     17  C   UNL d   1     -39.324  15.560  16.591  0.00  0.00     0.020 A 
BRANCH  14  18
ATOM     18  C   UNL d   1     -38.210  13.420  16.034  0.00  0.00     0.419 C 
ATOM     19  F   UNL d   1     -38.091  13.210  15.244  0.00  0.00    -0.166 F 
ATOM     20  F   UNL d   1     -37.957  12.916  16.631  0.00  0.00    -0.166 F 
ATOM     21  F   UNL d   1     -38.380  13.766  15.304  0.00  0.00    -0.166 F 
ENDBRANCH  14  18
ENDBRANCH   1  12
TORSDOF 4
ENDMDL
