MODEL 1
REMARK VINA RESULT:      20.3      0.000      0.000
REMARK  7 active torsions:
REMARK  status: ('A' for Active; 'I' for Inactive)
REMARK    1  A    between atoms: C_2  and  S_1 
REMARK    2  A    between atoms: N_3  and  S_1 
REMARK    3  A    between atoms: C_15  and  N_3 
REMARK    4  A    between atoms: C_6  and  C_16 
REMARK       I    between atoms: N_7  and  C_6 
REMARK    5  A    between atoms: C_8  and  N_7 
REMARK    6  A    between atoms: C_17  and  C_15 
REMARK    7  A    between atoms: C_16  and  C_17 
ROOT
ATOM      1  N   UNL d   1      14.390  12.202  -1.187  0.00  0.00    -0.228 N 
ATOM      2  C   UNL d   1      13.925  11.785  -0.640  0.00  0.00     0.111 C 
ENDROOT
BRANCH   1   3
ATOM      3  S   UNL d   1      15.109  12.531  -0.949  0.00  0.00     0.271 S 
ATOM      4  O   UNL d   1      15.787  12.064  -0.945  0.00  0.00    -0.200 OA
ATOM      5  O   UNL d   1      14.431  13.005  -0.951  0.00  0.00    -0.200 OA
BRANCH   3   6
ATOM      6  C   UNL d   1      15.143  13.330  -0.716  0.00  0.00     0.104 A 
ATOM      7  C   UNL d   1      15.779  13.582  -0.254  0.00  0.00     0.013 A 
ATOM      8  C   UNL d   1      15.812  14.375  -0.023  0.00  0.00     0.001 A 
ATOM      9  C   UNL d   1      15.218  14.903  -0.251  0.00  0.00     0.000 A 
ATOM     10  C   UNL d   1      14.588  14.636  -0.712  0.00  0.00     0.001 A 
ATOM     11  C   UNL d   1      15.258  15.692  -0.016  0.00  0.00     0.000 C 
ATOM     12  C   UNL d   1      14.551  13.845  -0.945  0.00  0.00     0.013 A 
ENDBRANCH   3   6
ENDBRANCH   1   3
BRANCH   1  13
ATOM     13  C   UNL d   1      14.130  12.288  -1.965  0.00  0.00     0.092 C 
BRANCH  13  14
ATOM     14  C   UNL d   1      13.558  11.780  -2.266  0.00  0.00     0.025 C 
BRANCH  14  15
ATOM     15  C   UNL d   1      12.971  12.070  -2.769  0.00  0.00     0.064 C 
BRANCH  15  16
ATOM     16  C   UNL d   1      13.163  12.298  -3.538  0.00  0.00     0.275 C 
ATOM     17  N   UNL d   1      12.942  13.044  -3.814  0.00  0.00    -0.238 NA
ATOM     18  O   UNL d   1      13.571  11.789  -4.031  0.00  0.00    -0.266 OA
BRANCH  17  19
ATOM     19  C   UNL d   1      13.131  13.279  -4.583  0.00  0.00     0.088 C 
ATOM     20  C   UNL d   1      13.305  12.715  -5.160  0.00  0.00     0.025 C 
ATOM     21  C   UNL d   1      13.144  14.081  -4.770  0.00  0.00     0.025 C 
ATOM     22  C   UNL d   1      13.062  12.554  -4.194  0.00  0.00     0.025 C 
ENDBRANCH  17  19
ENDBRANCH  15  16
ENDBRANCH  14  15
ENDBRANCH  13  14
ENDBRANCH   1  13
TORSDOF 7
ENDMDL
MODEL 2
REMARK VINA RESULT:      23.0      1.472      4.073
REMARK  7 active torsions:
REMARK  status: ('A' for Active; 'I' for Inactive)
REMARK    1  A    between atoms: C_2  and  S_1 
REMARK    2  A    between atoms: N_3  and  S_1 
REMARK    3  A    between atoms: C_15  and  N_3 
REMARK    4  A    between atoms: C_6  and  C_16 
REMARK       I    between atoms: N_7  and  C_6 
REMARK    5  A    between atoms: C_8  and  N_7 
REMARK    6  A    between atoms: C_17  and  C_15 
REMARK    7  A    between atoms: C_16  and  C_17 
ROOT
ATOM      1  N   UNL d   1      15.018  12.702  -0.610  0.00  0.00    -0.228 N 
ATOM      2  C   UNL d   1      15.775  12.495  -0.879  0.00  0.00     0.111 C 
ENDROOT
BRANCH   1   3
ATOM      3  S   UNL d   1      14.381  12.192  -0.740  0.00  0.00     0.271 S 
ATOM      4  O   UNL d   1      14.054  11.781  -0.107  0.00  0.00    -0.200 OA
ATOM      5  O   UNL d   1      14.706  12.603  -1.381  0.00  0.00    -0.200 OA
BRANCH   3   6
ATOM      6  C   UNL d   1      14.077  12.099  -1.509  0.00  0.00     0.104 A 
ATOM      7  C   UNL d   1      14.575  12.235  -2.153  0.00  0.00     0.013 A 
ATOM      8  C   UNL d   1      14.273  12.142  -2.916  0.00  0.00     0.001 A 
ATOM      9  C   UNL d   1      13.486  11.917  -3.031  0.00  0.00     0.000 A 
ATOM     10  C   UNL d   1      12.999  11.784  -2.378  0.00  0.00     0.001 A 
ATOM     11  C   UNL d   1      13.191  11.826  -3.796  0.00  0.00     0.000 C 
ATOM     12  C   UNL d   1      13.297  11.876  -1.614  0.00  0.00     0.013 A 
ENDBRANCH   3   6
ENDBRANCH   1   3
BRANCH   1  13
ATOM     13  C   UNL d   1      14.905  13.417  -0.213  0.00  0.00     0.092 C 
BRANCH  13  14
ATOM     14  C   UNL d   1      15.371  14.069  -0.398  0.00  0.00     0.025 C 
BRANCH  14  15
ATOM     15  C   UNL d   1      15.160  14.818  -0.126  0.00  0.00     0.064 C 
BRANCH  15  16
ATOM     16  C   UNL d   1      15.556  15.485  -0.404  0.00  0.00     0.275 C 
ATOM     17  N   UNL d   1      15.146  16.193  -0.516  0.00  0.00    -0.238 NA
ATOM     18  O   UNL d   1      16.356  15.452  -0.572  0.00  0.00    -0.266 OA
BRANCH  17  19
ATOM     19  C   UNL d   1      15.537  16.865  -0.796  0.00  0.00     0.088 C 
ATOM     20  C   UNL d   1      15.399  17.138  -1.563  0.00  0.00     0.025 C 
ATOM     21  C   UNL d   1      16.065  17.260  -0.303  0.00  0.00     0.025 C 
ATOM     22  C   UNL d   1      14.986  16.336  -1.110  0.00  0.00     0.025 C 
ENDBRANCH  17  19
ENDBRANCH  15  16
ENDBRANCH  14  15
ENDBRANCH  13  14
ENDBRANCH   1  13
TORSDOF 7
ENDMDL
