MODEL 1
REMARK VINA RESULT:      -5.9      0.000      0.000
REMARK  2 active torsions:
REMARK  status: ('A' for Active; 'I' for Inactive)
REMARK    1  A    between atoms: C_6  and  C_1 
REMARK    2  A    between atoms: C_8  and  C_5 
ROOT
ATOM      1  C   UNL d   1      57.754  -0.144  30.572  0.00  0.00     0.169 A 
ATOM      2  C   UNL d   1      57.294   0.137  31.210  0.00  0.00     0.048 A 
ATOM      3  N   UNL d   1      57.152  -1.190  31.156  0.00  0.00    -0.148 NA
ATOM      4  N   UNL d   1      57.661  -0.970  30.544  0.00  0.00    -0.142 NA
ATOM      5  C   UNL d   1      56.930  -0.496  31.563  0.00  0.00     0.105 A 
ENDROOT
BRANCH   5   6
ATOM      6  C   UNL d   1      56.438  -0.462  32.198  0.00  0.00     0.019 A 
ATOM      7  C   UNL d   1      56.185  -1.159  32.561  0.00  0.00     0.002 A 
ATOM      8  C   UNL d   1      55.680  -1.139  33.214  0.00  0.00     0.000 A 
ATOM      9  C   UNL d   1      55.431  -0.405  33.499  0.00  0.00     0.000 A 
ATOM     10  C   UNL d   1      55.679   0.301  33.142  0.00  0.00     0.000 A 
ATOM     11  C   UNL d   1      56.181   0.264  32.494  0.00  0.00     0.002 A 
ENDBRANCH   5   6
BRANCH   1  12
ATOM     12  C   UNL d   1      58.200   0.330  30.086  0.00  0.00     0.231 C 
ATOM     13  O   UNL d   1      58.956   0.533  30.254  0.00  0.00    -0.643 OA
ATOM     14  O   UNL d   1      57.883   0.626  29.386  0.00  0.00    -0.643 OA
ENDBRANCH   1  12
TORSDOF 2
ENDMDL
MODEL 2
REMARK VINA RESULT:      -5.1      2.439      3.488
REMARK  2 active torsions:
REMARK  status: ('A' for Active; 'I' for Inactive)
REMARK    1  A    between atoms: C_6  and  C_1 
REMARK    2  A    between atoms: C_8  and  C_5 
ROOT
ATOM      1  C   UNL d   1      55.529  -0.005  33.599  0.00  0.00     0.169 A 
ATOM      2  C   UNL d   1      56.045   0.327  33.032  0.00  0.00     0.048 A 
ATOM      3  N   UNL d   1      55.928  -0.977  32.765  0.00  0.00    -0.148 NA
ATOM      4  N   UNL d   1      55.461  -0.816  33.427  0.00  0.00    -0.142 NA
ATOM      5  C   UNL d   1      56.286  -0.261  32.528  0.00  0.00     0.105 A 
ENDROOT
BRANCH   5   6
ATOM      6  C   UNL d   1      56.785  -0.171  31.904  0.00  0.00     0.019 A 
ATOM      7  C   UNL d   1      57.054  -0.834  31.493  0.00  0.00     0.002 A 
ATOM      8  C   UNL d   1      57.568  -0.755  30.851  0.00  0.00     0.000 A 
ATOM      9  C   UNL d   1      57.808   0.002  30.625  0.00  0.00     0.000 A 
ATOM     10  C   UNL d   1      57.543   0.674  31.031  0.00  0.00     0.000 A 
ATOM     11  C   UNL d   1      57.034   0.580  31.668  0.00  0.00     0.002 A 
ENDBRANCH   5   6
BRANCH   1  12
ATOM     12  C   UNL d   1      55.175   0.415  34.197  0.00  0.00     0.231 C 
ATOM     13  O   UNL d   1      54.394   0.592  34.198  0.00  0.00    -0.643 OA
ATOM     14  O   UNL d   1      55.616   0.682  34.838  0.00  0.00    -0.643 OA
ENDBRANCH   1  12
TORSDOF 2
ENDMDL
MODEL 3
REMARK VINA RESULT:      -4.6      1.980      3.375
REMARK  2 active torsions:
REMARK  status: ('A' for Active; 'I' for Inactive)
REMARK    1  A    between atoms: C_6  and  C_1 
REMARK    2  A    between atoms: C_8  and  C_5 
ROOT
ATOM      1  C   UNL d   1      56.587  -0.642  32.386  0.00  0.00     0.169 A 
ATOM      2  C   UNL d   1      56.789  -0.739  31.582  0.00  0.00     0.048 A 
ATOM      3  N   UNL d   1      57.562   0.228  32.085  0.00  0.00    -0.148 NA
ATOM      4  N   UNL d   1      57.071  -0.039  32.692  0.00  0.00    -0.142 NA
ATOM      5  C   UNL d   1      57.379  -0.213  31.399  0.00  0.00     0.105 A 
ENDROOT
BRANCH   5   6
ATOM      6  C   UNL d   1      57.730  -0.130  30.680  0.00  0.00     0.019 A 
ATOM      7  C   UNL d   1      58.111  -0.772  30.332  0.00  0.00     0.002 A 
ATOM      8  C   UNL d   1      58.475  -0.700  29.594  0.00  0.00     0.000 A 
ATOM      9  C   UNL d   1      58.451   0.030  29.210  0.00  0.00     0.000 A 
ATOM     10  C   UNL d   1      58.070   0.682  29.552  0.00  0.00     0.000 A 
ATOM     11  C   UNL d   1      57.713   0.595  30.285  0.00  0.00     0.002 A 
ENDBRANCH   5   6
BRANCH   1  12
ATOM     12  C   UNL d   1      56.015  -1.074  32.770  0.00  0.00     0.231 C 
ATOM     13  O   UNL d   1      56.116  -1.841  32.973  0.00  0.00    -0.643 OA
ATOM     14  O   UNL d   1      55.294  -0.729  32.968  0.00  0.00    -0.643 OA
ENDBRANCH   1  12
TORSDOF 2
ENDMDL
MODEL 4
REMARK VINA RESULT:      -3.7      8.509      9.189
REMARK  2 active torsions:
REMARK  status: ('A' for Active; 'I' for Inactive)
REMARK    1  A    between atoms: C_6  and  C_1 
REMARK    2  A    between atoms: C_8  and  C_5 
ROOT
ATOM      1  C   UNL d   1      60.338  -6.085  35.881  0.00  0.00     0.169 A 
ATOM      2  C   UNL d   1      60.597  -6.877  35.935  0.00  0.00     0.048 A 
ATOM      3  N   UNL d   1      59.271  -6.866  36.099  0.00  0.00    -0.148 NA
ATOM      4  N   UNL d   1      59.513  -6.085  35.983  0.00  0.00    -0.142 NA
ATOM      5  C   UNL d   1      59.951  -7.350  36.067  0.00  0.00     0.105 A 
ENDROOT
BRANCH   5   6
ATOM      6  C   UNL d   1      59.963  -8.149  36.153  0.00  0.00     0.019 A 
ATOM      7  C   UNL d   1      59.253  -8.568  36.204  0.00  0.00     0.002 A 
ATOM      8  C   UNL d   1      59.251  -9.389  36.293  0.00  0.00     0.000 A 
ATOM      9  C   UNL d   1      59.974  -9.786  36.330  0.00  0.00     0.000 A 
ATOM     10  C   UNL d   1      60.692  -9.375  36.279  0.00  0.00     0.000 A 
ATOM     11  C   UNL d   1      60.678  -8.559  36.192  0.00  0.00     0.002 A 
ENDBRANCH   5   6
BRANCH   1  12
ATOM     12  C   UNL d   1      60.830  -5.451  35.750  0.00  0.00     0.231 C 
ATOM     13  O   UNL d   1      61.045  -4.942  36.330  0.00  0.00    -0.643 OA
ATOM     14  O   UNL d   1      61.133  -5.305  34.999  0.00  0.00    -0.643 OA
ENDBRANCH   1  12
TORSDOF 2
ENDMDL
MODEL 5
REMARK VINA RESULT:      -3.4      8.876      9.646
REMARK  2 active torsions:
REMARK  status: ('A' for Active; 'I' for Inactive)
REMARK    1  A    between atoms: C_6  and  C_1 
REMARK    2  A    between atoms: C_8  and  C_5 
ROOT
ATOM      1  C   UNL d   1      59.945  -7.655  35.724  0.00  0.00     0.169 A 
ATOM      2  C   UNL d   1      59.773  -7.834  34.927  0.00  0.00     0.048 A 
ATOM      3  N   UNL d   1      60.183  -8.959  35.520  0.00  0.00    -0.148 NA
ATOM      4  N   UNL d   1      60.199  -8.358  36.087  0.00  0.00    -0.142 NA
ATOM      5  C   UNL d   1      59.917  -8.622  34.803  0.00  0.00     0.105 A 
ENDROOT
BRANCH   5   6
ATOM      6  C   UNL d   1      59.820  -9.015  34.108  0.00  0.00     0.019 A 
ATOM      7  C   UNL d   1      60.458  -9.100  33.592  0.00  0.00     0.002 A 
ATOM      8  C   UNL d   1      60.372  -9.501  32.875  0.00  0.00     0.000 A 
ATOM      9  C   UNL d   1      59.634  -9.818  32.684  0.00  0.00     0.000 A 
ATOM     10  C   UNL d   1      58.988  -9.739  33.196  0.00  0.00     0.000 A 
ATOM     11  C   UNL d   1      59.088  -9.337  33.904  0.00  0.00     0.002 A 
ENDBRANCH   5   6
BRANCH   1  12
ATOM     12  C   UNL d   1      59.867  -6.916  36.055  0.00  0.00     0.231 C 
ATOM     13  O   UNL d   1      59.156  -6.572  36.184  0.00  0.00    -0.643 OA
ATOM     14  O   UNL d   1      60.533  -6.485  36.274  0.00  0.00    -0.643 OA
ENDBRANCH   1  12
TORSDOF 2
ENDMDL
MODEL 6
REMARK VINA RESULT:      -3.3      1.481      2.125
REMARK  2 active torsions:
REMARK  status: ('A' for Active; 'I' for Inactive)
REMARK    1  A    between atoms: C_6  and  C_1 
REMARK    2  A    between atoms: C_8  and  C_5 
ROOT
ATOM      1  C   UNL d   1      59.221  -0.060  29.547  0.00  0.00     0.169 A 
ATOM      2  C   UNL d   1      58.828  -0.356  30.223  0.00  0.00     0.048 A 
ATOM      3  N   UNL d   1      58.124   0.681  29.760  0.00  0.00    -0.148 NA
ATOM      4  N   UNL d   1      58.778   0.584  29.265  0.00  0.00    -0.142 NA
ATOM      5  C   UNL d   1      58.165   0.092  30.351  0.00  0.00     0.105 A 
ENDROOT
BRANCH   5   6
ATOM      6  C   UNL d   1      57.634  -0.011  30.947  0.00  0.00     0.019 A 
ATOM      7  C   UNL d   1      57.454   0.617  31.451  0.00  0.00     0.002 A 
ATOM      8  C   UNL d   1      56.911   0.524  32.067  0.00  0.00     0.000 A 
ATOM      9  C   UNL d   1      56.551  -0.212  32.169  0.00  0.00     0.000 A 
ATOM     10  C   UNL d   1      56.725  -0.849  31.669  0.00  0.00     0.000 A 
ATOM     11  C   UNL d   1      57.267  -0.741  31.061  0.00  0.00     0.002 A 
ENDBRANCH   5   6
BRANCH   1  12
ATOM     12  C   UNL d   1      59.910  -0.369  29.247  0.00  0.00     0.231 C 
ATOM     13  O   UNL d   1      60.597  -0.374  29.657  0.00  0.00    -0.643 OA
ATOM     14  O   UNL d   1      59.927  -0.695  28.491  0.00  0.00    -0.643 OA
ENDBRANCH   1  12
TORSDOF 2
ENDMDL
MODEL 7
REMARK VINA RESULT:      -3.0      2.792      4.272
REMARK  2 active torsions:
REMARK  status: ('A' for Active; 'I' for Inactive)
REMARK    1  A    between atoms: C_6  and  C_1 
REMARK    2  A    between atoms: C_8  and  C_5 
ROOT
ATOM      1  C   UNL d   1      58.636  -0.301  29.597  0.00  0.00     0.169 A 
ATOM      2  C   UNL d   1      58.556  -1.133  29.593  0.00  0.00     0.048 A 
ATOM      3  N   UNL d   1      59.605  -0.817  28.828  0.00  0.00    -0.148 NA
ATOM      4  N   UNL d   1      59.290  -0.112  29.120  0.00  0.00    -0.142 NA
ATOM      5  C   UNL d   1      59.143  -1.445  29.127  0.00  0.00     0.105 A 
ENDROOT
BRANCH   5   6
ATOM      6  C   UNL d   1      59.259  -2.226  28.978  0.00  0.00     0.019 A 
ATOM      7  C   UNL d   1      58.666  -2.669  28.614  0.00  0.00     0.002 A 
ATOM      8  C   UNL d   1      58.773  -3.473  28.455  0.00  0.00     0.000 A 
ATOM      9  C   UNL d   1      59.488  -3.827  28.668  0.00  0.00     0.000 A 
ATOM     10  C   UNL d   1      60.090  -3.391  29.034  0.00  0.00     0.000 A 
ATOM     11  C   UNL d   1      59.969  -2.593  29.185  0.00  0.00     0.002 A 
ENDBRANCH   5   6
BRANCH   1  12
ATOM     12  C   UNL d   1      58.147   0.203  30.005  0.00  0.00     0.231 C 
ATOM     13  O   UNL d   1      58.207   0.321  30.795  0.00  0.00    -0.643 OA
ATOM     14  O   UNL d   1      57.557   0.622  29.612  0.00  0.00    -0.643 OA
ENDBRANCH   1  12
TORSDOF 2
ENDMDL
