MODEL 1
REMARK VINA RESULT:      -6.2      0.000      0.000
REMARK  6 active torsions:
REMARK  status: ('A' for Active; 'I' for Inactive)
REMARK       I    between atoms: N_3  and  C_1 
REMARK    1  A    between atoms: O_5  and  C_1 
REMARK    2  A    between atoms: C_6  and  C_2 
REMARK    3  A    between atoms: C_4  and  O_5 
REMARK    4  A    between atoms: C_7  and  C_6 
REMARK    5  A    between atoms: C_9  and  C_7 
REMARK    6  A    between atoms: C_8  and  C_9 
ROOT
ATOM      1  C   UNL d   1     -47.258  13.514  22.384  0.00  0.00     0.063 A 
ATOM      2  C   UNL d   1     -46.493  13.331  22.664  0.00  0.00     0.108 A 
ATOM      3  C   UNL d   1     -47.494  14.302  22.333  0.00  0.00     0.017 A 
ATOM      4  C   UNL d   1     -45.987  13.939  22.885  0.00  0.00     0.026 A 
ATOM      5  C   UNL d   1     -46.981  14.904  22.556  0.00  0.00     0.058 A 
ATOM      6  C   UNL d   1     -46.223  14.723  22.834  0.00  0.00     0.013 A 
ATOM      7 CL   UNL d   1     -47.220  15.693  22.504  0.00  0.00    -0.082 Cl
ENDROOT
BRANCH   1   8
ATOM      8  C   UNL d   1     -47.772  12.908  22.160  0.00  0.00     0.198 C 
ATOM      9  O   UNL d   1     -47.637  12.494  21.458  0.00  0.00    -0.286 OA
BRANCH   8  10
ATOM     10  C   UNL d   1     -48.416  12.717  22.635  0.00  0.00     0.043 C 
BRANCH  10  11
ATOM     11  C   UNL d   1     -48.994  12.196  22.359  0.00  0.00     0.010 C 
BRANCH  11  12
ATOM     12  C   UNL d   1     -49.701  12.093  22.784  0.00  0.00     0.030 A 
ATOM     13  S   UNL d   1     -49.791  11.625  23.461  0.00  0.00    -0.086 SA
ATOM     14  C   UNL d   1     -50.589  11.687  23.696  0.00  0.00     0.035 A 
ATOM     15  C   UNL d   1     -50.975  12.187  23.166  0.00  0.00     0.007 A 
ATOM     16  C   UNL d   1     -50.423  12.435  22.606  0.00  0.00     0.007 A 
ENDBRANCH  11  12
ENDBRANCH  10  11
ENDBRANCH   8  10
ENDBRANCH   1   8
BRANCH   2  17
ATOM     17  O   UNL d   1     -46.257  12.547  22.715  0.00  0.00    -0.259 OA
BRANCH  17  18
ATOM     18  C   UNL d   1     -45.452  12.360  22.688  0.00  0.00     0.378 C 
ATOM     19  N   UNL d   1     -45.181  11.653  23.014  0.00  0.00    -0.247 N 
ATOM     20  C   UNL d   1     -44.379  11.467  22.987  0.00  0.00     0.112 A 
ATOM     21  C   UNL d   1     -45.719  11.125  23.371  0.00  0.00     0.112 A 
ATOM     22  C   UNL d   1     -44.110  10.749  23.319  0.00  0.00     0.142 A 
ATOM     23  O   UNL d   1     -44.652  10.229  23.672  0.00  0.00    -0.300 OA
ATOM     24  C   UNL d   1     -45.456  10.420  23.697  0.00  0.00     0.142 A 
ATOM     25  O   UNL d   1     -44.910  12.880  22.336  0.00  0.00    -0.237 OA
ENDBRANCH  17  18
ENDBRANCH   2  17
TORSDOF 6
ENDMDL
MODEL 2
REMARK VINA RESULT:      -4.8      2.574      4.998
REMARK  6 active torsions:
REMARK  status: ('A' for Active; 'I' for Inactive)
REMARK       I    between atoms: N_3  and  C_1 
REMARK    1  A    between atoms: O_5  and  C_1 
REMARK    2  A    between atoms: C_6  and  C_2 
REMARK    3  A    between atoms: C_4  and  O_5 
REMARK    4  A    between atoms: C_7  and  C_6 
REMARK    5  A    between atoms: C_9  and  C_7 
REMARK    6  A    between atoms: C_8  and  C_9 
ROOT
ATOM      1  C   UNL d   1     -47.169  12.695  23.046  0.00  0.00     0.063 A 
ATOM      2  C   UNL d   1     -47.968  12.900  22.922  0.00  0.00     0.108 A 
ATOM      3  C   UNL d   1     -46.981  11.935  23.305  0.00  0.00     0.017 A 
ATOM      4  C   UNL d   1     -48.555  12.343  23.058  0.00  0.00     0.026 A 
ATOM      5  C   UNL d   1     -47.574  11.384  23.439  0.00  0.00     0.058 A 
ATOM      6  C   UNL d   1     -48.367  11.587  23.316  0.00  0.00     0.013 A 
ATOM      7 CL   UNL d   1     -47.383  10.623  23.698  0.00  0.00    -0.082 Cl
ENDROOT
BRANCH   1   8
ATOM      8  C   UNL d   1     -46.574  13.251  22.911  0.00  0.00     0.198 C 
ATOM      9  O   UNL d   1     -46.574  13.963  23.332  0.00  0.00    -0.286 OA
BRANCH   8  10
ATOM     10  C   UNL d   1     -45.983  13.097  22.359  0.00  0.00     0.043 C 
BRANCH  10  11
ATOM     11  C   UNL d   1     -45.226  13.407  22.466  0.00  0.00     0.010 C 
BRANCH  11  12
ATOM     12  C   UNL d   1     -44.582  13.094  22.042  0.00  0.00     0.030 A 
ATOM     13  S   UNL d   1     -44.267  13.410  21.345  0.00  0.00    -0.086 SA
ATOM     14  C   UNL d   1     -43.633  12.917  21.120  0.00  0.00     0.035 A 
ATOM     15  C   UNL d   1     -43.567  12.312  21.675  0.00  0.00     0.007 A 
ATOM     16  C   UNL d   1     -44.155  12.425  22.242  0.00  0.00     0.007 A 
ENDBRANCH  11  12
ENDBRANCH  10  11
ENDBRANCH   8  10
ENDBRANCH   1   8
BRANCH   2  17
ATOM     17  O   UNL d   1     -48.157  13.657  22.664  0.00  0.00    -0.259 OA
BRANCH  17  18
ATOM     18  C   UNL d   1     -48.859  13.782  22.245  0.00  0.00     0.378 C 
ATOM     19  N   UNL d   1     -49.345  14.421  22.434  0.00  0.00    -0.247 N 
ATOM     20  C   UNL d   1     -50.043  14.545  22.017  0.00  0.00     0.112 A 
ATOM     21  C   UNL d   1     -49.128  14.941  23.048  0.00  0.00     0.112 A 
ATOM     22  C   UNL d   1     -50.531  15.194  22.213  0.00  0.00     0.142 A 
ATOM     23  O   UNL d   1     -50.309  15.708  22.825  0.00  0.00    -0.300 OA
ATOM     24  C   UNL d   1     -49.607  15.580  23.241  0.00  0.00     0.142 A 
ATOM     25  O   UNL d   1     -49.082  13.269  21.633  0.00  0.00    -0.237 OA
ENDBRANCH  17  18
ENDBRANCH   2  17
TORSDOF 6
ENDMDL
MODEL 3
REMARK VINA RESULT:      -4.5      8.495      9.911
REMARK  6 active torsions:
REMARK  status: ('A' for Active; 'I' for Inactive)
REMARK       I    between atoms: N_3  and  C_1 
REMARK    1  A    between atoms: O_5  and  C_1 
REMARK    2  A    between atoms: C_6  and  C_2 
REMARK    3  A    between atoms: C_4  and  O_5 
REMARK    4  A    between atoms: C_7  and  C_6 
REMARK    5  A    between atoms: C_9  and  C_7 
REMARK    6  A    between atoms: C_8  and  C_9 
ROOT
ATOM      1  C   UNL d   1     -38.446  13.568  18.627  0.00  0.00     0.063 A 
ATOM      2  C   UNL d   1     -38.922  13.802  17.982  0.00  0.00     0.108 A 
ATOM      3  C   UNL d   1     -38.122  12.811  18.638  0.00  0.00     0.017 A 
ATOM      4  C   UNL d   1     -39.061  13.274  17.369  0.00  0.00     0.026 A 
ATOM      5  C   UNL d   1     -38.266  12.288  18.020  0.00  0.00     0.058 A 
ATOM      6  C   UNL d   1     -38.737  12.520  17.381  0.00  0.00     0.013 A 
ATOM      7 CL   UNL d   1     -37.940  11.529  18.034  0.00  0.00    -0.082 Cl
ENDROOT
BRANCH   1   8
ATOM      8  C   UNL d   1     -38.304  14.094  19.246  0.00  0.00     0.198 C 
ATOM      9  O   UNL d   1     -37.958  14.829  19.090  0.00  0.00    -0.286 OA
BRANCH   8  10
ATOM     10  C   UNL d   1     -38.504  13.889  20.017  0.00  0.00     0.043 C 
BRANCH  10  11
ATOM     11  C   UNL d   1     -38.484  14.456  20.616  0.00  0.00     0.010 C 
BRANCH  11  12
ATOM     12  C   UNL d   1     -38.640  14.239  21.403  0.00  0.00     0.030 A 
ATOM     13  S   UNL d   1     -38.116  14.324  22.039  0.00  0.00    -0.086 SA
ATOM     14  C   UNL d   1     -38.506  14.035  22.717  0.00  0.00     0.035 A 
ATOM     15  C   UNL d   1     -39.256  13.778  22.492  0.00  0.00     0.007 A 
ATOM     16  C   UNL d   1     -39.335  13.906  21.681  0.00  0.00     0.007 A 
ENDBRANCH  11  12
ENDBRANCH  10  11
ENDBRANCH   8  10
ENDBRANCH   1   8
BRANCH   2  17
ATOM     17  O   UNL d   1     -39.246  14.556  17.969  0.00  0.00    -0.259 OA
BRANCH  17  18
ATOM     18  C   UNL d   1     -39.575  14.847  17.269  0.00  0.00     0.378 C 
ATOM     19  N   UNL d   1     -40.319  15.205  17.279  0.00  0.00    -0.247 N 
ATOM     20  C   UNL d   1     -40.646  15.494  16.582  0.00  0.00     0.112 A 
ATOM     21  C   UNL d   1     -40.738  15.273  17.997  0.00  0.00     0.112 A 
ATOM     22  C   UNL d   1     -41.399  15.856  16.599  0.00  0.00     0.142 A 
ATOM     23  O   UNL d   1     -41.811  15.920  17.317  0.00  0.00    -0.300 OA
ATOM     24  C   UNL d   1     -41.478  15.628  18.014  0.00  0.00     0.142 A 
ATOM     25  O   UNL d   1     -39.165  14.783  16.551  0.00  0.00    -0.237 OA
ENDBRANCH  17  18
ENDBRANCH   2  17
TORSDOF 6
ENDMDL
MODEL 4
REMARK VINA RESULT:      -4.5      8.166      9.365
REMARK  6 active torsions:
REMARK  status: ('A' for Active; 'I' for Inactive)
REMARK       I    between atoms: N_3  and  C_1 
REMARK    1  A    between atoms: O_5  and  C_1 
REMARK    2  A    between atoms: C_6  and  C_2 
REMARK    3  A    between atoms: C_4  and  O_5 
REMARK    4  A    between atoms: C_7  and  C_6 
REMARK    5  A    between atoms: C_9  and  C_7 
REMARK    6  A    between atoms: C_8  and  C_9 
ROOT
ATOM      1  C   UNL d   1     -39.356  14.962  19.529  0.00  0.00     0.063 A 
ATOM      2  C   UNL d   1     -39.530  14.955  20.345  0.00  0.00     0.108 A 
ATOM      3  C   UNL d   1     -39.901  15.285  19.002  0.00  0.00     0.017 A 
ATOM      4  C   UNL d   1     -40.240  15.268  20.611  0.00  0.00     0.026 A 
ATOM      5  C   UNL d   1     -40.610  15.597  19.276  0.00  0.00     0.058 A 
ATOM      6  C   UNL d   1     -40.782  15.589  20.084  0.00  0.00     0.013 A 
ATOM      7 CL   UNL d   1     -41.154  15.920  18.744  0.00  0.00    -0.082 Cl
ENDROOT
BRANCH   1   8
ATOM      8  C   UNL d   1     -38.644  14.649  19.255  0.00  0.00     0.198 C 
ATOM      9  O   UNL d   1     -37.941  15.072  19.360  0.00  0.00    -0.286 OA
BRANCH   8  10
ATOM     10  C   UNL d   1     -38.632  13.917  18.880  0.00  0.00     0.043 C 
BRANCH  10  11
ATOM     11  C   UNL d   1     -37.974  13.689  18.436  0.00  0.00     0.010 C 
BRANCH  11  12
ATOM     12  C   UNL d   1     -37.966  12.954  18.047  0.00  0.00     0.030 A 
ATOM     13  S   UNL d   1     -37.983  12.214  18.418  0.00  0.00    -0.086 SA
ATOM     14  C   UNL d   1     -37.967  11.639  17.813  0.00  0.00     0.035 A 
ATOM     15  C   UNL d   1     -37.941  12.029  17.088  0.00  0.00     0.007 A 
ATOM     16  C   UNL d   1     -37.941  12.840  17.237  0.00  0.00     0.007 A 
ENDBRANCH  11  12
ENDBRANCH  10  11
ENDBRANCH   8  10
ENDBRANCH   1   8
BRANCH   2  17
ATOM     17  O   UNL d   1     -38.988  14.634  20.872  0.00  0.00    -0.259 OA
BRANCH  17  18
ATOM     18  C   UNL d   1     -39.020  14.846  21.671  0.00  0.00     0.378 C 
ATOM     19  N   UNL d   1     -38.758  14.320  22.249  0.00  0.00    -0.247 N 
ATOM     20  C   UNL d   1     -38.790  14.531  23.044  0.00  0.00     0.112 A 
ATOM     21  C   UNL d   1     -38.461  13.573  22.028  0.00  0.00     0.112 A 
ATOM     22  C   UNL d   1     -38.523  13.994  23.625  0.00  0.00     0.142 A 
ATOM     23  O   UNL d   1     -38.229  13.252  23.397  0.00  0.00    -0.300 OA
ATOM     24  C   UNL d   1     -38.198  13.044  22.598  0.00  0.00     0.142 A 
ATOM     25  O   UNL d   1     -39.315  15.587  21.899  0.00  0.00    -0.237 OA
ENDBRANCH  17  18
ENDBRANCH   2  17
TORSDOF 6
ENDMDL
MODEL 5
REMARK VINA RESULT:      -4.0      8.374      9.802
REMARK  6 active torsions:
REMARK  status: ('A' for Active; 'I' for Inactive)
REMARK       I    between atoms: N_3  and  C_1 
REMARK    1  A    between atoms: O_5  and  C_1 
REMARK    2  A    between atoms: C_6  and  C_2 
REMARK    3  A    between atoms: C_4  and  O_5 
REMARK    4  A    between atoms: C_7  and  C_6 
REMARK    5  A    between atoms: C_9  and  C_7 
REMARK    6  A    between atoms: C_8  and  C_9 
ROOT
ATOM      1  C   UNL d   1     -39.811  15.408  17.450  0.00  0.00     0.063 A 
ATOM      2  C   UNL d   1     -40.165  15.532  18.196  0.00  0.00     0.108 A 
ATOM      3  C   UNL d   1     -40.256  15.525  16.766  0.00  0.00     0.017 A 
ATOM      4  C   UNL d   1     -40.950  15.768  18.237  0.00  0.00     0.026 A 
ATOM      5  C   UNL d   1     -41.041  15.761  16.816  0.00  0.00     0.058 A 
ATOM      6  C   UNL d   1     -41.391  15.884  17.555  0.00  0.00     0.013 A 
ATOM      7 CL   UNL d   1     -41.484  15.877  16.129  0.00  0.00    -0.082 Cl
ENDROOT
BRANCH   1   8
ATOM      8  C   UNL d   1     -39.022  15.171  17.402  0.00  0.00     0.198 C 
ATOM      9  O   UNL d   1     -38.453  15.694  17.107  0.00  0.00    -0.286 OA
BRANCH   8  10
ATOM     10  C   UNL d   1     -38.802  14.416  17.645  0.00  0.00     0.043 C 
BRANCH  10  11
ATOM     11  C   UNL d   1     -38.141  14.050  17.313  0.00  0.00     0.010 C 
BRANCH  11  12
ATOM     12  C   UNL d   1     -38.064  13.222  17.340  0.00  0.00     0.030 A 
ATOM     13  S   UNL d   1     -38.014  12.723  16.682  0.00  0.00    -0.086 SA
ATOM     14  C   UNL d   1     -37.943  11.944  16.973  0.00  0.00     0.035 A 
ATOM     15  C   UNL d   1     -37.951  11.975  17.796  0.00  0.00     0.007 A 
ATOM     16  C   UNL d   1     -38.026  12.765  18.019  0.00  0.00     0.007 A 
ENDBRANCH  11  12
ENDBRANCH  10  11
ENDBRANCH   8  10
ENDBRANCH   1   8
BRANCH   2  17
ATOM     17  O   UNL d   1     -39.723  15.416  18.878  0.00  0.00    -0.259 OA
BRANCH  17  18
ATOM     18  C   UNL d   1     -40.109  15.336  19.605  0.00  0.00     0.378 C 
ATOM     19  N   UNL d   1     -39.708  15.502  20.306  0.00  0.00    -0.247 N 
ATOM     20  C   UNL d   1     -40.092  15.421  21.030  0.00  0.00     0.112 A 
ATOM     21  C   UNL d   1     -38.912  15.751  20.282  0.00  0.00     0.112 A 
ATOM     22  C   UNL d   1     -39.680  15.591  21.737  0.00  0.00     0.142 A 
ATOM     23  O   UNL d   1     -38.889  15.839  21.705  0.00  0.00    -0.300 OA
ATOM     24  C   UNL d   1     -38.507  15.918  20.976  0.00  0.00     0.142 A 
ATOM     25  O   UNL d   1     -40.900  15.088  19.638  0.00  0.00    -0.237 OA
ENDBRANCH  17  18
ENDBRANCH   2  17
TORSDOF 6
ENDMDL
MODEL 6
REMARK VINA RESULT:      -3.3      6.181      7.818
REMARK  6 active torsions:
REMARK  status: ('A' for Active; 'I' for Inactive)
REMARK       I    between atoms: N_3  and  C_1 
REMARK    1  A    between atoms: O_5  and  C_1 
REMARK    2  A    between atoms: C_6  and  C_2 
REMARK    3  A    between atoms: C_4  and  O_5 
REMARK    4  A    between atoms: C_7  and  C_6 
REMARK    5  A    between atoms: C_9  and  C_7 
REMARK    6  A    between atoms: C_8  and  C_9 
ROOT
ATOM      1  C   UNL d   1     -40.117  14.327  20.785  0.00  0.00     0.063 A 
ATOM      2  C   UNL d   1     -39.765  14.380  20.029  0.00  0.00     0.108 A 
ATOM      3  C   UNL d   1     -39.650  14.135  21.436  0.00  0.00     0.017 A 
ATOM      4  C   UNL d   1     -38.961  14.239  19.946  0.00  0.00     0.026 A 
ATOM      5  C   UNL d   1     -38.846  13.996  21.345  0.00  0.00     0.058 A 
ATOM      6  C   UNL d   1     -38.498  14.048  20.596  0.00  0.00     0.013 A 
ATOM      7 CL   UNL d   1     -38.381  13.803  22.000  0.00  0.00    -0.082 Cl
ENDROOT
BRANCH   1   8
ATOM      8  C   UNL d   1     -40.925  14.467  20.875  0.00  0.00     0.198 C 
ATOM      9  O   UNL d   1     -41.215  15.240  20.831  0.00  0.00    -0.286 OA
BRANCH   8  10
ATOM     10  C   UNL d   1     -41.441  13.840  21.008  0.00  0.00     0.043 C 
BRANCH  10  11
ATOM     11  C   UNL d   1     -42.243  13.983  21.138  0.00  0.00     0.010 C 
BRANCH  11  12
ATOM     12  C   UNL d   1     -42.752  13.358  21.338  0.00  0.00     0.030 A 
ATOM     13  S   UNL d   1     -43.558  13.315  21.151  0.00  0.00    -0.086 SA
ATOM     14  C   UNL d   1     -43.842  12.594  21.461  0.00  0.00     0.035 A 
ATOM     15  C   UNL d   1     -43.215  12.208  21.831  0.00  0.00     0.007 A 
ATOM     16  C   UNL d   1     -42.544  12.683  21.753  0.00  0.00     0.007 A 
ENDBRANCH  11  12
ENDBRANCH  10  11
ENDBRANCH   8  10
ENDBRANCH   1   8
BRANCH   2  17
ATOM     17  O   UNL d   1     -40.229  14.571  19.379  0.00  0.00    -0.259 OA
BRANCH  17  18
ATOM     18  C   UNL d   1     -39.963  14.383  18.619  0.00  0.00     0.378 C 
ATOM     19  N   UNL d   1     -40.212  14.830  17.972  0.00  0.00    -0.247 N 
ATOM     20  C   UNL d   1     -39.947  14.642  17.216  0.00  0.00     0.112 A 
ATOM     21  C   UNL d   1     -40.730  15.473  18.085  0.00  0.00     0.112 A 
ATOM     22  C   UNL d   1     -40.202  15.098  16.564  0.00  0.00     0.142 A 
ATOM     23  O   UNL d   1     -40.719  15.737  16.684  0.00  0.00    -0.300 OA
ATOM     24  C   UNL d   1     -40.981  15.922  17.445  0.00  0.00     0.142 A 
ATOM     25  O   UNL d   1     -39.447  13.745  18.499  0.00  0.00    -0.237 OA
ENDBRANCH  17  18
ENDBRANCH   2  17
TORSDOF 6
ENDMDL
