MODEL 1
REMARK VINA RESULT:      -1.9      0.000      0.000
REMARK  8 active torsions:
REMARK  status: ('A' for Active; 'I' for Inactive)
REMARK    1  A    between atoms: C_11  and  N_1 
REMARK    2  A    between atoms: S_7  and  C_2 
REMARK    3  A    between atoms: C_18  and  S_7 
REMARK    4  A    between atoms: C_8  and  C_10 
REMARK       I    between atoms: N_14  and  C_8 
REMARK    5  A    between atoms: C_13  and  C_11 
REMARK    6  A    between atoms: C_25  and  N_14 
REMARK    7  A    between atoms: C_19  and  C_18 
REMARK    8  A    between atoms: C_26  and  C_25 
ROOT
ATOM      1  N   UNL d   1      59.092  -1.607  29.587  0.00  0.00    -0.253 N 
ATOM      2  C   UNL d   1      58.739  -0.957  29.868  0.00  0.00     0.182 A 
ATOM      3  C   UNL d   1      59.795  -1.557  29.151  0.00  0.00     0.268 A 
ATOM      4  N   UNL d   1      59.061  -0.205  29.737  0.00  0.00    -0.222 NA
ATOM      5  C   UNL d   1      60.124  -0.832  29.013  0.00  0.00     0.074 A 
ATOM      6  C   UNL d   1      59.749  -0.142  29.312  0.00  0.00     0.088 A 
ATOM      7  O   UNL d   1      60.160  -2.229  28.860  0.00  0.00    -0.267 OA
ATOM      8  C   UNL d   1      60.815  -0.760  28.587  0.00  0.00     0.006 A 
ATOM      9  C   UNL d   1      60.081   0.593  29.174  0.00  0.00     0.019 A 
ATOM     10  C   UNL d   1      61.133  -0.010  28.458  0.00  0.00     0.000 A 
ATOM     11  C   UNL d   1      60.781   0.640  28.740  0.00  0.00     0.002 A 
ENDROOT
BRANCH   2  12
ATOM     12  S   UNL d   1      58.034  -1.028  30.303  0.00  0.00    -0.049 SA
BRANCH  12  13
ATOM     13  C   UNL d   1      57.578  -0.350  30.450  0.00  0.00     0.038 C 
BRANCH  13  14
ATOM     14  C   UNL d   1      57.104  -0.288  31.122  0.00  0.00     0.007 A 
ATOM     15  C   UNL d   1      56.638   0.403  31.224  0.00  0.00     0.001 A 
ATOM     16  C   UNL d   1      56.167   0.481  31.878  0.00  0.00     0.005 A 
ATOM     17  C   UNL d   1      56.143  -0.122  32.448  0.00  0.00     0.058 A 
ATOM     18  C   UNL d   1      56.600  -0.791  32.340  0.00  0.00     0.005 A 
ATOM     19  C   UNL d   1      57.073  -0.860  31.676  0.00  0.00     0.001 A 
BRANCH  17  20
ATOM     20  C   UNL d   1      55.662  -0.066  33.136  0.00  0.00     0.279 C 
ATOM     21  O   UNL d   1      54.827  -0.125  33.064  0.00  0.00    -0.265 OA
ATOM     22  N   UNL d   1      56.006   0.045  33.880  0.00  0.00    -0.203 NA
BRANCH  22  23
ATOM     23  C   UNL d   1      55.515   0.101  34.576  0.00  0.00     0.148 C 
BRANCH  23  24
ATOM     24  C   UNL d   1      55.694   0.620  35.171  0.00  0.00     0.255 C 
ATOM     25  O   UNL d   1      56.238   0.418  35.746  0.00  0.00    -0.281 OA
ENDBRANCH  23  24
ENDBRANCH  22  23
ENDBRANCH  17  20
ENDBRANCH  13  14
ENDBRANCH  12  13
ENDBRANCH   2  12
BRANCH   1  26
ATOM     26  C   UNL d   1      58.754  -2.356  29.728  0.00  0.00     0.085 C 
BRANCH  26  27
ATOM     27  C   UNL d   1      58.622  -2.862  29.077  0.00  0.00     0.019 C 
ATOM     28  C   UNL d   1      58.321  -3.626  29.194  0.00  0.00     0.002 C 
ENDBRANCH  26  27
ENDBRANCH   1  26
TORSDOF 8
ENDMDL
MODEL 2
REMARK VINA RESULT:      -1.6      1.424      6.207
REMARK  8 active torsions:
REMARK  status: ('A' for Active; 'I' for Inactive)
REMARK    1  A    between atoms: C_11  and  N_1 
REMARK    2  A    between atoms: S_7  and  C_2 
REMARK    3  A    between atoms: C_18  and  S_7 
REMARK    4  A    between atoms: C_8  and  C_10 
REMARK       I    between atoms: N_14  and  C_8 
REMARK    5  A    between atoms: C_13  and  C_11 
REMARK    6  A    between atoms: C_25  and  N_14 
REMARK    7  A    between atoms: C_19  and  C_18 
REMARK    8  A    between atoms: C_26  and  C_25 
ROOT
ATOM      1  N   UNL d   1      56.289   0.673  34.006  0.00  0.00    -0.253 N 
ATOM      2  C   UNL d   1      56.008   0.669  33.267  0.00  0.00     0.182 A 
ATOM      3  C   UNL d   1      55.777   0.677  34.658  0.00  0.00     0.268 A 
ATOM      4  N   UNL d   1      55.192   0.669  33.119  0.00  0.00    -0.222 NA
ATOM      5  C   UNL d   1      54.979   0.677  34.533  0.00  0.00     0.074 A 
ATOM      6  C   UNL d   1      54.680   0.673  33.748  0.00  0.00     0.088 A 
ATOM      7  O   UNL d   1      56.068   0.680  35.423  0.00  0.00    -0.267 OA
ATOM      8  C   UNL d   1      54.457   0.681  35.160  0.00  0.00     0.006 A 
ATOM      9  C   UNL d   1      53.872   0.674  33.620  0.00  0.00     0.019 A 
ATOM     10  C   UNL d   1      53.646   0.681  35.010  0.00  0.00     0.000 A 
ATOM     11  C   UNL d   1      53.365   0.678  34.270  0.00  0.00     0.002 A 
ENDROOT
BRANCH   2  12
ATOM     12  S   UNL d   1      56.538   0.665  32.626  0.00  0.00    -0.049 SA
BRANCH  12  13
ATOM     13  C   UNL d   1      56.434   0.110  32.017  0.00  0.00     0.038 C 
BRANCH  13  14
ATOM     14  C   UNL d   1      56.984   0.033  31.406  0.00  0.00     0.007 A 
ATOM     15  C   UNL d   1      57.255  -0.734  31.204  0.00  0.00     0.001 A 
ATOM     16  C   UNL d   1      57.795  -0.828  30.607  0.00  0.00     0.005 A 
ATOM     17  C   UNL d   1      58.080  -0.167  30.196  0.00  0.00     0.058 A 
ATOM     18  C   UNL d   1      57.810   0.578  30.400  0.00  0.00     0.005 A 
ATOM     19  C   UNL d   1      57.265   0.662  31.005  0.00  0.00     0.001 A 
BRANCH  17  20
ATOM     20  C   UNL d   1      58.641  -0.237  29.572  0.00  0.00     0.279 C 
ATOM     21  O   UNL d   1      58.769   0.413  29.056  0.00  0.00    -0.265 OA
ATOM     22  N   UNL d   1      59.064  -0.939  29.466  0.00  0.00    -0.203 NA
BRANCH  22  23
ATOM     23  C   UNL d   1      59.632  -1.007  28.832  0.00  0.00     0.148 C 
BRANCH  23  24
ATOM     24  C   UNL d   1      60.014  -1.706  28.689  0.00  0.00     0.255 C 
ATOM     25  O   UNL d   1      60.712  -1.883  29.076  0.00  0.00    -0.281 OA
ENDBRANCH  23  24
ENDBRANCH  22  23
ENDBRANCH  17  20
ENDBRANCH  13  14
ENDBRANCH  12  13
ENDBRANCH   2  12
BRANCH   1  26
ATOM     26  C   UNL d   1      57.112   0.672  34.138  0.00  0.00     0.085 C 
BRANCH  26  27
ATOM     27  C   UNL d   1      57.390   0.635  34.924  0.00  0.00     0.019 C 
ATOM     28  C   UNL d   1      58.204   0.627  35.081  0.00  0.00     0.002 C 
ENDBRANCH  26  27
ENDBRANCH   1  26
TORSDOF 8
ENDMDL
MODEL 3
REMARK VINA RESULT:       0.9      0.883      2.102
REMARK  8 active torsions:
REMARK  status: ('A' for Active; 'I' for Inactive)
REMARK    1  A    between atoms: C_11  and  N_1 
REMARK    2  A    between atoms: S_7  and  C_2 
REMARK    3  A    between atoms: C_18  and  S_7 
REMARK    4  A    between atoms: C_8  and  C_10 
REMARK       I    between atoms: N_14  and  C_8 
REMARK    5  A    between atoms: C_13  and  C_11 
REMARK    6  A    between atoms: C_25  and  N_14 
REMARK    7  A    between atoms: C_19  and  C_18 
REMARK    8  A    between atoms: C_26  and  C_25 
ROOT
ATOM      1  N   UNL d   1      59.802  -0.783  29.523  0.00  0.00    -0.253 N 
ATOM      2  C   UNL d   1      59.017  -0.753  29.615  0.00  0.00     0.182 A 
ATOM      3  C   UNL d   1      60.177  -1.481  29.279  0.00  0.00     0.268 A 
ATOM      4  N   UNL d   1      58.543  -1.417  29.471  0.00  0.00    -0.222 NA
ATOM      5  C   UNL d   1      59.731  -2.139  29.134  0.00  0.00     0.074 A 
ATOM      6  C   UNL d   1      58.897  -2.106  29.232  0.00  0.00     0.088 A 
ATOM      7  O   UNL d   1      60.989  -1.512  29.184  0.00  0.00    -0.267 OA
ATOM      8  C   UNL d   1      60.079  -2.835  28.893  0.00  0.00     0.006 A 
ATOM      9  C   UNL d   1      58.445  -2.772  29.085  0.00  0.00     0.019 A 
ATOM     10  C   UNL d   1      59.606  -3.495  28.750  0.00  0.00     0.000 A 
ATOM     11  C   UNL d   1      58.821  -3.465  28.842  0.00  0.00     0.002 A 
ENDROOT
BRANCH   2  12
ATOM     12  S   UNL d   1      58.659  -0.043  29.861  0.00  0.00    -0.049 SA
BRANCH  12  13
ATOM     13  C   UNL d   1      57.831  -0.001  29.909  0.00  0.00     0.038 C 
BRANCH  13  14
ATOM     14  C   UNL d   1      57.446   0.106  30.630  0.00  0.00     0.007 A 
ATOM     15  C   UNL d   1      56.745   0.566  30.648  0.00  0.00     0.001 A 
ATOM     16  C   UNL d   1      56.355   0.682  31.348  0.00  0.00     0.005 A 
ATOM     17  C   UNL d   1      56.647   0.346  32.048  0.00  0.00     0.058 A 
ATOM     18  C   UNL d   1      57.331  -0.100  32.021  0.00  0.00     0.005 A 
ATOM     19  C   UNL d   1      57.718  -0.211  31.309  0.00  0.00     0.001 A 
BRANCH  17  20
ATOM     20  C   UNL d   1      56.261   0.451  32.788  0.00  0.00     0.279 C 
ATOM     21  O   UNL d   1      55.424   0.513  32.814  0.00  0.00    -0.265 OA
ATOM     22  N   UNL d   1      56.700   0.493  33.488  0.00  0.00    -0.203 NA
BRANCH  22  23
ATOM     23  C   UNL d   1      56.305   0.600  34.237  0.00  0.00     0.148 C 
BRANCH  23  24
ATOM     24  C   UNL d   1      56.728   0.680  34.923  0.00  0.00     0.255 C 
ATOM     25  O   UNL d   1      56.409   0.439  35.636  0.00  0.00    -0.281 OA
ENDBRANCH  23  24
ENDBRANCH  22  23
ENDBRANCH  17  20
ENDBRANCH  13  14
ENDBRANCH  12  13
ENDBRANCH   2  12
BRANCH   1  26
ATOM     26  C   UNL d   1      60.264  -0.106  29.673  0.00  0.00     0.085 C 
BRANCH  26  27
ATOM     27  C   UNL d   1      60.920  -0.176  30.184  0.00  0.00     0.019 C 
ATOM     28  C   UNL d   1      61.131   0.451  30.684  0.00  0.00     0.002 C 
ENDBRANCH  26  27
ENDBRANCH   1  26
TORSDOF 8
ENDMDL
