MODEL 1
REMARK VINA RESULT:      -5.2      0.000      0.000
REMARK  6 active torsions:
REMARK  status: ('A' for Active; 'I' for Inactive)
REMARK    1  A    between atoms: N_5  and  C_1 
REMARK       I    between atoms: C_11  and  N_5 
REMARK    2  A    between atoms: C_22  and  C_7 
REMARK    3  A    between atoms: C_8  and  C_10 
REMARK    4  A    between atoms: C_20  and  C_11 
REMARK    5  A    between atoms: C_13  and  S_15 
REMARK    6  A    between atoms: S_15  and  C_20 
ROOT
ATOM      1  S   UNL d   1     -41.810-122.316 -51.048  0.00  0.00    -0.061 SA
ENDROOT
BRANCH   1   2
ATOM      2  C   UNL d   1     -41.880-122.585 -50.272  0.00  0.00     0.133 A 
ATOM      3  N   UNL d   1     -42.615-122.675 -49.928  0.00  0.00    -0.141 NA
ATOM      4  N   UNL d   1     -42.689-122.940 -49.159  0.00  0.00    -0.147 NA
ATOM      5  C   UNL d   1     -42.012-123.120 -48.725  0.00  0.00     0.109 A 
ATOM      6  C   UNL d   1     -41.266-123.031 -49.066  0.00  0.00     0.024 A 
ATOM      7  C   UNL d   1     -41.200-122.767 -49.830  0.00  0.00     0.029 A 
BRANCH   5   8
ATOM      8  C   UNL d   1     -42.079-123.387 -47.951  0.00  0.00     0.049 A 
ATOM      9  S   UNL d   1     -41.463-123.527 -47.426  0.00  0.00    -0.085 SA
ATOM     10  C   UNL d   1     -41.774-123.790 -46.712  0.00  0.00     0.035 A 
ATOM     11  C   UNL d   1     -42.604-123.814 -46.795  0.00  0.00     0.007 A 
ATOM     12  C   UNL d   1     -42.793-123.566 -47.559  0.00  0.00     0.009 A 
ENDBRANCH   5   8
ENDBRANCH   1   2
BRANCH   1  13
ATOM     13  C   UNL d   1     -41.777-122.849 -51.668  0.00  0.00     0.099 C 
BRANCH  13  14
ATOM     14  C   UNL d   1     -41.670-122.572 -52.438  0.00  0.00     0.288 C 
ATOM     15  N   UNL d   1     -41.826-123.066 -53.076  0.00  0.00    -0.181 NA
ATOM     16  O   UNL d   1     -41.409-121.806 -52.568  0.00  0.00    -0.265 OA
BRANCH  15  17
ATOM     17  C   UNL d   1     -41.721-122.796 -53.838  0.00  0.00     0.219 A 
ATOM     18  S   UNL d   1     -42.202-122.250 -54.231  0.00  0.00    -0.026 SA
ATOM     19  C   UNL d   1     -41.896-122.139 -54.979  0.00  0.00     0.135 A 
ATOM     20  N   UNL d   1     -41.228-122.611 -55.054  0.00  0.00    -0.139 NA
ATOM     21  N   UNL d   1     -41.125-123.012 -54.352  0.00  0.00    -0.121 NA
BRANCH  19  22
ATOM     22  C   UNL d   1     -42.203-121.639 -55.559  0.00  0.00     0.028 C 
ATOM     23  C   UNL d   1     -42.693-121.935 -56.142  0.00  0.00     0.002 C 
ENDBRANCH  19  22
ENDBRANCH  15  17
ENDBRANCH  13  14
ENDBRANCH   1  13
TORSDOF 6
ENDMDL
MODEL 2
REMARK VINA RESULT:      -5.1      1.117      6.027
REMARK  6 active torsions:
REMARK  status: ('A' for Active; 'I' for Inactive)
REMARK    1  A    between atoms: N_5  and  C_1 
REMARK       I    between atoms: C_11  and  N_5 
REMARK    2  A    between atoms: C_22  and  C_7 
REMARK    3  A    between atoms: C_8  and  C_10 
REMARK    4  A    between atoms: C_20  and  C_11 
REMARK    5  A    between atoms: C_13  and  S_15 
REMARK    6  A    between atoms: S_15  and  C_20 
ROOT
ATOM      1  S   UNL d   1     -41.280-122.486 -51.448  0.00  0.00    -0.061 SA
ENDROOT
BRANCH   1   2
ATOM      2  C   UNL d   1     -41.453-122.397 -52.249  0.00  0.00     0.133 A 
ATOM      3  N   UNL d   1     -41.832-121.727 -52.520  0.00  0.00    -0.141 NA
ATOM      4  N   UNL d   1     -42.005-121.634 -53.313  0.00  0.00    -0.147 NA
ATOM      5  C   UNL d   1     -41.793-122.225 -53.846  0.00  0.00     0.109 A 
ATOM      6  C   UNL d   1     -41.409-122.905 -53.580  0.00  0.00     0.024 A 
ATOM      7  C   UNL d   1     -41.241-122.990 -52.790  0.00  0.00     0.029 A 
BRANCH   5   8
ATOM      8  C   UNL d   1     -41.963-122.139 -54.645  0.00  0.00     0.049 A 
ATOM      9  S   UNL d   1     -41.422-122.022 -55.251  0.00  0.00    -0.085 SA
ATOM     10  C   UNL d   1     -41.827-121.964 -55.965  0.00  0.00     0.035 A 
ATOM     11  C   UNL d   1     -42.640-122.046 -55.797  0.00  0.00     0.007 A 
ATOM     12  C   UNL d   1     -42.726-122.154 -54.983  0.00  0.00     0.009 A 
ENDBRANCH   5   8
ENDBRANCH   1   2
BRANCH   1  13
ATOM     13  C   UNL d   1     -41.815-122.853 -50.949  0.00  0.00     0.099 C 
BRANCH  13  14
ATOM     14  C   UNL d   1     -41.676-122.857 -50.135  0.00  0.00     0.288 C 
ATOM     15  N   UNL d   1     -41.986-123.459 -49.670  0.00  0.00    -0.181 NA
ATOM     16  O   UNL d   1     -41.231-122.262 -49.790  0.00  0.00    -0.265 OA
BRANCH  15  17
ATOM     17  C   UNL d   1     -41.850-123.467 -48.866  0.00  0.00     0.219 A 
ATOM     18  S   UNL d   1     -42.429-123.458 -48.275  0.00  0.00    -0.026 SA
ATOM     19  C   UNL d   1     -42.050-123.469 -47.553  0.00  0.00     0.135 A 
ATOM     20  N   UNL d   1     -41.241-123.485 -47.690  0.00  0.00    -0.139 NA
ATOM     21  N   UNL d   1     -41.123-123.483 -48.497  0.00  0.00    -0.121 NA
BRANCH  19  22
ATOM     22  C   UNL d   1     -42.416-123.466 -46.814  0.00  0.00     0.028 C 
ATOM     23  C   UNL d   1     -43.147-123.817 -46.712  0.00  0.00     0.002 C 
ENDBRANCH  19  22
ENDBRANCH  15  17
ENDBRANCH  13  14
ENDBRANCH   1  13
TORSDOF 6
ENDMDL
