MODEL 1
REMARK VINA RESULT:      -5.6      0.000      0.000
REMARK  4 active torsions:
REMARK  status: ('A' for Active; 'I' for Inactive)
REMARK    1  A    between atoms: C_2  and  S_1 
REMARK    2  A    between atoms: N_4  and  S_1 
REMARK    3  A    between atoms: C_16  and  N_4 
REMARK    4  A    between atoms: C_17  and  C_16 
ROOT
ATOM      1  S   UNL d   1      58.307  -0.049  30.055  0.00  0.00     0.287 S 
ATOM      2  O   UNL d   1      57.846  -0.025  29.371  0.00  0.00    -0.198 OA
ATOM      3  O   UNL d   1      58.762  -0.074  30.745  0.00  0.00    -0.198 OA
ENDROOT
BRANCH   1   4
ATOM      4  C   UNL d   1      58.992  -0.031  29.595  0.00  0.00     0.123 A 
ATOM      5  C   UNL d   1      59.289  -0.727  29.255  0.00  0.00     0.094 A 
ATOM      6  N   UNL d   1      58.895  -1.442  29.380  0.00  0.00    -0.243 NA
ATOM      7  C   UNL d   1      59.961  -0.717  28.801  0.00  0.00     0.018 A 
ATOM      8  C   UNL d   1      59.178  -2.123  29.053  0.00  0.00     0.099 A 
ATOM      9  C   UNL d   1      59.862  -2.107  28.593  0.00  0.00     0.021 A 
ATOM     10  C   UNL d   1      60.264  -1.411  28.459  0.00  0.00     0.003 A 
ATOM     11  C   UNL d   1      60.361  -0.001  28.673  0.00  0.00     0.002 A 
ATOM     12  C   UNL d   1      60.072   0.679  29.003  0.00  0.00     0.001 A 
ATOM     13  C   UNL d   1      59.387   0.662  29.464  0.00  0.00     0.015 A 
ENDBRANCH   1   4
BRANCH   1  14
ATOM     14  N   UNL d   1      57.617  -0.067  30.510  0.00  0.00    -0.157 NA
BRANCH  14  15
ATOM     15  C   UNL d   1      57.620   0.254  31.276  0.00  0.00     0.112 C 
BRANCH  15  16
ATOM     16  C   UNL d   1      57.026   0.075  31.801  0.00  0.00     0.022 A 
ATOM     17  C   UNL d   1      56.813  -0.715  31.965  0.00  0.00     0.028 A 
ATOM     18  C   UNL d   1      56.220  -0.875  32.490  0.00  0.00     0.119 A 
ATOM     19  O   UNL d   1      55.902  -1.571  32.750  0.00  0.00    -0.300 OA
ATOM     20  C   UNL d   1      55.816  -0.248  32.873  0.00  0.00     0.119 A 
ATOM     21  C   UNL d   1      55.298  -1.394  33.296  0.00  0.00     0.304 A 
ATOM     22  O   UNL d   1      55.259  -0.580  33.359  0.00  0.00    -0.300 OA
ATOM     23  C   UNL d   1      56.022   0.508  32.715  0.00  0.00     0.026 A 
ATOM     24  C   UNL d   1      56.637   0.679  32.170  0.00  0.00     0.004 A 
ENDBRANCH  15  16
ENDBRANCH  14  15
ENDBRANCH   1  14
TORSDOF 4
ENDMDL
MODEL 2
REMARK VINA RESULT:      -4.0      1.615      5.002
REMARK  4 active torsions:
REMARK  status: ('A' for Active; 'I' for Inactive)
REMARK    1  A    between atoms: C_2  and  S_1 
REMARK    2  A    between atoms: N_4  and  S_1 
REMARK    3  A    between atoms: C_16  and  N_4 
REMARK    4  A    between atoms: C_17  and  C_16 
ROOT
ATOM      1  S   UNL d   1      56.851  -0.171  32.219  0.00  0.00     0.287 S 
ATOM      2  O   UNL d   1      56.935   0.643  32.118  0.00  0.00    -0.198 OA
ATOM      3  O   UNL d   1      56.772  -0.988  32.315  0.00  0.00    -0.198 OA
ENDROOT
BRANCH   1   4
ATOM      4  C   UNL d   1      56.294  -0.040  32.813  0.00  0.00     0.123 A 
ATOM      5  C   UNL d   1      56.533   0.203  33.569  0.00  0.00     0.094 A 
ATOM      6  N   UNL d   1      57.336   0.314  33.726  0.00  0.00    -0.243 NA
ATOM      7  C   UNL d   1      55.991   0.334  34.158  0.00  0.00     0.018 A 
ATOM      8  C   UNL d   1      57.577   0.550  34.459  0.00  0.00     0.099 A 
ATOM      9  C   UNL d   1      57.021   0.682  35.053  0.00  0.00     0.021 A 
ATOM     10  C   UNL d   1      56.225   0.578  34.918  0.00  0.00     0.003 A 
ATOM     11  C   UNL d   1      55.182   0.224  34.005  0.00  0.00     0.002 A 
ATOM     12  C   UNL d   1      54.947  -0.013  33.268  0.00  0.00     0.001 A 
ATOM     13  C   UNL d   1      55.504  -0.145  32.673  0.00  0.00     0.015 A 
ENDBRANCH   1   4
BRANCH   1  14
ATOM     14  N   UNL d   1      57.411  -0.295  31.623  0.00  0.00    -0.157 NA
BRANCH  14  15
ATOM     15  C   UNL d   1      57.323   0.086  30.890  0.00  0.00     0.112 C 
BRANCH  15  16
ATOM     16  C   UNL d   1      57.852  -0.050  30.288  0.00  0.00     0.022 A 
ATOM     17  C   UNL d   1      58.104  -0.822  30.098  0.00  0.00     0.028 A 
ATOM     18  C   UNL d   1      58.631  -0.940  29.496  0.00  0.00     0.119 A 
ATOM     19  O   UNL d   1      58.966  -1.611  29.195  0.00  0.00    -0.300 OA
ATOM     20  C   UNL d   1      58.926  -0.286  29.060  0.00  0.00     0.119 A 
ATOM     21  C   UNL d   1      59.473  -1.391  28.570  0.00  0.00     0.304 A 
ATOM     22  O   UNL d   1      59.435  -0.578  28.502  0.00  0.00    -0.300 OA
ATOM     23  C   UNL d   1      58.682   0.453  29.245  0.00  0.00     0.026 A 
ATOM     24  C   UNL d   1      58.135   0.579  29.869  0.00  0.00     0.004 A 
ENDBRANCH  15  16
ENDBRANCH  14  15
ENDBRANCH   1  14
TORSDOF 4
ENDMDL
