MODEL 1
REMARK VINA RESULT:      54.3      0.000      0.000
REMARK  4 active torsions:
REMARK  status: ('A' for Active; 'I' for Inactive)
REMARK    1  A    between atoms: N_2  and  C_1 
REMARK       I    between atoms: C_6  and  N_2 
REMARK    2  A    between atoms: C_16  and  N_3 
REMARK    3  A    between atoms: C_8  and  C_6 
REMARK    4  A    between atoms: O_19  and  C_12 
ROOT
ATOM      1  C   UNL d   1      60.892  48.166  49.758  0.00  0.00    -0.031 C 
ATOM      2  C   UNL d   1      61.460  47.552  49.736  0.00  0.00    -0.008 C 
ATOM      3  C   UNL d   1      60.331  48.773  49.778  0.00  0.00     0.133 C 
ENDROOT
BRANCH   3   4
ATOM      4  N   UNL d   1      60.107  49.111  50.512  0.00  0.00    -0.276 N 
ATOM      5  C   UNL d   1      59.371  49.449  50.703  0.00  0.00     0.183 A 
ATOM      6  S   UNL d   1      59.392  49.705  51.462  0.00  0.00    -0.048 SA
ATOM      7  C   UNL d   1      60.140  49.541  51.782  0.00  0.00     0.050 A 
ATOM      8  C   UNL d   1      60.465  49.676  52.512  0.00  0.00     0.008 A 
ATOM      9  C   UNL d   1      60.574  49.173  51.183  0.00  0.00     0.095 A 
ATOM     10  C   UNL d   1      61.243  49.446  52.676  0.00  0.00     0.003 A 
ATOM     11  C   UNL d   1      61.689  49.070  52.067  0.00  0.00     0.026 A 
ATOM     12  C   UNL d   1      61.350  48.942  51.342  0.00  0.00     0.111 A 
BRANCH   5  13
ATOM     13  N   UNL d   1      58.701  49.515  50.185  0.00  0.00    -0.183 NA
ATOM     14  C   UNL d   1      57.947  49.528  50.503  0.00  0.00     0.287 C 
ATOM     15  O   UNL d   1      57.829  49.477  51.320  0.00  0.00    -0.265 OA
BRANCH  14  16
ATOM     16  C   UNL d   1      57.296  49.593  50.000  0.00  0.00     0.087 A 
ATOM     17  S   UNL d   1      57.312  49.656  49.162  0.00  0.00    -0.082 SA
ATOM     18  C   UNL d   1      56.543  49.708  48.892  0.00  0.00     0.036 A 
ATOM     19  C   UNL d   1      56.041  49.679  49.541  0.00  0.00     0.008 A 
ATOM     20  C   UNL d   1      56.500  49.609  50.217  0.00  0.00     0.012 A 
ENDBRANCH  14  16
ENDBRANCH   5  13
BRANCH  12  21
ATOM     21  O   UNL d   1      61.805  48.566  50.743  0.00  0.00    -0.327 OA
ATOM     22  C   UNL d   1      62.626  48.514  50.829  0.00  0.00     0.181 C 
ENDBRANCH  12  21
ENDBRANCH   3   4
TORSDOF 4
ENDMDL
