MODEL 1
REMARK VINA RESULT:      38.7      0.000      0.000
REMARK  6 active torsions:
REMARK  status: ('A' for Active; 'I' for Inactive)
REMARK    1  A    between atoms: C_4  and  C_2 
REMARK       I    between atoms: N_13  and  C_4 
REMARK    2  A    between atoms: O_17  and  C_8 
REMARK    3  A    between atoms: O_18  and  C_9 
REMARK    4  A    between atoms: C_19  and  N_13 
REMARK    5  A    between atoms: C_15  and  C_20 
REMARK    6  A    between atoms: C_20  and  C_19 
ROOT
ATOM      1  C   UNL d   1      59.646  49.338  51.194  0.00  0.00     0.102 C 
ENDROOT
BRANCH   1   2
ATOM      2  N   UNL d   1      60.107  49.708  50.618  0.00  0.00    -0.205 NA
ATOM      3  C   UNL d   1      60.736  49.297  50.256  0.00  0.00     0.299 C 
ATOM      4  O   UNL d   1      61.193  49.678  49.679  0.00  0.00    -0.263 OA
BRANCH   3   5
ATOM      5  C   UNL d   1      60.906  48.508  50.473  0.00  0.00     0.161 A 
ATOM      6  N   UNL d   1      60.728  48.254  51.234  0.00  0.00    -0.140 NA
ATOM      7  N   UNL d   1      60.892  47.483  51.451  0.00  0.00    -0.105 NA
ATOM      8  C   UNL d   1      61.234  46.962  50.910  0.00  0.00     0.297 A 
ATOM      9  C   UNL d   1      61.413  47.213  50.152  0.00  0.00     0.066 A 
ATOM     10  O   UNL d   1      61.399  46.175  51.142  0.00  0.00    -0.264 OA
ATOM     11  C   UNL d   1      61.248  47.988  49.932  0.00  0.00     0.031 A 
ENDBRANCH   3   5
ENDBRANCH   1   2
BRANCH   1  12
ATOM     12  C   UNL d   1      58.952  49.699  51.461  0.00  0.00     0.021 C 
BRANCH  12  13
ATOM     13  C   UNL d   1      58.266  49.656  51.011  0.00  0.00     0.004 A 
ATOM     14  C   UNL d   1      57.538  49.702  51.379  0.00  0.00     0.026 A 
ATOM     15  C   UNL d   1      56.848  49.660  50.929  0.00  0.00     0.116 A 
ATOM     16  C   UNL d   1      56.895  49.572  50.110  0.00  0.00     0.116 A 
ATOM     17  C   UNL d   1      57.632  49.526  49.741  0.00  0.00     0.026 A 
ATOM     18  C   UNL d   1      58.313  49.568  50.192  0.00  0.00     0.002 A 
BRANCH  15  19
ATOM     19  O   UNL d   1      56.101  49.707  51.306  0.00  0.00    -0.326 OA
ATOM     20  C   UNL d   1      56.038  49.592  52.120  0.00  0.00     0.181 C 
ENDBRANCH  15  19
BRANCH  16  21
ATOM     21  O   UNL d   1      56.196  49.529  49.654  0.00  0.00    -0.326 OA
ATOM     22  C   UNL d   1      56.242  49.401  48.840  0.00  0.00     0.181 C 
ENDBRANCH  16  21
ENDBRANCH  12  13
ENDBRANCH   1  12
TORSDOF 6
ENDMDL
MODEL 2
REMARK VINA RESULT:      39.1      2.015      4.210
REMARK  6 active torsions:
REMARK  status: ('A' for Active; 'I' for Inactive)
REMARK    1  A    between atoms: C_4  and  C_2 
REMARK       I    between atoms: N_13  and  C_4 
REMARK    2  A    between atoms: O_17  and  C_8 
REMARK    3  A    between atoms: O_18  and  C_9 
REMARK    4  A    between atoms: C_19  and  N_13 
REMARK    5  A    between atoms: C_15  and  C_20 
REMARK    6  A    between atoms: C_20  and  C_19 
ROOT
ATOM      1  C   UNL d   1      58.380  49.690  50.048  0.00  0.00     0.102 C 
ENDROOT
BRANCH   1   2
ATOM      2  N   UNL d   1      57.848  49.669  49.418  0.00  0.00    -0.205 NA
ATOM      3  C   UNL d   1      57.059  49.428  49.542  0.00  0.00     0.299 C 
ATOM      4  O   UNL d   1      56.533  49.410  48.901  0.00  0.00    -0.263 OA
BRANCH   3   5
ATOM      5  C   UNL d   1      56.800  49.205  50.304  0.00  0.00     0.161 A 
ATOM      6  N   UNL d   1      57.015  49.664  50.951  0.00  0.00    -0.140 NA
ATOM      7  N   UNL d   1      56.764  49.450  51.699  0.00  0.00    -0.105 NA
ATOM      8  C   UNL d   1      56.299  48.778  51.806  0.00  0.00     0.297 A 
ATOM      9  C   UNL d   1      56.083  48.319  51.164  0.00  0.00     0.066 A 
ATOM     10  O   UNL d   1      56.047  48.567  52.576  0.00  0.00    -0.264 OA
ATOM     11  C   UNL d   1      56.335  48.532  50.411  0.00  0.00     0.031 A 
ENDBRANCH   3   5
ENDBRANCH   1   2
BRANCH   1  12
ATOM     12  C   UNL d   1      59.193  49.683  49.902  0.00  0.00     0.021 C 
BRANCH  12  13
ATOM     13  C   UNL d   1      59.724  49.665  50.529  0.00  0.00     0.004 A 
ATOM     14  C   UNL d   1      59.443  49.604  51.295  0.00  0.00     0.026 A 
ATOM     15  C   UNL d   1      59.975  49.586  51.926  0.00  0.00     0.116 A 
ATOM     16  C   UNL d   1      60.786  49.629  51.782  0.00  0.00     0.116 A 
ATOM     17  C   UNL d   1      61.066  49.690  51.008  0.00  0.00     0.026 A 
ATOM     18  C   UNL d   1      60.535  49.708  50.386  0.00  0.00     0.002 A 
BRANCH  15  19
ATOM     19  O   UNL d   1      59.688  49.524  52.711  0.00  0.00    -0.326 OA
ATOM     20  C   UNL d   1      60.186  49.684  53.349  0.00  0.00     0.181 C 
ENDBRANCH  15  19
BRANCH  16  21
ATOM     21  O   UNL d   1      61.324  49.611  52.421  0.00  0.00    -0.326 OA
ATOM     22  C   UNL d   1      62.121  49.445  52.284  0.00  0.00     0.181 C 
ENDBRANCH  16  21
ENDBRANCH  12  13
ENDBRANCH   1  12
TORSDOF 6
ENDMDL
