MODEL 1
REMARK VINA RESULT:      37.9      0.000      0.000
REMARK  5 active torsions:
REMARK  status: ('A' for Active; 'I' for Inactive)
REMARK    1  A    between atoms: N_19  and  C_6 
REMARK    2  A    between atoms: N_15  and  C_21 
REMARK    3  A    between atoms: C_25  and  N_19 
REMARK    4  A    between atoms: C_21  and  C_22 
REMARK    5  A    between atoms: C_22  and  C_25 
ROOT
ATOM      1  N   UNL d   1      13.633  13.160  -3.186  0.00  0.00    -0.183 N 
ATOM      2  C   UNL d   1      13.573  13.490  -3.940  0.00  0.00     0.169 A 
ATOM      3  C   UNL d   1      13.780  14.265  -4.071  0.00  0.00     0.073 A 
ATOM      4  C   UNL d   1      14.048  14.709  -3.443  0.00  0.00     0.185 A 
ATOM      5  N   UNL d   1      14.108  14.378  -2.690  0.00  0.00    -0.142 NA
ATOM      6  C   UNL d   1      13.421  12.383  -3.075  0.00  0.00     0.218 A 
ATOM      7  N   UNL d   1      13.303  13.035  -4.562  0.00  0.00    -0.226 NA
ATOM      8  C   UNL d   1      13.721  14.592  -4.816  0.00  0.00     0.007 A 
ATOM      9  N   UNL d   1      14.262  15.496  -3.560  0.00  0.00    -0.225 NA
ATOM     10  C   UNL d   1      13.153  11.929  -3.687  0.00  0.00     0.071 A 
ATOM     11  C   UNL d   1      13.928  15.368  -4.947  0.00  0.00     0.019 A 
ATOM     12  C   UNL d   1      13.093  12.259  -4.441  0.00  0.00     0.087 A 
ATOM     13  C   UNL d   1      14.202  15.826  -4.313  0.00  0.00     0.083 A 
ATOM     14  C   UNL d   1      13.450  14.134  -5.439  0.00  0.00     0.000 C 
ATOM     15  C   UNL d   1      12.812  11.784  -5.086  0.00  0.00     0.021 C 
ATOM     16  C   UNL d   1      14.410  16.599  -4.436  0.00  0.00     0.021 C 
ENDROOT
BRANCH   6  17
ATOM     17  N   UNL d   1      13.486  12.050  -2.294  0.00  0.00    -0.380 NA
BRANCH  17  18
ATOM     18  C   UNL d   1      13.541  11.783  -1.493  0.00  0.00     0.164 C 
BRANCH  18  19
ATOM     19  C   UNL d   1      14.266  11.859  -1.074  0.00  0.00     0.054 C 
BRANCH  19  20
ATOM     20  C   UNL d   1      14.287  12.273  -0.348  0.00  0.00     0.084 C 
BRANCH  20  21
ATOM     21  N   UNL d   1      14.757  12.971  -0.268  0.00  0.00    -0.285 N 
ATOM     22  C   UNL d   1      15.580  13.037  -0.412  0.00  0.00     0.183 A 
ATOM     23  N   UNL d   1      15.809  13.845  -0.258  0.00  0.00    -0.222 NA
ATOM     24  C   UNL d   1      15.121  14.274  -0.019  0.00  0.00     0.120 A 
ATOM     25  C   UNL d   1      14.461  13.732  -0.024  0.00  0.00     0.102 A 
ENDBRANCH  20  21
ENDBRANCH  19  20
ENDBRANCH  18  19
ENDBRANCH  17  18
ENDBRANCH   6  17
TORSDOF 5
ENDMDL
MODEL 2
REMARK VINA RESULT:      38.7      1.541      3.263
REMARK  5 active torsions:
REMARK  status: ('A' for Active; 'I' for Inactive)
REMARK    1  A    between atoms: N_19  and  C_6 
REMARK    2  A    between atoms: N_15  and  C_21 
REMARK    3  A    between atoms: C_25  and  N_19 
REMARK    4  A    between atoms: C_21  and  C_22 
REMARK    5  A    between atoms: C_22  and  C_25 
ROOT
ATOM      1  N   UNL d   1      14.579  13.205  -1.524  0.00  0.00    -0.183 N 
ATOM      2  C   UNL d   1      13.979  12.731  -1.834  0.00  0.00     0.169 A 
ATOM      3  C   UNL d   1      13.827  12.723  -2.632  0.00  0.00     0.073 A 
ATOM      4  C   UNL d   1      14.279  13.193  -3.120  0.00  0.00     0.185 A 
ATOM      5  N   UNL d   1      14.878  13.667  -2.810  0.00  0.00    -0.142 NA
ATOM      6  C   UNL d   1      14.716  13.199  -0.723  0.00  0.00     0.218 A 
ATOM      7  N   UNL d   1      13.533  12.263  -1.335  0.00  0.00    -0.226 NA
ATOM      8  C   UNL d   1      13.234  12.254  -2.939  0.00  0.00     0.007 A 
ATOM      9  N   UNL d   1      14.137  13.197  -3.932  0.00  0.00    -0.225 NA
ATOM     10  C   UNL d   1      14.277  12.738  -0.225  0.00  0.00     0.071 A 
ATOM     11  C   UNL d   1      13.082  12.247  -3.738  0.00  0.00     0.019 A 
ATOM     12  C   UNL d   1      13.677  12.264  -0.535  0.00  0.00     0.087 A 
ATOM     13  C   UNL d   1      13.537  12.723  -4.242  0.00  0.00     0.083 A 
ATOM     14  C   UNL d   1      12.787  11.786  -2.437  0.00  0.00     0.000 C 
ATOM     15  C   UNL d   1      13.215  11.779  -0.014  0.00  0.00     0.021 C 
ATOM     16  C   UNL d   1      13.392  12.721  -5.038  0.00  0.00     0.021 C 
ENDROOT
BRANCH   6  17
ATOM     17  N   UNL d   1      15.337  13.692  -0.411  0.00  0.00    -0.380 NA
BRANCH  17  18
ATOM     18  C   UNL d   1      15.973  14.127  -0.062  0.00  0.00     0.164 C 
BRANCH  18  19
ATOM     19  C   UNL d   1      16.097  14.930  -0.276  0.00  0.00     0.054 C 
BRANCH  19  20
ATOM     20  C   UNL d   1      15.541  15.514  -0.049  0.00  0.00     0.084 C 
BRANCH  20  21
ATOM     21  N   UNL d   1      15.492  16.243  -0.474  0.00  0.00    -0.285 N 
ATOM     22  C   UNL d   1      16.127  16.756  -0.661  0.00  0.00     0.183 A 
ATOM     23  N   UNL d   1      15.810  17.421  -1.093  0.00  0.00    -0.222 NA
ATOM     24  C   UNL d   1      14.975  17.312  -1.169  0.00  0.00     0.120 A 
ATOM     25  C   UNL d   1      14.772  16.577  -0.784  0.00  0.00     0.102 A 
ENDBRANCH  20  21
ENDBRANCH  19  20
ENDBRANCH  18  19
ENDBRANCH  17  18
ENDBRANCH   6  17
TORSDOF 5
ENDMDL
