MODEL 1
REMARK VINA RESULT:      44.0      0.000      0.000
REMARK  4 active torsions:
REMARK  status: ('A' for Active; 'I' for Inactive)
REMARK    1  A    between atoms: C_5  and  N_1 
REMARK    2  A    between atoms: C_7  and  C_5 
REMARK    3  A    between atoms: O_11  and  C_8 
REMARK    4  A    between atoms: C_16  and  O_11 
ROOT
ATOM      1  N   UNL d   1     -50.406  26.090  33.435  0.00  0.00    -0.251 N 
ATOM      2  C   UNL d   1     -49.638  25.780  33.551  0.00  0.00     0.378 A 
ATOM      3  C   UNL d   1     -50.358  26.911  33.451  0.00  0.00     0.092 A 
ATOM      4  O   UNL d   1     -49.178  26.460  33.629  0.00  0.00    -0.258 OA
ATOM      5  C   UNL d   1     -49.563  27.119  33.576  0.00  0.00     0.121 A 
ATOM      6  O   UNL d   1     -49.433  24.976  33.575  0.00  0.00    -0.237 OA
ATOM      7  C   UNL d   1     -50.929  27.497  33.368  0.00  0.00     0.020 A 
ATOM      8  C   UNL d   1     -49.345  27.923  33.618  0.00  0.00     0.026 A 
ATOM      9  C   UNL d   1     -50.710  28.301  33.411  0.00  0.00     0.002 A 
ATOM     10  C   UNL d   1     -49.919  28.520  33.535  0.00  0.00     0.002 A 
ATOM     11  C   UNL d   1     -51.297  28.895  33.326  0.00  0.00     0.000 C 
ENDROOT
BRANCH   1  12
ATOM     12  C   UNL d   1     -51.083  25.641  33.326  0.00  0.00     0.087 C 
BRANCH  12  13
ATOM     13  C   UNL d   1     -51.064  24.823  33.431  0.00  0.00     0.041 A 
ATOM     14  C   UNL d   1     -51.751  24.428  33.657  0.00  0.00     0.101 A 
ATOM     15  C   UNL d   1     -51.728  23.611  33.761  0.00  0.00     0.025 A 
ATOM     16  C   UNL d   1     -51.030  23.191  33.640  0.00  0.00     0.002 A 
ATOM     17  C   UNL d   1     -50.341  23.595  33.412  0.00  0.00     0.000 A 
ATOM     18  C   UNL d   1     -50.363  24.412  33.308  0.00  0.00     0.004 A 
BRANCH  14  19
ATOM     19  O   UNL d   1     -52.432  24.874  33.770  0.00  0.00    -0.307 OA
BRANCH  19  20
ATOM     20  C   UNL d   1     -53.178  24.505  33.741  0.00  0.00     0.100 C 
ATOM     21  C   UNL d   1     -53.792  24.851  33.307  0.00  0.00     0.027 C 
ATOM     22  C   UNL d   1     -53.304  23.797  34.144  0.00  0.00     0.027 C 
ENDBRANCH  19  20
ENDBRANCH  14  19
ENDBRANCH  12  13
ENDBRANCH   1  12
TORSDOF 4
ENDMDL
