MODEL 1
REMARK VINA RESULT:      -2.9      0.000      0.000
REMARK  5 active torsions:
REMARK  status: ('A' for Active; 'I' for Inactive)
REMARK    1  A    between atoms: C_2  and  N_1 
REMARK       I    between atoms: C_3  and  N_1 
REMARK    2  A    between atoms: N_7  and  C_2 
REMARK    3  A    between atoms: C_4  and  C_3 
REMARK    4  A    between atoms: N_5  and  C_9 
REMARK    5  A    between atoms: C_17  and  N_7 
ROOT
ATOM      1  C   UNL d   1      56.440   0.668  33.431  0.00  0.00     0.064 A 
ATOM      2  C   UNL d   1      55.950   0.654  32.770  0.00  0.00     0.019 A 
ATOM      3  C   UNL d   1      57.270   0.681  33.324  0.00  0.00     0.019 A 
ATOM      4  C   UNL d   1      57.092   0.668  31.908  0.00  0.00     0.084 A 
ATOM      5  C   UNL d   1      57.597   0.681  32.561  0.00  0.00     0.021 A 
ATOM      6  C   UNL d   1      56.264   0.654  32.018  0.00  0.00     0.021 A 
ENDROOT
BRANCH   4   7
ATOM      7  N   UNL d   1      57.398   0.667  31.162  0.00  0.00    -0.217 NA
BRANCH   7   8
ATOM      8  C   UNL d   1      57.822   0.013  30.889  0.00  0.00     0.224 C 
ATOM      9  S   UNL d   1      57.486  -0.730  30.916  0.00  0.00    -0.037 SA
BRANCH   8  10
ATOM     10  N   UNL d   1      58.598   0.124  30.586  0.00  0.00    -0.178 NA
ATOM     11  C   UNL d   1      58.765  -0.113  29.833  0.00  0.00     0.287 C 
ATOM     12  O   UNL d   1      58.178  -0.458  29.371  0.00  0.00    -0.265 OA
BRANCH  11  13
ATOM     13  C   UNL d   1      59.508  -0.011  29.530  0.00  0.00     0.087 A 
ATOM     14  S   UNL d   1      59.830  -0.425  28.897  0.00  0.00    -0.082 SA
ATOM     15  C   UNL d   1      60.614  -0.143  28.769  0.00  0.00     0.036 A 
ATOM     16  C   UNL d   1      60.747   0.434  29.329  0.00  0.00     0.008 A 
ATOM     17  C   UNL d   1      60.083   0.529  29.802  0.00  0.00     0.012 A 
ENDBRANCH  11  13
ENDBRANCH   8  10
ENDBRANCH   7   8
ENDBRANCH   4   7
BRANCH   1  18
ATOM     18  N   UNL d   1      56.122   0.668  34.178  0.00  0.00    -0.300 N 
ATOM     19  C   UNL d   1      56.610   0.673  34.835  0.00  0.00     0.107 A 
ATOM     20  C   UNL d   1      56.297   0.673  35.598  0.00  0.00     0.142 A 
ATOM     21  O   UNL d   1      55.484   0.668  35.705  0.00  0.00    -0.300 OA
ATOM     22  C   UNL d   1      54.982   0.663  35.050  0.00  0.00     0.142 A 
ATOM     23  C   UNL d   1      55.295   0.663  34.283  0.00  0.00     0.107 A 
ENDBRANCH   1  18
TORSDOF 5
ENDMDL
MODEL 2
REMARK VINA RESULT:      -2.5      1.877      5.604
REMARK  5 active torsions:
REMARK  status: ('A' for Active; 'I' for Inactive)
REMARK    1  A    between atoms: C_2  and  N_1 
REMARK       I    between atoms: C_3  and  N_1 
REMARK    2  A    between atoms: N_7  and  C_2 
REMARK    3  A    between atoms: C_4  and  C_3 
REMARK    4  A    between atoms: N_5  and  C_9 
REMARK    5  A    between atoms: C_17  and  N_7 
ROOT
ATOM      1  C   UNL d   1      58.833  -1.315  29.589  0.00  0.00     0.064 A 
ATOM      2  C   UNL d   1      59.074  -0.529  29.629  0.00  0.00     0.019 A 
ATOM      3  C   UNL d   1      58.105  -1.538  29.936  0.00  0.00     0.019 A 
ATOM      4  C   UNL d   1      57.886  -0.190  30.351  0.00  0.00     0.084 A 
ATOM      5  C   UNL d   1      57.630  -0.975  30.318  0.00  0.00     0.021 A 
ATOM      6  C   UNL d   1      58.613   0.029  30.003  0.00  0.00     0.021 A 
ENDROOT
BRANCH   4   7
ATOM      7  N   UNL d   1      57.432   0.366  30.719  0.00  0.00    -0.217 NA
BRANCH   7   8
ATOM      8  C   UNL d   1      57.459   0.443  31.541  0.00  0.00     0.224 C 
ATOM      9  S   UNL d   1      58.148   0.682  31.906  0.00  0.00    -0.037 SA
BRANCH   8  10
ATOM     10  N   UNL d   1      56.770   0.271  31.992  0.00  0.00    -0.178 NA
ATOM     11  C   UNL d   1      56.785   0.380  32.791  0.00  0.00     0.287 C 
ATOM     12  O   UNL d   1      57.469   0.656  33.156  0.00  0.00    -0.265 OA
BRANCH  11  13
ATOM     13  C   UNL d   1      56.128   0.219  33.236  0.00  0.00     0.087 A 
ATOM     14  S   UNL d   1      56.000   0.463  34.010  0.00  0.00    -0.082 SA
ATOM     15  C   UNL d   1      55.248   0.173  34.256  0.00  0.00     0.036 A 
ATOM     16  C   UNL d   1      54.941  -0.240  33.625  0.00  0.00     0.008 A 
ATOM     17  C   UNL d   1      55.463  -0.223  32.993  0.00  0.00     0.012 A 
ENDBRANCH  11  13
ENDBRANCH   8  10
ENDBRANCH   7   8
ENDBRANCH   4   7
BRANCH   1  18
ATOM     18  N   UNL d   1      59.297  -1.868  29.215  0.00  0.00    -0.300 N 
ATOM     19  C   UNL d   1      59.059  -2.650  29.179  0.00  0.00     0.107 A 
ATOM     20  C   UNL d   1      59.523  -3.219  28.802  0.00  0.00     0.142 A 
ATOM     21  O   UNL d   1      60.233  -3.002  28.457  0.00  0.00    -0.300 OA
ATOM     22  C   UNL d   1      60.483  -2.215  28.487  0.00  0.00     0.142 A 
ATOM     23  C   UNL d   1      60.019  -1.644  28.865  0.00  0.00     0.107 A 
ENDBRANCH   1  18
TORSDOF 5
ENDMDL
MODEL 3
REMARK VINA RESULT:      -1.3      2.273      5.671
REMARK  5 active torsions:
REMARK  status: ('A' for Active; 'I' for Inactive)
REMARK    1  A    between atoms: C_2  and  N_1 
REMARK       I    between atoms: C_3  and  N_1 
REMARK    2  A    between atoms: N_7  and  C_2 
REMARK    3  A    between atoms: C_4  and  C_3 
REMARK    4  A    between atoms: N_5  and  C_9 
REMARK    5  A    between atoms: C_17  and  N_7 
ROOT
ATOM      1  C   UNL d   1      59.846  -2.119  29.204  0.00  0.00     0.064 A 
ATOM      2  C   UNL d   1      60.198  -1.711  29.826  0.00  0.00     0.019 A 
ATOM      3  C   UNL d   1      59.250  -1.743  28.753  0.00  0.00     0.019 A 
ATOM      4  C   UNL d   1      59.379  -0.569  29.555  0.00  0.00     0.084 A 
ATOM      5  C   UNL d   1      59.015  -0.966  28.928  0.00  0.00     0.021 A 
ATOM      6  C   UNL d   1      59.973  -0.947  30.004  0.00  0.00     0.021 A 
ENDROOT
BRANCH   4   7
ATOM      7  N   UNL d   1      59.159   0.186  29.735  0.00  0.00    -0.217 NA
BRANCH   7   8
ATOM      8  C   UNL d   1      58.386   0.345  29.977  0.00  0.00     0.224 C 
ATOM      9  S   UNL d   1      57.824   0.566  29.428  0.00  0.00    -0.037 SA
BRANCH   8  10
ATOM     10  N   UNL d   1      58.188   0.276  30.790  0.00  0.00    -0.178 NA
ATOM     11  C   UNL d   1      57.436   0.445  31.029  0.00  0.00     0.287 C 
ATOM     12  O   UNL d   1      56.873   0.682  30.478  0.00  0.00    -0.265 OA
BRANCH  11  13
ATOM     13  C   UNL d   1      57.233   0.382  31.811  0.00  0.00     0.087 A 
ATOM     14  S   UNL d   1      57.663   0.681  32.444  0.00  0.00    -0.082 SA
ATOM     15  C   UNL d   1      57.252   0.491  33.155  0.00  0.00     0.036 A 
ATOM     16  C   UNL d   1      56.584   0.081  32.933  0.00  0.00     0.008 A 
ATOM     17  C   UNL d   1      56.555   0.005  32.117  0.00  0.00     0.012 A 
ENDBRANCH  11  13
ENDBRANCH   8  10
ENDBRANCH   7   8
ENDBRANCH   4   7
BRANCH   1  18
ATOM     18  N   UNL d   1      60.074  -2.879  29.031  0.00  0.00    -0.300 N 
ATOM     19  C   UNL d   1      60.826  -3.138  29.224  0.00  0.00     0.107 A 
ATOM     20  C   UNL d   1      61.068  -3.908  29.053  0.00  0.00     0.142 A 
ATOM     21  O   UNL d   1      60.551  -4.426  28.684  0.00  0.00    -0.300 OA
ATOM     22  C   UNL d   1      59.789  -4.175  28.485  0.00  0.00     0.142 A 
ATOM     23  C   UNL d   1      59.545  -3.403  28.656  0.00  0.00     0.107 A 
ENDBRANCH   1  18
TORSDOF 5
ENDMDL
