MODEL 1
REMARK VINA RESULT:      -5.6      0.000      0.000
REMARK  5 active torsions:
REMARK  status: ('A' for Active; 'I' for Inactive)
REMARK    1  A    between atoms: C_7  and  N_2 
REMARK    2  A    between atoms: C_8  and  C_7 
REMARK    3  A    between atoms: C_13  and  C_8 
REMARK    4  A    between atoms: C_9  and  O_11 
REMARK    5  A    between atoms: O_11  and  C_13 
ROOT
ATOM      1  C   UNL d   1     -42.830-122.368 -50.144  0.00  0.00     0.296 A 
ATOM      2  N   UNL d   1     -42.019-122.552 -50.163  0.00  0.00    -0.268 N 
ATOM      3  S   UNL d   1     -43.145-122.692 -49.453  0.00  0.00    -0.025 SA
ATOM      4  C   UNL d   1     -41.840-122.988 -49.483  0.00  0.00     0.073 A 
ATOM      5  C   UNL d   1     -42.539-123.073 -49.045  0.00  0.00     0.050 A 
ATOM      6  O   UNL d   1     -43.244-121.940 -50.714  0.00  0.00    -0.259 OA
ATOM      7  C   UNL d   1     -41.138-123.313 -49.210  0.00  0.00     0.018 A 
ATOM      8  C   UNL d   1     -42.521-123.493 -48.325  0.00  0.00     0.008 A 
ATOM      9  C   UNL d   1     -41.125-123.728 -48.498  0.00  0.00     0.002 A 
ATOM     10  C   UNL d   1     -41.811-123.817 -48.058  0.00  0.00     0.001 A 
ENDROOT
BRANCH   2  11
ATOM     11  C   UNL d   1     -41.487-122.338 -50.753  0.00  0.00     0.086 C 
BRANCH  11  12
ATOM     12  C   UNL d   1     -41.694-122.441 -51.548  0.00  0.00     0.046 C 
BRANCH  12  13
ATOM     13  C   UNL d   1     -41.123-122.357 -52.137  0.00  0.00     0.124 C 
BRANCH  13  14
ATOM     14  O   UNL d   1     -41.343-122.363 -52.925  0.00  0.00    -0.305 OA
BRANCH  14  15
ATOM     15  C   UNL d   1     -41.566-122.370 -53.723  0.00  0.00     0.100 A 
ATOM     16  C   UNL d   1     -41.223-122.918 -54.228  0.00  0.00     0.025 A 
ATOM     17  C   UNL d   1     -41.446-122.924 -55.024  0.00  0.00     0.002 A 
ATOM     18  C   UNL d   1     -42.004-122.389 -55.307  0.00  0.00     0.000 A 
ATOM     19  C   UNL d   1     -42.344-121.839 -54.787  0.00  0.00     0.002 A 
ATOM     20  C   UNL d   1     -42.125-121.831 -53.998  0.00  0.00     0.025 A 
ENDBRANCH  14  15
ENDBRANCH  13  14
ENDBRANCH  12  13
ENDBRANCH  11  12
ENDBRANCH   2  11
TORSDOF 5
ENDMDL
MODEL 2
REMARK VINA RESULT:      -5.2      1.492      5.043
REMARK  5 active torsions:
REMARK  status: ('A' for Active; 'I' for Inactive)
REMARK    1  A    between atoms: C_7  and  N_2 
REMARK    2  A    between atoms: C_8  and  C_7 
REMARK    3  A    between atoms: C_13  and  C_8 
REMARK    4  A    between atoms: C_9  and  O_11 
REMARK    5  A    between atoms: O_11  and  C_13 
ROOT
ATOM      1  C   UNL d   1     -41.389-123.317 -53.373  0.00  0.00     0.296 A 
ATOM      2  N   UNL d   1     -41.580-122.512 -53.290  0.00  0.00    -0.268 N 
ATOM      3  S   UNL d   1     -41.516-123.524 -54.162  0.00  0.00    -0.025 SA
ATOM      4  C   UNL d   1     -41.822-122.229 -54.028  0.00  0.00     0.073 A 
ATOM      5  C   UNL d   1     -41.782-122.858 -54.567  0.00  0.00     0.050 A 
ATOM      6  O   UNL d   1     -41.123-123.817 -52.775  0.00  0.00    -0.259 OA
ATOM      7  C   UNL d   1     -42.071-121.487 -54.275  0.00  0.00     0.018 A 
ATOM      8  C   UNL d   1     -41.997-122.729 -55.362  0.00  0.00     0.008 A 
ATOM      9  C   UNL d   1     -42.283-121.364 -55.063  0.00  0.00     0.002 A 
ATOM     10  C   UNL d   1     -42.246-121.981 -55.602  0.00  0.00     0.001 A 
ENDROOT
BRANCH   2  11
ATOM     11  C   UNL d   1     -41.535-122.073 -52.595  0.00  0.00     0.086 C 
BRANCH  11  12
ATOM     12  C   UNL d   1     -41.655-122.445 -51.866  0.00  0.00     0.046 C 
BRANCH  12  13
ATOM     13  C   UNL d   1     -41.734-121.994 -51.180  0.00  0.00     0.124 C 
BRANCH  13  14
ATOM     14  O   UNL d   1     -41.906-122.358 -50.467  0.00  0.00    -0.305 OA
BRANCH  14  15
ATOM     15  C   UNL d   1     -42.080-122.727 -49.747  0.00  0.00     0.100 A 
ATOM     16  C   UNL d   1     -41.463-122.958 -49.258  0.00  0.00     0.025 A 
ATOM     17  C   UNL d   1     -41.638-123.327 -48.538  0.00  0.00     0.002 A 
ATOM     18  C   UNL d   1     -42.419-123.459 -48.315  0.00  0.00     0.000 A 
ATOM     19  C   UNL d   1     -43.035-123.221 -48.817  0.00  0.00     0.002 A 
ATOM     20  C   UNL d   1     -42.865-122.857 -49.530  0.00  0.00     0.025 A 
ENDBRANCH  14  15
ENDBRANCH  13  14
ENDBRANCH  12  13
ENDBRANCH  11  12
ENDBRANCH   2  11
TORSDOF 5
ENDMDL
MODEL 3
REMARK VINA RESULT:      -4.4      1.450      4.972
REMARK  5 active torsions:
REMARK  status: ('A' for Active; 'I' for Inactive)
REMARK    1  A    between atoms: C_7  and  N_2 
REMARK    2  A    between atoms: C_8  and  C_7 
REMARK    3  A    between atoms: C_13  and  C_8 
REMARK    4  A    between atoms: C_9  and  O_11 
REMARK    5  A    between atoms: O_11  and  C_13 
ROOT
ATOM      1  C   UNL d   1     -41.247-122.024 -52.064  0.00  0.00     0.296 A 
ATOM      2  N   UNL d   1     -41.236-122.851 -52.147  0.00  0.00    -0.268 N 
ATOM      3  S   UNL d   1     -41.376-121.698 -52.811  0.00  0.00    -0.025 SA
ATOM      4  C   UNL d   1     -41.359-123.029 -52.946  0.00  0.00     0.073 A 
ATOM      5  C   UNL d   1     -41.445-122.313 -53.355  0.00  0.00     0.050 A 
ATOM      6  O   UNL d   1     -41.146-121.606 -51.361  0.00  0.00    -0.259 OA
ATOM      7  C   UNL d   1     -41.402-123.744 -53.348  0.00  0.00     0.018 A 
ATOM      8  C   UNL d   1     -41.577-122.326 -54.178  0.00  0.00     0.008 A 
ATOM      9  C   UNL d   1     -41.532-123.752 -54.162  0.00  0.00     0.002 A 
ATOM     10  C   UNL d   1     -41.619-123.048 -54.574  0.00  0.00     0.001 A 
ENDROOT
BRANCH   2  11
ATOM     11  C   UNL d   1     -41.123-123.398 -51.543  0.00  0.00     0.086 C 
BRANCH  11  12
ATOM     12  C   UNL d   1     -41.418-123.239 -50.786  0.00  0.00     0.046 C 
BRANCH  12  13
ATOM     13  C   UNL d   1     -41.381-123.817 -50.199  0.00  0.00     0.124 C 
BRANCH  13  14
ATOM     14  O   UNL d   1     -41.589-123.634 -49.429  0.00  0.00    -0.305 OA
BRANCH  14  15
ATOM     15  C   UNL d   1     -41.799-123.449 -48.650  0.00  0.00     0.100 A 
ATOM     16  C   UNL d   1     -41.207-123.324 -48.096  0.00  0.00     0.025 A 
ATOM     17  C   UNL d   1     -41.418-123.140 -47.318  0.00  0.00     0.002 A 
ATOM     18  C   UNL d   1     -42.210-123.082 -47.102  0.00  0.00     0.000 A 
ATOM     19  C   UNL d   1     -42.800-123.210 -47.670  0.00  0.00     0.002 A 
ATOM     20  C   UNL d   1     -42.594-123.392 -48.441  0.00  0.00     0.025 A 
ENDBRANCH  14  15
ENDBRANCH  13  14
ENDBRANCH  12  13
ENDBRANCH  11  12
ENDBRANCH   2  11
TORSDOF 5
ENDMDL
