MODEL 1
REMARK VINA RESULT:      79.6      0.000      0.000
REMARK  4 active torsions:
REMARK  status: ('A' for Active; 'I' for Inactive)
REMARK    1  A    between atoms: N_2  and  C_1 
REMARK       I    between atoms: C_6  and  N_2 
REMARK    2  A    between atoms: C_21  and  N_3 
REMARK    3  A    between atoms: C_8  and  C_6 
REMARK       I    between atoms: C_17  and  N_18 
REMARK    4  A    between atoms: N_18  and  C_19 
ROOT
ATOM      1  C   UNL d   1     -49.066  28.313  36.766  0.00  0.00    -0.031 C 
ATOM      2  C   UNL d   1     -49.709  28.387  37.278  0.00  0.00    -0.008 C 
ATOM      3  C   UNL d   1     -48.424  28.239  36.255  0.00  0.00     0.133 C 
ENDROOT
BRANCH   3   4
ATOM      4  N   UNL d   1     -48.354  28.733  35.594  0.00  0.00    -0.278 N 
ATOM      5  C   UNL d   1     -48.639  28.580  34.839  0.00  0.00     0.183 A 
ATOM      6  S   UNL d   1     -48.444  29.222  34.358  0.00  0.00    -0.048 SA
ATOM      7  C   UNL d   1     -48.036  29.775  34.821  0.00  0.00     0.050 A 
ATOM      8  C   UNL d   1     -47.710  30.511  34.643  0.00  0.00     0.027 A 
ATOM      9  C   UNL d   1     -47.979  29.472  35.588  0.00  0.00     0.073 A 
ATOM     10  C   UNL d   1     -47.327  30.945  35.231  0.00  0.00     0.085 A 
ATOM     11  C   UNL d   1     -47.271  30.642  35.999  0.00  0.00     0.021 A 
ATOM     12  C   UNL d   1     -47.597  29.905  36.177  0.00  0.00     0.020 A 
BRANCH   5  13
ATOM     13  N   UNL d   1     -49.049  27.900  34.609  0.00  0.00    -0.183 NA
ATOM     14  C   UNL d   1     -49.626  27.952  34.022  0.00  0.00     0.287 C 
ATOM     15  O   UNL d   1     -49.791  28.680  33.671  0.00  0.00    -0.265 OA
BRANCH  14  16
ATOM     16  C   UNL d   1     -50.040  27.276  33.787  0.00  0.00     0.088 A 
ATOM     17  S   UNL d   1     -50.876  27.199  33.717  0.00  0.00    -0.075 SA
ATOM     18  C   UNL d   1     -51.043  26.433  33.467  0.00  0.00     0.064 A 
ATOM     19 BR   UNL d   1     -51.799  26.104  33.322  0.00  0.00    -0.042 Br
ATOM     20  C   UNL d   1     -50.326  26.031  33.379  0.00  0.00     0.014 A 
ATOM     21  C   UNL d   1     -49.716  26.549  33.575  0.00  0.00     0.012 A 
ENDBRANCH  14  16
ENDBRANCH   5  13
BRANCH  10  22
ATOM     22  N   UNL d   1     -46.995  31.694  35.054  0.00  0.00    -0.208 NA
ATOM     23  C   UNL d   1     -47.440  32.251  34.654  0.00  0.00     0.279 C 
ATOM     24  O   UNL d   1     -47.110  32.987  34.481  0.00  0.00    -0.265 OA
ATOM     25  C   UNL d   1     -48.217  32.088  34.421  0.00  0.00     0.068 C 
ENDBRANCH  10  22
ENDBRANCH   3   4
TORSDOF 4
ENDMDL
MODEL 2
REMARK VINA RESULT:      81.8      0.964      1.247
REMARK  4 active torsions:
REMARK  status: ('A' for Active; 'I' for Inactive)
REMARK    1  A    between atoms: N_2  and  C_1 
REMARK       I    between atoms: C_6  and  N_2 
REMARK    2  A    between atoms: C_21  and  N_3 
REMARK    3  A    between atoms: C_8  and  C_6 
REMARK       I    between atoms: C_17  and  N_18 
REMARK    4  A    between atoms: N_18  and  C_19 
ROOT
ATOM      1  C   UNL d   1     -47.376  29.061  36.203  0.00  0.00    -0.031 C 
ATOM      2  C   UNL d   1     -46.692  29.178  36.648  0.00  0.00    -0.008 C 
ATOM      3  C   UNL d   1     -48.060  28.943  35.758  0.00  0.00     0.133 C 
ENDROOT
BRANCH   3   4
ATOM      4  N   UNL d   1     -48.225  29.426  35.106  0.00  0.00    -0.278 N 
ATOM      5  C   UNL d   1     -48.671  29.220  34.448  0.00  0.00     0.183 A 
ATOM      6  S   UNL d   1     -48.690  29.869  33.939  0.00  0.00    -0.048 SA
ATOM      7  C   UNL d   1     -48.252  30.481  34.287  0.00  0.00     0.050 A 
ATOM      8  C   UNL d   1     -48.080  31.249  34.038  0.00  0.00     0.027 A 
ATOM      9  C   UNL d   1     -47.963  30.206  35.011  0.00  0.00     0.073 A 
ATOM     10  C   UNL d   1     -47.619  31.741  34.513  0.00  0.00     0.085 A 
ATOM     11  C   UNL d   1     -47.330  31.466  35.237  0.00  0.00     0.021 A 
ATOM     12  C   UNL d   1     -47.502  30.699  35.486  0.00  0.00     0.020 A 
BRANCH   5  13
ATOM     13  N   UNL d   1     -49.034  28.488  34.324  0.00  0.00    -0.183 NA
ATOM     14  C   UNL d   1     -49.662  28.431  33.791  0.00  0.00     0.287 C 
ATOM     15  O   UNL d   1     -49.922  29.102  33.388  0.00  0.00    -0.265 OA
BRANCH  14  16
ATOM     16  C   UNL d   1     -50.030  27.702  33.662  0.00  0.00     0.088 A 
ATOM     17  S   UNL d   1     -49.668  26.943  33.706  0.00  0.00    -0.075 SA
ATOM     18  C   UNL d   1     -50.240  26.375  33.537  0.00  0.00     0.064 A 
ATOM     19 BR   UNL d   1     -50.136  25.545  33.516  0.00  0.00    -0.042 Br
ATOM     20  C   UNL d   1     -50.953  26.768  33.389  0.00  0.00     0.014 A 
ATOM     21  C   UNL d   1     -50.821  27.577  33.466  0.00  0.00     0.012 A 
ENDBRANCH  14  16
ENDBRANCH   5  13
BRANCH  10  22
ATOM     22  N   UNL d   1     -47.443  32.522  34.263  0.00  0.00    -0.208 NA
ATOM     23  C   UNL d   1     -47.957  32.914  33.764  0.00  0.00     0.279 C 
ATOM     24  O   UNL d   1     -47.781  33.682  33.519  0.00  0.00    -0.265 OA
ATOM     25  C   UNL d   1     -48.653  32.553  33.500  0.00  0.00     0.068 C 
ENDBRANCH  10  22
ENDBRANCH   3   4
TORSDOF 4
ENDMDL
