MODEL 1
REMARK VINA RESULT:      -2.4      0.000      0.000
REMARK  3 active torsions:
REMARK  status: ('A' for Active; 'I' for Inactive)
REMARK    1  A    between atoms: N_2  and  S_1 
REMARK    2  A    between atoms: N_4  and  S_1 
REMARK    3  A    between atoms: C_9  and  N_3 
ROOT
ATOM      1  N   UNL d   1      32.749  17.702 -23.567  0.00  0.00    -0.213 N 
ATOM      2  N   UNL d   1      32.910  19.159 -22.820  0.00  0.00    -0.301 N 
ATOM      3  C   UNL d   1      33.121  17.750 -22.846  0.00  0.00     0.112 A 
ATOM      4  C   UNL d   1      32.438  18.390 -23.947  0.00  0.00     0.112 A 
ATOM      5  C   UNL d   1      33.202  18.481 -22.472  0.00  0.00     0.100 A 
ATOM      6  C   UNL d   1      32.519  19.121 -23.572  0.00  0.00     0.100 A 
ENDROOT
BRANCH   2   7
ATOM      7  C   UNL d   1      32.992  19.894 -22.443  0.00  0.00     0.064 A 
ATOM      8  C   UNL d   1      33.158  20.564 -22.901  0.00  0.00     0.018 A 
ATOM      9  C   UNL d   1      33.240  21.300 -22.529  0.00  0.00     0.013 A 
ATOM     10  C   UNL d   1      33.157  21.364 -21.713  0.00  0.00     0.058 A 
ATOM     11  C   UNL d   1      32.989  20.683 -21.261  0.00  0.00     0.013 A 
ATOM     12 CL   UNL d   1      33.239  22.100 -21.340  0.00  0.00    -0.082 Cl
ATOM     13  C   UNL d   1      32.908  19.954 -21.629  0.00  0.00     0.018 A 
ENDBRANCH   2   7
BRANCH   1  14
ATOM     14  S   UNL d   1      32.666  16.957 -23.949  0.00  0.00     0.337 S 
ATOM     15  O   UNL d   1      32.568  16.269 -23.500  0.00  0.00    -0.181 OA
ATOM     16  O   UNL d   1      32.684  16.911 -24.779  0.00  0.00    -0.181 OA
BRANCH  14  17
ATOM     17  N   UNL d   1      32.570  16.149 -24.124  0.00  0.00    -0.213 N 
ATOM     18  C   UNL d   1      31.818  15.832 -24.199  0.00  0.00     0.113 C 
ATOM     19  C   UNL d   1      33.240  15.663 -24.222  0.00  0.00     0.113 C 
ENDBRANCH  14  17
ENDBRANCH   1  14
TORSDOF 3
ENDMDL
MODEL 2
REMARK VINA RESULT:      -2.3      0.977      1.566
REMARK  3 active torsions:
REMARK  status: ('A' for Active; 'I' for Inactive)
REMARK    1  A    between atoms: N_2  and  S_1 
REMARK    2  A    between atoms: N_4  and  S_1 
REMARK    3  A    between atoms: C_9  and  N_3 
ROOT
ATOM      1  N   UNL d   1      32.904  18.777 -22.926  0.00  0.00    -0.213 N 
ATOM      2  N   UNL d   1      32.973  20.240 -22.177  0.00  0.00    -0.301 N 
ATOM      3  C   UNL d   1      32.704  19.452 -23.333  0.00  0.00     0.112 A 
ATOM      4  C   UNL d   1      33.151  18.808 -22.119  0.00  0.00     0.112 A 
ATOM      5  C   UNL d   1      32.738  20.185 -22.957  0.00  0.00     0.100 A 
ATOM      6  C   UNL d   1      33.185  19.542 -21.743  0.00  0.00     0.100 A 
ENDROOT
BRANCH   2   7
ATOM      7  C   UNL d   1      33.008  20.978 -21.799  0.00  0.00     0.064 A 
ATOM      8  C   UNL d   1      33.202  21.650 -22.245  0.00  0.00     0.018 A 
ATOM      9  C   UNL d   1      33.237  22.388 -21.871  0.00  0.00     0.013 A 
ATOM     10  C   UNL d   1      33.083  22.454 -21.065  0.00  0.00     0.058 A 
ATOM     11  C   UNL d   1      32.889  21.772 -20.626  0.00  0.00     0.013 A 
ATOM     12 CL   UNL d   1      33.118  23.193 -20.691  0.00  0.00    -0.082 Cl
ATOM     13  C   UNL d   1      32.853  21.040 -20.996  0.00  0.00     0.018 A 
ENDBRANCH   2   7
BRANCH   1  14
ATOM     14  S   UNL d   1      32.869  18.029 -23.310  0.00  0.00     0.337 S 
ATOM     15  O   UNL d   1      32.470  17.950 -24.030  0.00  0.00    -0.181 OA
ATOM     16  O   UNL d   1      33.236  17.368 -22.965  0.00  0.00    -0.181 OA
BRANCH  14  17
ATOM     17  N   UNL d   1      32.721  17.400 -23.835  0.00  0.00    -0.213 N 
ATOM     18  C   UNL d   1      33.238  17.252 -24.453  0.00  0.00     0.113 C 
ATOM     19  C   UNL d   1      32.047  16.923 -23.731  0.00  0.00     0.113 C 
ENDBRANCH  14  17
ENDBRANCH   1  14
TORSDOF 3
ENDMDL
MODEL 3
REMARK VINA RESULT:      -2.1      2.892      4.563
REMARK  3 active torsions:
REMARK  status: ('A' for Active; 'I' for Inactive)
REMARK    1  A    between atoms: N_2  and  S_1 
REMARK    2  A    between atoms: N_4  and  S_1 
REMARK    3  A    between atoms: C_9  and  N_3 
ROOT
ATOM      1  N   UNL d   1      32.869  20.404 -21.839  0.00  0.00    -0.213 N 
ATOM      2  N   UNL d   1      32.895  19.139 -22.890  0.00  0.00    -0.301 N 
ATOM      3  C   UNL d   1      32.541  20.484 -22.578  0.00  0.00     0.112 A 
ATOM      4  C   UNL d   1      33.227  19.680 -21.593  0.00  0.00     0.112 A 
ATOM      5  C   UNL d   1      32.554  19.849 -23.105  0.00  0.00     0.100 A 
ATOM      6  C   UNL d   1      33.241  19.045 -22.120  0.00  0.00     0.100 A 
ENDROOT
BRANCH   2   7
ATOM      7  C   UNL d   1      32.909  18.501 -23.420  0.00  0.00     0.064 A 
ATOM      8  C   UNL d   1      32.612  17.767 -23.174  0.00  0.00     0.018 A 
ATOM      9  C   UNL d   1      32.624  17.127 -23.701  0.00  0.00     0.013 A 
ATOM     10  C   UNL d   1      32.927  17.220 -24.460  0.00  0.00     0.058 A 
ATOM     11  C   UNL d   1      33.223  17.963 -24.697  0.00  0.00     0.013 A 
ATOM     12 CL   UNL d   1      32.939  16.580 -24.987  0.00  0.00    -0.082 Cl
ATOM     13  C   UNL d   1      33.212  18.597 -24.176  0.00  0.00     0.018 A 
ENDBRANCH   2   7
BRANCH   1  14
ATOM     14  S   UNL d   1      32.855  21.052 -21.301  0.00  0.00     0.337 S 
ATOM     15  O   UNL d   1      32.471  20.977 -20.571  0.00  0.00    -0.181 OA
ATOM     16  O   UNL d   1      33.227  21.767 -21.502  0.00  0.00    -0.181 OA
BRANCH  14  17
ATOM     17  N   UNL d   1      32.729  21.552 -20.648  0.00  0.00    -0.213 N 
ATOM     18  C   UNL d   1      33.154  21.440 -19.957  0.00  0.00     0.113 C 
ATOM     19  C   UNL d   1      32.170  22.168 -20.699  0.00  0.00     0.113 C 
ENDBRANCH  14  17
ENDBRANCH   1  14
TORSDOF 3
ENDMDL
MODEL 4
REMARK VINA RESULT:      -1.9      5.277      6.631
REMARK  3 active torsions:
REMARK  status: ('A' for Active; 'I' for Inactive)
REMARK    1  A    between atoms: N_2  and  S_1 
REMARK    2  A    between atoms: N_4  and  S_1 
REMARK    3  A    between atoms: C_9  and  N_3 
ROOT
ATOM      1  N   UNL d   1      32.774  23.038 -18.630  0.00  0.00    -0.213 N 
ATOM      2  N   UNL d   1      32.827  22.849 -20.263  0.00  0.00    -0.301 N 
ATOM      3  C   UNL d   1      32.975  22.318 -18.949  0.00  0.00     0.112 A 
ATOM      4  C   UNL d   1      32.590  23.700 -19.121  0.00  0.00     0.112 A 
ATOM      5  C   UNL d   1      33.001  22.224 -19.769  0.00  0.00     0.100 A 
ATOM      6  C   UNL d   1      32.616  23.606 -19.941  0.00  0.00     0.100 A 
ENDROOT
BRANCH   2   7
ATOM      7  C   UNL d   1      32.853  22.754 -21.088  0.00  0.00     0.064 A 
ATOM      8  C   UNL d   1      32.511  23.334 -21.570  0.00  0.00     0.018 A 
ATOM      9  C   UNL d   1      32.535  23.243 -22.394  0.00  0.00     0.013 A 
ATOM     10  C   UNL d   1      32.896  22.583 -22.728  0.00  0.00     0.058 A 
ATOM     11  C   UNL d   1      33.237  22.005 -22.232  0.00  0.00     0.013 A 
ATOM     12 CL   UNL d   1      32.920  22.491 -23.552  0.00  0.00    -0.082 Cl
ATOM     13  C   UNL d   1      33.214  22.095 -21.417  0.00  0.00     0.018 A 
ENDBRANCH   2   7
BRANCH   1  14
ATOM     14  S   UNL d   1      32.748  23.135 -17.794  0.00  0.00     0.337 S 
ATOM     15  O   UNL d   1      33.224  22.665 -17.307  0.00  0.00    -0.181 OA
ATOM     16  O   UNL d   1      32.242  23.702 -17.458  0.00  0.00    -0.181 OA
BRANCH  14  17
ATOM     17  N   UNL d   1      32.868  23.072 -16.973  0.00  0.00    -0.213 N 
ATOM     18  C   UNL d   1      33.219  23.688 -16.562  0.00  0.00     0.113 C 
ATOM     19  C   UNL d   1      32.632  22.383 -16.570  0.00  0.00     0.113 C 
ENDBRANCH  14  17
ENDBRANCH   1  14
TORSDOF 3
ENDMDL
