MODEL 1
REMARK VINA RESULT:      -9.8      0.000      0.000
REMARK  5 active torsions:
REMARK  status: ('A' for Active; 'I' for Inactive)
REMARK    1  A    between atoms: O_8  and  C_2 
REMARK    2  A    between atoms: C_10  and  C_3 
REMARK    3  A    between atoms: C_14  and  O_8 
REMARK    4  A    between atoms: N_9  and  C_10 
REMARK    5  A    between atoms: O_23  and  C_17 
ROOT
ATOM      1  C   UNL d   1      53.189  33.531  53.762  0.00  0.00     0.108 A 
ATOM      2  C   UNL d   1      53.601  31.934  53.994  0.00  0.00     0.164 A 
ATOM      3  C   UNL d   1      52.988  34.325  53.656  0.00  0.00     0.079 A 
ATOM      4  C   UNL d   1      53.509  33.278  54.493  0.00  0.00     0.064 A 
ATOM      5  C   UNL d   1      53.713  32.489  54.609  0.00  0.00     0.222 A 
ATOM      6  O   UNL d   1      53.076  32.987  53.151  0.00  0.00    -0.303 OA
ATOM      7  C   UNL d   1      53.282  32.184  53.266  0.00  0.00     0.150 A 
ATOM      8  C   UNL d   1      53.620  33.835  55.105  0.00  0.00     0.009 A 
ATOM      9  C   UNL d   1      53.096  34.872  54.257  0.00  0.00     0.199 A 
ATOM     10  O   UNL d   1      54.029  32.236  55.328  0.00  0.00    -0.284 OA
ATOM     11  C   UNL d   1      53.416  34.625  54.989  0.00  0.00     0.042 A 
ATOM     12  O   UNL d   1      52.898  35.658  54.152  0.00  0.00    -0.286 OA
ENDROOT
BRANCH   2  13
ATOM     13  O   UNL d   1      53.804  31.144  54.109  0.00  0.00    -0.300 OA
BRANCH  13  14
ATOM     14  C   UNL d   1      53.425  30.562  53.679  0.00  0.00     0.122 A 
ATOM     15  C   UNL d   1      53.255  29.842  54.026  0.00  0.00     0.117 A 
ATOM     16  C   UNL d   1      52.874  29.257  53.595  0.00  0.00     0.026 A 
ATOM     17  C   UNL d   1      52.663  29.401  52.809  0.00  0.00     0.002 A 
ATOM     18  C   UNL d   1      52.833  30.121  52.461  0.00  0.00     0.002 A 
ATOM     19  C   UNL d   1      53.216  30.709  52.895  0.00  0.00     0.027 A 
BRANCH  15  20
ATOM     20  O   UNL d   1      53.469  29.710  54.810  0.00  0.00    -0.326 OA
ATOM     21  C   UNL d   1      53.422  28.950  55.129  0.00  0.00     0.181 C 
ENDBRANCH  15  20
ENDBRANCH  13  14
ENDBRANCH   2  13
BRANCH   3  22
ATOM     22  C   UNL d   1      52.675  34.568  52.938  0.00  0.00     0.086 C 
BRANCH  22  23
ATOM     23  N   UNL d   1      51.858  34.528  52.809  0.00  0.00    -0.300 N 
ATOM     24  C   UNL d   1      51.572  34.256  52.085  0.00  0.00     0.100 A 
ATOM     25  C   UNL d   1      50.760  34.216  51.956  0.00  0.00     0.100 A 
ATOM     26  N   UNL d   1      50.234  34.449  52.550  0.00  0.00    -0.299 N 
ATOM     27  C   UNL d   1      50.524  34.721  53.272  0.00  0.00     0.100 A 
ATOM     28  C   UNL d   1      49.422  34.410  52.420  0.00  0.00     0.100 C 
ATOM     29  C   UNL d   1      51.344  34.763  53.408  0.00  0.00     0.100 A 
ENDBRANCH  22  23
ENDBRANCH   3  22
TORSDOF 5
ENDMDL
MODEL 2
REMARK VINA RESULT:      -9.0      1.689      4.606
REMARK  5 active torsions:
REMARK  status: ('A' for Active; 'I' for Inactive)
REMARK    1  A    between atoms: O_8  and  C_2 
REMARK    2  A    between atoms: C_10  and  C_3 
REMARK    3  A    between atoms: C_14  and  O_8 
REMARK    4  A    between atoms: N_9  and  C_10 
REMARK    5  A    between atoms: O_23  and  C_17 
ROOT
ATOM      1  C   UNL d   1      52.594  33.206  53.143  0.00  0.00     0.108 A 
ATOM      2  C   UNL d   1      51.193  34.104  53.190  0.00  0.00     0.164 A 
ATOM      3  C   UNL d   1      53.294  32.768  53.125  0.00  0.00     0.079 A 
ATOM      4  C   UNL d   1      52.573  33.936  53.553  0.00  0.00     0.064 A 
ATOM      5  C   UNL d   1      51.881  34.381  53.577  0.00  0.00     0.222 A 
ATOM      6  O   UNL d   1      51.918  32.928  52.760  0.00  0.00    -0.303 OA
ATOM      7  C   UNL d   1      51.213  33.378  52.783  0.00  0.00     0.150 A 
ATOM      8  C   UNL d   1      53.261  34.209  53.937  0.00  0.00     0.009 A 
ATOM      9  C   UNL d   1      53.971  33.035  53.503  0.00  0.00     0.199 A 
ATOM     10  O   UNL d   1      51.856  35.101  53.979  0.00  0.00    -0.284 OA
ATOM     11  C   UNL d   1      53.954  33.764  53.913  0.00  0.00     0.042 A 
ATOM     12  O   UNL d   1      54.663  32.602  53.485  0.00  0.00    -0.286 OA
ENDROOT
BRANCH   2  13
ATOM     13  O   UNL d   1      50.499  34.548  53.214  0.00  0.00    -0.300 OA
BRANCH  13  14
ATOM     14  C   UNL d   1      50.016  34.578  52.556  0.00  0.00     0.122 A 
ATOM     15  C   UNL d   1      49.288  34.947  52.600  0.00  0.00     0.117 A 
ATOM     16  C   UNL d   1      48.802  34.978  51.939  0.00  0.00     0.026 A 
ATOM     17  C   UNL d   1      49.053  34.632  51.232  0.00  0.00     0.002 A 
ATOM     18  C   UNL d   1      49.780  34.263  51.188  0.00  0.00     0.002 A 
ATOM     19  C   UNL d   1      50.269  34.233  51.852  0.00  0.00     0.027 A 
BRANCH  15  20
ATOM     20  O   UNL d   1      49.048  35.287  53.310  0.00  0.00    -0.326 OA
ATOM     21  C   UNL d   1      48.356  35.734  53.342  0.00  0.00     0.181 C 
ENDBRANCH  15  20
ENDBRANCH  13  14
ENDBRANCH   2  13
BRANCH   3  22
ATOM     22  C   UNL d   1      53.310  32.053  52.723  0.00  0.00     0.086 C 
BRANCH  22  23
ATOM     23  N   UNL d   1      53.248  31.342  53.141  0.00  0.00    -0.300 N 
ATOM     24  C   UNL d   1      52.716  30.765  52.887  0.00  0.00     0.100 A 
ATOM     25  C   UNL d   1      52.653  30.057  53.302  0.00  0.00     0.100 A 
ATOM     26  N   UNL d   1      53.120  29.926  53.971  0.00  0.00    -0.299 N 
ATOM     27  C   UNL d   1      53.651  30.506  54.222  0.00  0.00     0.100 A 
ATOM     28  C   UNL d   1      53.057  29.218  54.386  0.00  0.00     0.100 C 
ATOM     29  C   UNL d   1      53.719  31.222  53.806  0.00  0.00     0.100 A 
ENDBRANCH  22  23
ENDBRANCH   3  22
TORSDOF 5
ENDMDL
MODEL 3
REMARK VINA RESULT:      -7.4      2.839      5.074
REMARK  5 active torsions:
REMARK  status: ('A' for Active; 'I' for Inactive)
REMARK    1  A    between atoms: O_8  and  C_2 
REMARK    2  A    between atoms: C_10  and  C_3 
REMARK    3  A    between atoms: C_14  and  O_8 
REMARK    4  A    between atoms: N_9  and  C_10 
REMARK    5  A    between atoms: O_23  and  C_17 
ROOT
ATOM      1  C   UNL d   1      48.776  35.419  52.580  0.00  0.00     0.108 A 
ATOM      2  C   UNL d   1      50.027  34.322  52.635  0.00  0.00     0.164 A 
ATOM      3  C   UNL d   1      48.153  35.961  52.544  0.00  0.00     0.079 A 
ATOM      4  C   UNL d   1      48.908  34.897  51.940  0.00  0.00     0.064 A 
ATOM      5  C   UNL d   1      49.526  34.353  51.966  0.00  0.00     0.222 A 
ATOM      6  O   UNL d   1      49.267  35.392  53.244  0.00  0.00    -0.303 OA
ATOM      7  C   UNL d   1      49.895  34.841  53.273  0.00  0.00     0.150 A 
ATOM      8  C   UNL d   1      48.407  34.931  51.274  0.00  0.00     0.009 A 
ATOM      9  C   UNL d   1      47.660  35.995  51.890  0.00  0.00     0.199 A 
ATOM     10  O   UNL d   1      49.660  33.837  51.337  0.00  0.00    -0.284 OA
ATOM     11  C   UNL d   1      47.788  35.474  51.247  0.00  0.00     0.042 A 
ATOM     12  O   UNL d   1      47.044  36.530  51.854  0.00  0.00    -0.286 OA
ENDROOT
BRANCH   2  13
ATOM     13  O   UNL d   1      50.645  33.779  52.663  0.00  0.00    -0.300 OA
BRANCH  13  14
ATOM     14  C   UNL d   1      51.366  34.002  52.975  0.00  0.00     0.122 A 
ATOM     15  C   UNL d   1      51.892  33.434  53.236  0.00  0.00     0.117 A 
ATOM     16  C   UNL d   1      52.617  33.658  53.551  0.00  0.00     0.026 A 
ATOM     17  C   UNL d   1      52.809  34.460  53.601  0.00  0.00     0.002 A 
ATOM     18  C   UNL d   1      52.283  35.028  53.340  0.00  0.00     0.002 A 
ATOM     19  C   UNL d   1      51.555  34.803  53.024  0.00  0.00     0.027 A 
BRANCH  15  20
ATOM     20  O   UNL d   1      51.690  32.638  53.181  0.00  0.00    -0.326 OA
ATOM     21  C   UNL d   1      52.280  32.063  53.146  0.00  0.00     0.181 C 
ENDBRANCH  15  20
ENDBRANCH  13  14
ENDBRANCH   2  13
BRANCH   3  22
ATOM     22  C   UNL d   1      48.026  36.471  53.174  0.00  0.00     0.086 C 
BRANCH  22  23
ATOM     23  N   UNL d   1      47.364  36.371  53.660  0.00  0.00    -0.300 N 
ATOM     24  C   UNL d   1      47.432  35.936  54.357  0.00  0.00     0.100 A 
ATOM     25  C   UNL d   1      46.774  35.836  54.842  0.00  0.00     0.100 A 
ATOM     26  N   UNL d   1      46.049  36.171  54.629  0.00  0.00    -0.299 N 
ATOM     27  C   UNL d   1      45.985  36.606  53.931  0.00  0.00     0.100 A 
ATOM     28  C   UNL d   1      45.390  36.072  55.114  0.00  0.00     0.100 C 
ATOM     29  C   UNL d   1      46.647  36.709  53.438  0.00  0.00     0.100 A 
ENDBRANCH  22  23
ENDBRANCH   3  22
TORSDOF 5
ENDMDL
