MODEL 1
REMARK VINA RESULT:      -3.2      0.000      0.000
REMARK  9 active torsions:
REMARK  status: ('A' for Active; 'I' for Inactive)
REMARK    1  A    between atoms: C_10  and  S_1 
REMARK    2  A    between atoms: N_11  and  S_1 
REMARK    3  A    between atoms: C_8  and  C_2 
REMARK    4  A    between atoms: C_3  and  N_6 
REMARK       I    between atoms: N_6  and  C_9 
REMARK    5  A    between atoms: C_9  and  C_14 
REMARK    6  A    between atoms: C_23  and  N_11 
REMARK    7  A    between atoms: C_24  and  N_11 
REMARK    8  A    between atoms: C_26  and  C_24 
REMARK    9  A    between atoms: C_27  and  C_26 
ROOT
ATOM      1  C   UNL d   1     -41.630  13.968  21.229  0.00  0.00     0.104 A 
ATOM      2  C   UNL d   1     -40.251  14.864  21.008  0.00  0.00     0.058 A 
ATOM      3  C   UNL d   1     -40.886  13.614  21.275  0.00  0.00     0.013 A 
ATOM      4  C   UNL d   1     -41.677  14.765  21.073  0.00  0.00     0.013 A 
ATOM      5  C   UNL d   1     -40.201  14.068  21.163  0.00  0.00     0.005 A 
ATOM      6  C   UNL d   1     -40.995  15.217  20.962  0.00  0.00     0.005 A 
ENDROOT
BRANCH   2   7
ATOM      7  C   UNL d   1     -39.558  15.319  20.896  0.00  0.00     0.282 C 
ATOM      8  N   UNL d   1     -39.237  15.411  20.138  0.00  0.00    -0.165 NA
ATOM      9  O   UNL d   1     -39.199  15.671  21.532  0.00  0.00    -0.265 OA
BRANCH   8  10
ATOM     10  C   UNL d   1     -39.596  15.059  19.502  0.00  0.00     0.297 A 
ATOM     11  O   UNL d   1     -39.904  15.523  18.892  0.00  0.00    -0.253 OA
ATOM     12  C   UNL d   1     -40.228  15.018  18.332  0.00  0.00     0.207 A 
ATOM     13  N   UNL d   1     -40.117  14.251  18.598  0.00  0.00    -0.119 NA
ATOM     14  N   UNL d   1     -39.726  14.270  19.322  0.00  0.00    -0.101 NA
BRANCH  12  15
ATOM     15  C   UNL d   1     -40.586  15.303  17.645  0.00  0.00     0.054 A 
ATOM     16  C   UNL d   1     -40.178  15.258  16.931  0.00  0.00     0.061 A 
ATOM     17 CL   UNL d   1     -39.422  14.931  16.904  0.00  0.00    -0.082 Cl
ATOM     18  C   UNL d   1     -40.533  15.541  16.245  0.00  0.00     0.011 A 
ATOM     19  C   UNL d   1     -41.298  15.874  16.257  0.00  0.00     0.001 A 
ATOM     20  C   UNL d   1     -41.704  15.920  16.964  0.00  0.00     0.000 A 
ATOM     21  C   UNL d   1     -41.345  15.633  17.660  0.00  0.00     0.004 A 
ENDBRANCH  12  15
ENDBRANCH   8  10
ENDBRANCH   2   7
BRANCH   1  22
ATOM     22  S   UNL d   1     -42.327  13.521  21.339  0.00  0.00     0.271 S 
ATOM     23  O   UNL d   1     -41.951  13.059  21.916  0.00  0.00    -0.200 OA
ATOM     24  O   UNL d   1     -42.700  13.982  20.765  0.00  0.00    -0.200 OA
BRANCH  22  25
ATOM     25  N   UNL d   1     -43.033  13.067  21.452  0.00  0.00    -0.229 N 
BRANCH  25  26
ATOM     26  C   UNL d   1     -43.014  12.242  21.452  0.00  0.00     0.092 C 
ATOM     27  C   UNL d   1     -43.026  11.826  22.165  0.00  0.00     0.021 C 
ENDBRANCH  25  26
BRANCH  25  28
ATOM     28  C   UNL d   1     -43.749  13.460  21.562  0.00  0.00     0.092 C 
BRANCH  28  29
ATOM     29  C   UNL d   1     -44.406  13.037  21.820  0.00  0.00     0.020 C 
BRANCH  29  30
ATOM     30  C   UNL d   1     -45.145  13.398  21.817  0.00  0.00     0.002 C 
ATOM     31  C   UNL d   1     -45.652  13.297  22.459  0.00  0.00     0.000 C 
ENDBRANCH  29  30
ENDBRANCH  28  29
ENDBRANCH  25  28
ENDBRANCH  22  25
ENDBRANCH   1  22
TORSDOF 9
ENDMDL
MODEL 2
REMARK VINA RESULT:      -3.1      1.900      5.152
REMARK  9 active torsions:
REMARK  status: ('A' for Active; 'I' for Inactive)
REMARK    1  A    between atoms: C_10  and  S_1 
REMARK    2  A    between atoms: N_11  and  S_1 
REMARK    3  A    between atoms: C_8  and  C_2 
REMARK    4  A    between atoms: C_3  and  N_6 
REMARK       I    between atoms: N_6  and  C_9 
REMARK    5  A    between atoms: C_9  and  C_14 
REMARK    6  A    between atoms: C_23  and  N_11 
REMARK    7  A    between atoms: C_24  and  N_11 
REMARK    8  A    between atoms: C_26  and  C_24 
REMARK    9  A    between atoms: C_27  and  C_26 
ROOT
ATOM      1  C   UNL d   1     -39.031  14.802  18.884  0.00  0.00     0.104 A 
ATOM      2  C   UNL d   1     -38.823  14.752  20.529  0.00  0.00     0.058 A 
ATOM      3  C   UNL d   1     -39.102  15.487  19.339  0.00  0.00     0.013 A 
ATOM      4  C   UNL d   1     -38.857  14.101  19.256  0.00  0.00     0.013 A 
ATOM      5  C   UNL d   1     -38.997  15.455  20.161  0.00  0.00     0.005 A 
ATOM      6  C   UNL d   1     -38.752  14.068  20.074  0.00  0.00     0.005 A 
ENDROOT
BRANCH   2   7
ATOM      7  C   UNL d   1     -38.718  14.723  21.359  0.00  0.00     0.282 C 
ATOM      8  N   UNL d   1     -39.375  14.700  21.862  0.00  0.00    -0.165 NA
ATOM      9  O   UNL d   1     -37.969  14.718  21.671  0.00  0.00    -0.265 OA
BRANCH   8  10
ATOM     10  C   UNL d   1     -40.123  14.705  21.552  0.00  0.00     0.297 A 
ATOM     11  O   UNL d   1     -40.626  14.062  21.674  0.00  0.00    -0.253 OA
ATOM     12  C   UNL d   1     -41.337  14.226  21.298  0.00  0.00     0.207 A 
ATOM     13  N   UNL d   1     -41.269  14.963  20.949  0.00  0.00    -0.119 NA
ATOM     14  N   UNL d   1     -40.518  15.266  21.103  0.00  0.00    -0.101 NA
BRANCH  12  15
ATOM     15  C   UNL d   1     -41.968  13.693  21.310  0.00  0.00     0.054 A 
ATOM     16  C   UNL d   1     -42.708  13.940  21.046  0.00  0.00     0.061 A 
ATOM     17 CL   UNL d   1     -42.816  14.710  20.773  0.00  0.00    -0.082 Cl
ATOM     18  C   UNL d   1     -43.338  13.411  21.058  0.00  0.00     0.011 A 
ATOM     19  C   UNL d   1     -43.243  12.628  21.333  0.00  0.00     0.001 A 
ATOM     20  C   UNL d   1     -42.511  12.382  21.594  0.00  0.00     0.000 A 
ATOM     21  C   UNL d   1     -41.871  12.917  21.583  0.00  0.00     0.004 A 
ENDBRANCH  12  15
ENDBRANCH   8  10
ENDBRANCH   2   7
BRANCH   1  22
ATOM     22  S   UNL d   1     -39.136  14.823  18.056  0.00  0.00     0.271 S 
ATOM     23  O   UNL d   1     -38.823  15.591  18.026  0.00  0.00    -0.200 OA
ATOM     24  O   UNL d   1     -39.447  14.059  18.088  0.00  0.00    -0.200 OA
BRANCH  22  25
ATOM     25  N   UNL d   1     -39.241  14.845  17.215  0.00  0.00    -0.229 N 
BRANCH  25  26
ATOM     26  C   UNL d   1     -39.988  14.953  16.883  0.00  0.00     0.092 C 
ATOM     27  C   UNL d   1     -40.122  15.573  16.354  0.00  0.00     0.021 C 
ENDBRANCH  25  26
BRANCH  25  28
ATOM     28  C   UNL d   1     -38.584  14.756  16.727  0.00  0.00     0.092 C 
BRANCH  28  29
ATOM     29  C   UNL d   1     -38.636  14.269  16.064  0.00  0.00     0.020 C 
BRANCH  29  30
ATOM     30  C   UNL d   1     -37.983  14.188  15.570  0.00  0.00     0.002 C 
ATOM     31  C   UNL d   1     -37.958  13.570  15.026  0.00  0.00     0.000 C 
ENDBRANCH  29  30
ENDBRANCH  28  29
ENDBRANCH  25  28
ENDBRANCH  22  25
ENDBRANCH   1  22
TORSDOF 9
ENDMDL
MODEL 3
REMARK VINA RESULT:      -3.0      6.058      7.863
REMARK  9 active torsions:
REMARK  status: ('A' for Active; 'I' for Inactive)
REMARK    1  A    between atoms: C_10  and  S_1 
REMARK    2  A    between atoms: N_11  and  S_1 
REMARK    3  A    between atoms: C_8  and  C_2 
REMARK    4  A    between atoms: C_3  and  N_6 
REMARK       I    between atoms: N_6  and  C_9 
REMARK    5  A    between atoms: C_9  and  C_14 
REMARK    6  A    between atoms: C_23  and  N_11 
REMARK    7  A    between atoms: C_24  and  N_11 
REMARK    8  A    between atoms: C_26  and  C_24 
REMARK    9  A    between atoms: C_27  and  C_26 
ROOT
ATOM      1  C   UNL d   1     -48.742  13.940  22.451  0.00  0.00     0.104 A 
ATOM      2  C   UNL d   1     -47.149  14.365  22.264  0.00  0.00     0.058 A 
ATOM      3  C   UNL d   1     -48.385  14.474  22.969  0.00  0.00     0.013 A 
ATOM      4  C   UNL d   1     -48.300  13.624  21.846  0.00  0.00     0.013 A 
ATOM      5  C   UNL d   1     -47.588  14.682  22.869  0.00  0.00     0.005 A 
ATOM      6  C   UNL d   1     -47.507  13.831  21.747  0.00  0.00     0.005 A 
ENDROOT
BRANCH   2   7
ATOM      7  C   UNL d   1     -46.346  14.576  22.166  0.00  0.00     0.282 C 
ATOM      8  N   UNL d   1     -45.748  14.109  22.497  0.00  0.00    -0.165 NA
ATOM      9  O   UNL d   1     -46.152  15.242  21.746  0.00  0.00    -0.265 OA
BRANCH   8  10
ATOM     10  C   UNL d   1     -45.941  13.443  22.918  0.00  0.00     0.297 A 
ATOM     11  O   UNL d   1     -45.481  12.761  22.846  0.00  0.00    -0.253 OA
ATOM     12  C   UNL d   1     -45.809  12.186  23.332  0.00  0.00     0.207 A 
ATOM     13  N   UNL d   1     -46.464  12.515  23.698  0.00  0.00    -0.119 NA
ATOM     14  N   UNL d   1     -46.551  13.294  23.445  0.00  0.00    -0.101 NA
BRANCH  12  15
ATOM     15  C   UNL d   1     -45.482  11.430  23.393  0.00  0.00     0.054 A 
ATOM     16  C   UNL d   1     -45.983  10.781  23.463  0.00  0.00     0.061 A 
ATOM     17 CL   UNL d   1     -46.800  10.885  23.472  0.00  0.00    -0.082 Cl
ATOM     18  C   UNL d   1     -45.659  10.027  23.523  0.00  0.00     0.011 A 
ATOM     19  C   UNL d   1     -44.833   9.906  23.514  0.00  0.00     0.001 A 
ATOM     20  C   UNL d   1     -44.336  10.548  23.445  0.00  0.00     0.000 A 
ATOM     21  C   UNL d   1     -44.663  11.314  23.384  0.00  0.00     0.004 A 
ENDBRANCH  12  15
ENDBRANCH   8  10
ENDBRANCH   2   7
BRANCH   1  22
ATOM     22  S   UNL d   1     -49.544  13.724  22.542  0.00  0.00     0.271 S 
ATOM     23  O   UNL d   1     -49.595  14.167  23.241  0.00  0.00    -0.200 OA
ATOM     24  O   UNL d   1     -49.491  13.283  21.846  0.00  0.00    -0.200 OA
BRANCH  22  25
ATOM     25  N   UNL d   1     -50.357  13.504  22.635  0.00  0.00    -0.229 N 
BRANCH  25  26
ATOM     26  C   UNL d   1     -50.928  13.747  22.091  0.00  0.00     0.092 C 
ATOM     27  C   UNL d   1     -51.059  14.551  21.957  0.00  0.00     0.021 C 
ENDBRANCH  25  26
BRANCH  25  28
ATOM     28  C   UNL d   1     -50.576  13.041  23.280  0.00  0.00     0.092 C 
BRANCH  28  29
ATOM     29  C   UNL d   1     -50.852  12.276  23.153  0.00  0.00     0.020 C 
BRANCH  29  30
ATOM     30  C   UNL d   1     -50.673  11.687  23.698  0.00  0.00     0.002 C 
ATOM     31  C   UNL d   1     -50.902  10.909  23.548  0.00  0.00     0.000 C 
ENDBRANCH  29  30
ENDBRANCH  28  29
ENDBRANCH  25  28
ENDBRANCH  22  25
ENDBRANCH   1  22
TORSDOF 9
ENDMDL
MODEL 4
REMARK VINA RESULT:      -3.0      1.068      1.438
REMARK  9 active torsions:
REMARK  status: ('A' for Active; 'I' for Inactive)
REMARK    1  A    between atoms: C_10  and  S_1 
REMARK    2  A    between atoms: N_11  and  S_1 
REMARK    3  A    between atoms: C_8  and  C_2 
REMARK    4  A    between atoms: C_3  and  N_6 
REMARK       I    between atoms: N_6  and  C_9 
REMARK    5  A    between atoms: C_9  and  C_14 
REMARK    6  A    between atoms: C_23  and  N_11 
REMARK    7  A    between atoms: C_24  and  N_11 
REMARK    8  A    between atoms: C_26  and  C_24 
REMARK    9  A    between atoms: C_27  and  C_26 
ROOT
ATOM      1  C   UNL d   1     -41.672  14.067  21.247  0.00  0.00     0.104 A 
ATOM      2  C   UNL d   1     -40.346  15.054  21.104  0.00  0.00     0.058 A 
ATOM      3  C   UNL d   1     -40.908  13.758  21.303  0.00  0.00     0.013 A 
ATOM      4  C   UNL d   1     -41.764  14.865  21.120  0.00  0.00     0.013 A 
ATOM      5  C   UNL d   1     -40.250  14.258  21.231  0.00  0.00     0.005 A 
ATOM      6  C   UNL d   1     -41.109  15.362  21.048  0.00  0.00     0.005 A 
ENDROOT
BRANCH   2   7
ATOM      7  C   UNL d   1     -39.680  15.555  21.032  0.00  0.00     0.282 C 
ATOM      8  N   UNL d   1     -39.329  15.678  20.292  0.00  0.00    -0.165 NA
ATOM      9  O   UNL d   1     -39.377  15.922  21.688  0.00  0.00    -0.265 OA
BRANCH   8  10
ATOM     10  C   UNL d   1     -39.632  15.312  19.634  0.00  0.00     0.297 A 
ATOM     11  O   UNL d   1     -39.152  14.818  19.179  0.00  0.00    -0.253 OA
ATOM     12  C   UNL d   1     -39.607  14.532  18.558  0.00  0.00     0.207 A 
ATOM     13  N   UNL d   1     -40.358  14.849  18.634  0.00  0.00    -0.119 NA
ATOM     14  N   UNL d   1     -40.380  15.334  19.300  0.00  0.00    -0.101 NA
BRANCH  12  15
ATOM     15  C   UNL d   1     -39.295  14.017  17.992  0.00  0.00     0.054 A 
ATOM     16  C   UNL d   1     -39.320  14.231  17.198  0.00  0.00     0.061 A 
ATOM     17 CL   UNL d   1     -39.654  14.950  16.971  0.00  0.00    -0.082 Cl
ATOM     18  C   UNL d   1     -39.010  13.720  16.632  0.00  0.00     0.011 A 
ATOM     19  C   UNL d   1     -38.670  12.989  16.847  0.00  0.00     0.001 A 
ATOM     20  C   UNL d   1     -38.643  12.776  17.634  0.00  0.00     0.000 A 
ATOM     21  C   UNL d   1     -38.958  13.293  18.209  0.00  0.00     0.004 A 
ENDBRANCH  12  15
ENDBRANCH   8  10
ENDBRANCH   2   7
BRANCH   1  22
ATOM     22  S   UNL d   1     -42.341  13.574  21.319  0.00  0.00     0.271 S 
ATOM     23  O   UNL d   1     -41.909  12.927  21.031  0.00  0.00    -0.200 OA
ATOM     24  O   UNL d   1     -42.771  14.218  21.605  0.00  0.00    -0.200 OA
BRANCH  22  25
ATOM     25  N   UNL d   1     -43.021  13.072  21.391  0.00  0.00    -0.229 N 
BRANCH  25  26
ATOM     26  C   UNL d   1     -42.943  12.252  21.425  0.00  0.00     0.092 C 
ATOM     27  C   UNL d   1     -43.021  11.856  22.145  0.00  0.00     0.021 C 
ENDBRANCH  25  26
BRANCH  25  28
ATOM     28  C   UNL d   1     -43.769  13.415  21.428  0.00  0.00     0.092 C 
BRANCH  28  29
ATOM     29  C   UNL d   1     -44.414  12.954  21.651  0.00  0.00     0.020 C 
BRANCH  29  30
ATOM     30  C   UNL d   1     -45.165  13.290  21.666  0.00  0.00     0.002 C 
ATOM     31  C   UNL d   1     -45.726  13.011  22.201  0.00  0.00     0.000 C 
ENDBRANCH  29  30
ENDBRANCH  28  29
ENDBRANCH  25  28
ENDBRANCH  22  25
ENDBRANCH   1  22
TORSDOF 9
ENDMDL
MODEL 5
REMARK VINA RESULT:      -2.4      4.309      8.035
REMARK  9 active torsions:
REMARK  status: ('A' for Active; 'I' for Inactive)
REMARK    1  A    between atoms: C_10  and  S_1 
REMARK    2  A    between atoms: N_11  and  S_1 
REMARK    3  A    between atoms: C_8  and  C_2 
REMARK    4  A    between atoms: C_3  and  N_6 
REMARK       I    between atoms: N_6  and  C_9 
REMARK    5  A    between atoms: C_9  and  C_14 
REMARK    6  A    between atoms: C_23  and  N_11 
REMARK    7  A    between atoms: C_24  and  N_11 
REMARK    8  A    between atoms: C_26  and  C_24 
REMARK    9  A    between atoms: C_27  and  C_26 
ROOT
ATOM      1  C   UNL d   1     -45.787  13.519  22.242  0.00  0.00     0.104 A 
ATOM      2  C   UNL d   1     -47.101  14.531  22.197  0.00  0.00     0.058 A 
ATOM      3  C   UNL d   1     -45.804  14.208  22.696  0.00  0.00     0.013 A 
ATOM      4  C   UNL d   1     -46.426  13.343  21.771  0.00  0.00     0.013 A 
ATOM      5  C   UNL d   1     -46.464  14.709  22.669  0.00  0.00     0.005 A 
ATOM      6  C   UNL d   1     -47.083  13.842  21.744  0.00  0.00     0.005 A 
ENDROOT
BRANCH   2   7
ATOM      7  C   UNL d   1     -47.765  15.039  22.172  0.00  0.00     0.282 C 
ATOM      8  N   UNL d   1     -48.467  14.827  22.558  0.00  0.00    -0.165 NA
ATOM      9  O   UNL d   1     -47.722  15.740  21.768  0.00  0.00    -0.265 OA
BRANCH   8  10
ATOM     10  C   UNL d   1     -48.511  14.126  22.962  0.00  0.00     0.297 A 
ATOM     11  O   UNL d   1     -49.202  13.675  22.934  0.00  0.00    -0.253 OA
ATOM     12  C   UNL d   1     -49.082  13.004  23.391  0.00  0.00     0.207 A 
ATOM     13  N   UNL d   1     -48.323  13.045  23.697  0.00  0.00    -0.119 NA
ATOM     14  N   UNL d   1     -47.964  13.739  23.434  0.00  0.00    -0.101 NA
BRANCH  12  15
ATOM     15  C   UNL d   1     -49.669  12.430  23.482  0.00  0.00     0.054 A 
ATOM     16  C   UNL d   1     -49.448  11.646  23.606  0.00  0.00     0.061 A 
ATOM     17 CL   UNL d   1     -48.651  11.439  23.638  0.00  0.00    -0.082 Cl
ATOM     18  C   UNL d   1     -50.030  11.073  23.697  0.00  0.00     0.011 A 
ATOM     19  C   UNL d   1     -50.841  11.268  23.667  0.00  0.00     0.001 A 
ATOM     20  C   UNL d   1     -51.062  12.044  23.545  0.00  0.00     0.000 A 
ATOM     21  C   UNL d   1     -50.472  12.627  23.452  0.00  0.00     0.004 A 
ENDBRANCH  12  15
ENDBRANCH   8  10
ENDBRANCH   2   7
BRANCH   1  22
ATOM     22  S   UNL d   1     -45.128  13.007  22.262  0.00  0.00     0.271 S 
ATOM     23  O   UNL d   1     -45.096  12.998  21.433  0.00  0.00    -0.200 OA
ATOM     24  O   UNL d   1     -45.160  13.016  23.087  0.00  0.00    -0.200 OA
BRANCH  22  25
ATOM     25  N   UNL d   1     -44.458  12.487  22.282  0.00  0.00    -0.229 N 
BRANCH  25  26
ATOM     26  C   UNL d   1     -44.553  11.675  22.386  0.00  0.00     0.092 C 
ATOM     27  C   UNL d   1     -44.056  11.261  22.900  0.00  0.00     0.021 C 
ENDBRANCH  25  26
BRANCH  25  28
ATOM     28  C   UNL d   1     -43.703  12.804  22.195  0.00  0.00     0.092 C 
BRANCH  28  29
ATOM     29  C   UNL d   1     -43.254  12.602  21.534  0.00  0.00     0.020 C 
BRANCH  29  30
ATOM     30  C   UNL d   1     -42.442  12.737  21.542  0.00  0.00     0.002 C 
ATOM     31  C   UNL d   1     -42.055  12.934  20.842  0.00  0.00     0.000 C 
ENDBRANCH  29  30
ENDBRANCH  28  29
ENDBRANCH  25  28
ENDBRANCH  22  25
ENDBRANCH   1  22
TORSDOF 9
ENDMDL
MODEL 6
REMARK VINA RESULT:      -2.0      2.825      3.742
REMARK  9 active torsions:
REMARK  status: ('A' for Active; 'I' for Inactive)
REMARK    1  A    between atoms: C_10  and  S_1 
REMARK    2  A    between atoms: N_11  and  S_1 
REMARK    3  A    between atoms: C_8  and  C_2 
REMARK    4  A    between atoms: C_3  and  N_6 
REMARK       I    between atoms: N_6  and  C_9 
REMARK    5  A    between atoms: C_9  and  C_14 
REMARK    6  A    between atoms: C_23  and  N_11 
REMARK    7  A    between atoms: C_24  and  N_11 
REMARK    8  A    between atoms: C_26  and  C_24 
REMARK    9  A    between atoms: C_27  and  C_26 
ROOT
ATOM      1  C   UNL d   1     -39.735  14.537  19.929  0.00  0.00     0.104 A 
ATOM      2  C   UNL d   1     -40.620  15.311  18.758  0.00  0.00     0.058 A 
ATOM      3  C   UNL d   1     -39.777  15.362  19.908  0.00  0.00     0.013 A 
ATOM      4  C   UNL d   1     -40.136  14.110  19.365  0.00  0.00     0.013 A 
ATOM      5  C   UNL d   1     -40.221  15.742  19.319  0.00  0.00     0.005 A 
ATOM      6  C   UNL d   1     -40.578  14.488  18.780  0.00  0.00     0.005 A 
ENDROOT
BRANCH   2   7
ATOM      7  C   UNL d   1     -41.067  15.698  18.166  0.00  0.00     0.282 C 
ATOM      8  N   UNL d   1     -40.731  15.855  17.425  0.00  0.00    -0.165 NA
ATOM      9  O   UNL d   1     -41.831  15.921  18.318  0.00  0.00    -0.265 OA
BRANCH   8  10
ATOM     10  C   UNL d   1     -39.967  15.632  17.272  0.00  0.00     0.297 A 
ATOM     11  O   UNL d   1     -39.807  15.080  16.679  0.00  0.00    -0.253 OA
ATOM     12  C   UNL d   1     -38.995  14.968  16.654  0.00  0.00     0.207 A 
ATOM     13  N   UNL d   1     -38.660  15.448  17.227  0.00  0.00    -0.119 NA
ATOM     14  N   UNL d   1     -39.258  15.862  17.613  0.00  0.00    -0.101 NA
BRANCH  12  15
ATOM     15  C   UNL d   1     -38.645  14.446  16.118  0.00  0.00     0.054 A 
ATOM     16  C   UNL d   1     -38.542  14.682  15.336  0.00  0.00     0.061 A 
ATOM     17 CL   UNL d   1     -38.787  15.430  15.092  0.00  0.00    -0.082 Cl
ATOM     18  C   UNL d   1     -38.194  14.164  14.800  0.00  0.00     0.011 A 
ATOM     19  C   UNL d   1     -37.942  13.403  15.033  0.00  0.00     0.001 A 
ATOM     20  C   UNL d   1     -38.042  13.167  15.807  0.00  0.00     0.000 A 
ATOM     21  C   UNL d   1     -38.396  13.692  16.351  0.00  0.00     0.004 A 
ENDBRANCH  12  15
ENDBRANCH   8  10
ENDBRANCH   2   7
BRANCH   1  22
ATOM     22  S   UNL d   1     -39.291  14.144  20.517  0.00  0.00     0.271 S 
ATOM     23  O   UNL d   1     -39.628  13.418  20.301  0.00  0.00    -0.200 OA
ATOM     24  O   UNL d   1     -38.956  14.868  20.731  0.00  0.00    -0.200 OA
BRANCH  22  25
ATOM     25  N   UNL d   1     -38.841  13.745  21.113  0.00  0.00    -0.229 N 
BRANCH  25  26
ATOM     26  C   UNL d   1     -38.075  13.479  20.961  0.00  0.00     0.092 C 
ATOM     27  C   UNL d   1     -37.950  12.715  20.673  0.00  0.00     0.021 C 
ENDBRANCH  25  26
BRANCH  25  28
ATOM     28  C   UNL d   1     -39.177  13.623  21.855  0.00  0.00     0.092 C 
BRANCH  28  29
ATOM     29  C   UNL d   1     -39.160  14.231  22.411  0.00  0.00     0.020 C 
BRANCH  29  30
ATOM     30  C   UNL d   1     -38.524  14.286  22.929  0.00  0.00     0.002 C 
ATOM     31  C   UNL d   1     -38.608  14.700  23.636  0.00  0.00     0.000 C 
ENDBRANCH  29  30
ENDBRANCH  28  29
ENDBRANCH  25  28
ENDBRANCH  22  25
ENDBRANCH   1  22
TORSDOF 9
ENDMDL
MODEL 7
REMARK VINA RESULT:      -1.9      3.377      5.599
REMARK  9 active torsions:
REMARK  status: ('A' for Active; 'I' for Inactive)
REMARK    1  A    between atoms: C_10  and  S_1 
REMARK    2  A    between atoms: N_11  and  S_1 
REMARK    3  A    between atoms: C_8  and  C_2 
REMARK    4  A    between atoms: C_3  and  N_6 
REMARK       I    between atoms: N_6  and  C_9 
REMARK    5  A    between atoms: C_9  and  C_14 
REMARK    6  A    between atoms: C_23  and  N_11 
REMARK    7  A    between atoms: C_24  and  N_11 
REMARK    8  A    between atoms: C_26  and  C_24 
REMARK    9  A    between atoms: C_27  and  C_26 
ROOT
ATOM      1  C   UNL d   1     -46.710  12.905  22.668  0.00  0.00     0.104 A 
ATOM      2  C   UNL d   1     -45.479  11.839  22.987  0.00  0.00     0.058 A 
ATOM      3  C   UNL d   1     -46.620  12.217  22.219  0.00  0.00     0.013 A 
ATOM      4  C   UNL d   1     -46.184  13.052  23.270  0.00  0.00     0.013 A 
ATOM      5  C   UNL d   1     -46.002  11.689  22.384  0.00  0.00     0.005 A 
ATOM      6  C   UNL d   1     -45.569  12.526  23.435  0.00  0.00     0.005 A 
ENDROOT
BRANCH   2   7
ATOM      7  C   UNL d   1     -44.856  11.304  23.151  0.00  0.00     0.282 C 
ATOM      8  N   UNL d   1     -44.132  11.374  22.756  0.00  0.00    -0.165 NA
ATOM      9  O   UNL d   1     -44.964  10.716  23.698  0.00  0.00    -0.265 OA
BRANCH   8  10
ATOM     10  C   UNL d   1     -44.024  11.962  22.208  0.00  0.00     0.297 A 
ATOM     11  O   UNL d   1     -43.286  12.323  22.130  0.00  0.00    -0.253 OA
ATOM     12  C   UNL d   1     -43.346  12.890  21.539  0.00  0.00     0.207 A 
ATOM     13  N   UNL d   1     -44.115  12.874  21.259  0.00  0.00    -0.119 NA
ATOM     14  N   UNL d   1     -44.540  12.301  21.670  0.00  0.00    -0.101 NA
BRANCH  12  15
ATOM     15  C   UNL d   1     -42.702  13.358  21.319  0.00  0.00     0.054 A 
ATOM     16  C   UNL d   1     -42.794  14.175  21.282  0.00  0.00     0.061 A 
ATOM     17 CL   UNL d   1     -43.520  14.521  21.463  0.00  0.00    -0.082 Cl
ATOM     18  C   UNL d   1     -42.154  14.643  21.062  0.00  0.00     0.011 A 
ATOM     19  C   UNL d   1     -41.413  14.307  20.876  0.00  0.00     0.001 A 
ATOM     20  C   UNL d   1     -41.321  13.497  20.912  0.00  0.00     0.000 A 
ATOM     21  C   UNL d   1     -41.969  13.022  21.134  0.00  0.00     0.004 A 
ENDBRANCH  12  15
ENDBRANCH   8  10
ENDBRANCH   2   7
BRANCH   1  22
ATOM     22  S   UNL d   1     -47.328  13.443  22.510  0.00  0.00     0.271 S 
ATOM     23  O   UNL d   1     -47.233  13.330  21.694  0.00  0.00    -0.200 OA
ATOM     24  O   UNL d   1     -47.421  13.555  23.323  0.00  0.00    -0.200 OA
BRANCH  22  25
ATOM     25  N   UNL d   1     -47.956  13.990  22.350  0.00  0.00    -0.229 N 
BRANCH  25  26
ATOM     26  C   UNL d   1     -47.964  14.740  22.693  0.00  0.00     0.092 C 
ATOM     27  C   UNL d   1     -47.962  15.415  22.216  0.00  0.00     0.021 C 
ENDBRANCH  25  26
BRANCH  25  28
ATOM     28  C   UNL d   1     -48.564  13.764  21.844  0.00  0.00     0.092 C 
BRANCH  28  29
ATOM     29  C   UNL d   1     -49.342  13.776  22.116  0.00  0.00     0.020 C 
BRANCH  29  30
ATOM     30  C   UNL d   1     -49.942  13.486  21.635  0.00  0.00     0.002 C 
ATOM     31  C   UNL d   1     -50.702  13.396  21.940  0.00  0.00     0.000 C 
ENDBRANCH  29  30
ENDBRANCH  28  29
ENDBRANCH  25  28
ENDBRANCH  22  25
ENDBRANCH   1  22
TORSDOF 9
ENDMDL
MODEL 8
REMARK VINA RESULT:      -1.3      2.265      5.881
REMARK  9 active torsions:
REMARK  status: ('A' for Active; 'I' for Inactive)
REMARK    1  A    between atoms: C_10  and  S_1 
REMARK    2  A    between atoms: N_11  and  S_1 
REMARK    3  A    between atoms: C_8  and  C_2 
REMARK    4  A    between atoms: C_3  and  N_6 
REMARK       I    between atoms: N_6  and  C_9 
REMARK    5  A    between atoms: C_9  and  C_14 
REMARK    6  A    between atoms: C_23  and  N_11 
REMARK    7  A    between atoms: C_24  and  N_11 
REMARK    8  A    between atoms: C_26  and  C_24 
REMARK    9  A    between atoms: C_27  and  C_26 
ROOT
ATOM      1  C   UNL d   1     -42.249  13.316  21.198  0.00  0.00     0.104 A 
ATOM      2  C   UNL d   1     -43.114  12.162  22.018  0.00  0.00     0.058 A 
ATOM      3  C   UNL d   1     -42.854  12.897  20.824  0.00  0.00     0.013 A 
ATOM      4  C   UNL d   1     -42.083  13.153  21.978  0.00  0.00     0.013 A 
ATOM      5  C   UNL d   1     -43.283  12.322  21.240  0.00  0.00     0.005 A 
ATOM      6  C   UNL d   1     -42.510  12.580  22.392  0.00  0.00     0.005 A 
ENDROOT
BRANCH   2   7
ATOM      7  C   UNL d   1     -43.549  11.581  22.434  0.00  0.00     0.282 C 
ATOM      8  N   UNL d   1     -44.332  11.727  22.659  0.00  0.00    -0.165 NA
ATOM      9  O   UNL d   1     -43.201  10.872  22.619  0.00  0.00    -0.265 OA
BRANCH   8  10
ATOM     10  C   UNL d   1     -44.681  12.435  22.475  0.00  0.00     0.297 A 
ATOM     11  O   UNL d   1     -45.492  12.540  22.590  0.00  0.00    -0.253 OA
ATOM     12  C   UNL d   1     -45.681  13.304  22.357  0.00  0.00     0.207 A 
ATOM     13  N   UNL d   1     -44.991  13.663  22.101  0.00  0.00    -0.119 NA
ATOM     14  N   UNL d   1     -44.367  13.129  22.172  0.00  0.00    -0.101 NA
BRANCH  12  15
ATOM     15  C   UNL d   1     -46.454  13.592  22.400  0.00  0.00     0.054 A 
ATOM     16  C   UNL d   1     -46.584  14.349  22.697  0.00  0.00     0.061 A 
ATOM     17 CL   UNL d   1     -45.950  14.811  22.948  0.00  0.00    -0.082 Cl
ATOM     18  C   UNL d   1     -47.353  14.638  22.741  0.00  0.00     0.011 A 
ATOM     19  C   UNL d   1     -48.005  14.181  22.491  0.00  0.00     0.001 A 
ATOM     20  C   UNL d   1     -47.878  13.431  22.196  0.00  0.00     0.000 A 
ATOM     21  C   UNL d   1     -47.098  13.136  22.151  0.00  0.00     0.004 A 
ENDBRANCH  12  15
ENDBRANCH   8  10
ENDBRANCH   2   7
BRANCH   1  22
ATOM     22  S   UNL d   1     -41.811  13.897  20.789  0.00  0.00     0.271 S 
ATOM     23  O   UNL d   1     -41.357  14.047  21.467  0.00  0.00    -0.200 OA
ATOM     24  O   UNL d   1     -42.264  13.747  20.116  0.00  0.00    -0.200 OA
BRANCH  22  25
ATOM     25  N   UNL d   1     -41.366  14.487  20.374  0.00  0.00    -0.229 N 
BRANCH  25  26
ATOM     26  C   UNL d   1     -41.620  15.272  20.349  0.00  0.00     0.092 C 
ATOM     27  C   UNL d   1     -41.219  15.852  20.777  0.00  0.00     0.021 C 
ENDBRANCH  25  26
BRANCH  25  28
ATOM     28  C   UNL d   1     -40.670  14.269  19.992  0.00  0.00     0.092 C 
BRANCH  28  29
ATOM     29  C   UNL d   1     -40.547  14.504  19.212  0.00  0.00     0.020 C 
BRANCH  29  30
ATOM     30  C   UNL d   1     -39.898  14.211  18.800  0.00  0.00     0.002 C 
ATOM     31  C   UNL d   1     -39.854  14.313  17.983  0.00  0.00     0.000 C 
ENDBRANCH  29  30
ENDBRANCH  28  29
ENDBRANCH  25  28
ENDBRANCH  22  25
ENDBRANCH   1  22
TORSDOF 9
ENDMDL
MODEL 9
REMARK VINA RESULT:      -0.2      3.217      6.569
REMARK  9 active torsions:
REMARK  status: ('A' for Active; 'I' for Inactive)
REMARK    1  A    between atoms: C_10  and  S_1 
REMARK    2  A    between atoms: N_11  and  S_1 
REMARK    3  A    between atoms: C_8  and  C_2 
REMARK    4  A    between atoms: C_3  and  N_6 
REMARK       I    between atoms: N_6  and  C_9 
REMARK    5  A    between atoms: C_9  and  C_14 
REMARK    6  A    between atoms: C_23  and  N_11 
REMARK    7  A    between atoms: C_24  and  N_11 
REMARK    8  A    between atoms: C_26  and  C_24 
REMARK    9  A    between atoms: C_27  and  C_26 
ROOT
ATOM      1  C   UNL d   1     -43.988  12.592  21.921  0.00  0.00     0.104 A 
ATOM      2  C   UNL d   1     -45.137  11.763  22.783  0.00  0.00     0.058 A 
ATOM      3  C   UNL d   1     -44.757  12.516  21.633  0.00  0.00     0.013 A 
ATOM      4  C   UNL d   1     -43.801  12.253  22.636  0.00  0.00     0.013 A 
ATOM      5  C   UNL d   1     -45.327  12.100  22.069  0.00  0.00     0.005 A 
ATOM      6  C   UNL d   1     -44.368  11.839  23.071  0.00  0.00     0.005 A 
ENDROOT
BRANCH   2   7
ATOM      7  C   UNL d   1     -45.714  11.344  23.221  0.00  0.00     0.282 C 
ATOM      8  N   UNL d   1     -46.350  11.747  23.566  0.00  0.00    -0.165 NA
ATOM      9  O   UNL d   1     -45.650  10.540  23.308  0.00  0.00    -0.265 OA
BRANCH   8  10
ATOM     10  C   UNL d   1     -46.415  12.550  23.479  0.00  0.00     0.297 A 
ATOM     11  O   UNL d   1     -47.098  12.877  23.152  0.00  0.00    -0.253 OA
ATOM     12  C   UNL d   1     -47.003  13.693  23.136  0.00  0.00     0.207 A 
ATOM     13  N   UNL d   1     -46.266  13.862  23.451  0.00  0.00    -0.119 NA
ATOM     14  N   UNL d   1     -45.897  13.158  23.666  0.00  0.00    -0.101 NA
BRANCH  12  15
ATOM     15  C   UNL d   1     -47.589  14.193  22.839  0.00  0.00     0.054 A 
ATOM     16  C   UNL d   1     -47.384  14.953  22.597  0.00  0.00     0.061 A 
ATOM     17 CL   UNL d   1     -46.603  15.209  22.650  0.00  0.00    -0.082 Cl
ATOM     18  C   UNL d   1     -47.966  15.453  22.301  0.00  0.00     0.011 A 
ATOM     19  C   UNL d   1     -48.762  15.207  22.241  0.00  0.00     0.001 A 
ATOM     20  C   UNL d   1     -48.967  14.454  22.481  0.00  0.00     0.000 A 
ATOM     21  C   UNL d   1     -48.377  13.946  22.781  0.00  0.00     0.004 A 
ENDBRANCH  12  15
ENDBRANCH   8  10
ENDBRANCH   2   7
BRANCH   1  22
ATOM     22  S   UNL d   1     -43.406  13.008  21.490  0.00  0.00     0.271 S 
ATOM     23  O   UNL d   1     -42.941  12.324  21.436  0.00  0.00    -0.200 OA
ATOM     24  O   UNL d   1     -43.871  13.689  21.544  0.00  0.00    -0.200 OA
BRANCH  22  25
ATOM     25  N   UNL d   1     -42.816  13.431  21.052  0.00  0.00    -0.229 N 
BRANCH  25  26
ATOM     26  C   UNL d   1     -42.639  13.230  20.272  0.00  0.00     0.092 C 
ATOM     27  C   UNL d   1     -41.855  13.130  20.036  0.00  0.00     0.021 C 
ENDBRANCH  25  26
BRANCH  25  28
ATOM     28  C   UNL d   1     -42.416  14.052  21.416  0.00  0.00     0.092 C 
BRANCH  28  29
ATOM     29  C   UNL d   1     -42.036  14.615  20.951  0.00  0.00     0.020 C 
BRANCH  29  30
ATOM     30  C   UNL d   1     -41.539  15.165  21.308  0.00  0.00     0.002 C 
ATOM     31  C   UNL d   1     -41.457  15.916  20.979  0.00  0.00     0.000 C 
ENDBRANCH  29  30
ENDBRANCH  28  29
ENDBRANCH  25  28
ENDBRANCH  22  25
ENDBRANCH   1  22
TORSDOF 9
ENDMDL
