MODEL 1
REMARK VINA RESULT:      43.6      0.000      0.000
REMARK  5 active torsions:
REMARK  status: ('A' for Active; 'I' for Inactive)
REMARK    1  A    between atoms: C_2  and  C_1 
REMARK    2  A    between atoms: N_5  and  C_2 
REMARK    3  A    between atoms: C_9  and  C_4 
REMARK    4  A    between atoms: C_21  and  N_10 
REMARK    5  A    between atoms: C_18  and  C_21 
ROOT
ATOM      1  N   UNL d   1      44.437 -13.158  43.976  0.00  0.00    -0.191 NA
ATOM      2  C   UNL d   1      44.527 -13.933  44.226  0.00  0.00     0.103 C 
ATOM      3  C   UNL d   1      44.625 -14.716  44.481  0.00  0.00     0.097 C 
ENDROOT
BRANCH   3   4
ATOM      4  C   UNL d   1      45.354 -14.964  44.760  0.00  0.00     0.091 C 
BRANCH   4   5
ATOM      5  N   UNL d   1      45.590 -15.748  44.645  0.00  0.00    -0.299 N 
ATOM      6  C   UNL d   1      45.046 -16.365  44.734  0.00  0.00     0.100 A 
ATOM      7  C   UNL d   1      45.275 -17.144  44.621  0.00  0.00     0.100 A 
ATOM      8  N   UNL d   1      46.057 -17.312  44.416  0.00  0.00    -0.291 N 
ATOM      9  C   UNL d   1      46.607 -16.708  44.324  0.00  0.00     0.100 A 
ATOM     10  C   UNL d   1      46.373 -15.921  44.439  0.00  0.00     0.100 A 
BRANCH   8  11
ATOM     11  C   UNL d   1      46.287 -18.097  44.302  0.00  0.00     0.143 C 
ATOM     12  S   UNL d   1      46.567 -18.545  44.934  0.00  0.00    -0.057 SA
BRANCH  11  13
ATOM     13  C   UNL d   1      46.236 -18.437  43.543  0.00  0.00     0.126 A 
ATOM     14  O   UNL d   1      46.170 -18.019  42.831  0.00  0.00    -0.305 OA
ATOM     15  C   UNL d   1      46.136 -18.571  42.220  0.00  0.00     0.100 A 
ATOM     16  C   UNL d   1      46.180 -19.331  42.554  0.00  0.00     0.027 A 
ATOM     17  C   UNL d   1      46.242 -19.244  43.370  0.00  0.00     0.029 A 
BRANCH  15  18
ATOM     18  C   UNL d   1      46.069 -18.406  41.417  0.00  0.00     0.024 A 
ATOM     19  C   UNL d   1      46.373 -17.698  41.123  0.00  0.00     0.013 A 
ATOM     20  C   UNL d   1      46.312 -17.519  40.317  0.00  0.00     0.058 A 
ATOM     21 CL   UNL d   1      46.617 -16.809  40.019  0.00  0.00    -0.082 Cl
ATOM     22  C   UNL d   1      45.941 -18.062  39.804  0.00  0.00     0.011 A 
ATOM     23  C   UNL d   1      45.639 -18.769  40.107  0.00  0.00     0.001 A 
ATOM     24  C   UNL d   1      45.703 -18.941  40.911  0.00  0.00     0.002 A 
ENDBRANCH  15  18
ENDBRANCH  11  13
ENDBRANCH   8  11
ENDBRANCH   4   5
ENDBRANCH   3   4
TORSDOF 5
ENDMDL
