MODEL 1
REMARK VINA RESULT:      -7.9      0.000      0.000
REMARK  4 active torsions:
REMARK  status: ('A' for Active; 'I' for Inactive)
REMARK    1  A    between atoms: N_6  and  C_1 
REMARK       I    between atoms: C_9  and  N_6 
REMARK    2  A    between atoms: C_12  and  C_9 
REMARK    3  A    between atoms: O_11  and  C_12 
REMARK    4  A    between atoms: C_15  and  O_11 
ROOT
ATOM      1  C   UNL d   1     -46.994  12.664  23.340  0.00  0.00     0.124 A 
ATOM      2  C   UNL d   1     -46.233  12.797  23.034  0.00  0.00     0.093 A 
ATOM      3  S   UNL d   1     -47.414  13.376  23.290  0.00  0.00    -0.067 SA
ATOM      4  C   UNL d   1     -46.194  13.590  22.799  0.00  0.00     0.018 A 
ATOM      5  C   UNL d   1     -46.914  13.935  22.957  0.00  0.00     0.032 A 
ATOM      6  C   UNL d   1     -45.628  12.228  22.979  0.00  0.00     0.103 C 
ATOM      7  N   UNL d   1     -45.034  11.678  22.922  0.00  0.00    -0.191 NA
ATOM      8  C   UNL d   1     -45.532  13.956  22.463  0.00  0.00     0.001 C 
ATOM      9  C   UNL d   1     -47.113  14.727  22.807  0.00  0.00     0.007 C 
ENDROOT
BRANCH   1  10
ATOM     10  N   UNL d   1     -47.277  11.956  23.637  0.00  0.00    -0.199 NA
ATOM     11  C   UNL d   1     -48.012  11.681  23.397  0.00  0.00     0.305 C 
ATOM     12  O   UNL d   1     -48.298  10.966  23.697  0.00  0.00    -0.263 OA
BRANCH  11  13
ATOM     13  C   UNL d   1     -48.464  12.100  22.871  0.00  0.00     0.185 C 
BRANCH  13  14
ATOM     14  O   UNL d   1     -49.120  11.771  22.521  0.00  0.00    -0.300 OA
BRANCH  14  15
ATOM     15  C   UNL d   1     -49.734  12.245  22.234  0.00  0.00     0.100 A 
ATOM     16  C   UNL d   1     -49.709  12.495  21.446  0.00  0.00     0.025 A 
ATOM     17  C   UNL d   1     -50.316  12.962  21.165  0.00  0.00     0.002 A 
ATOM     18  C   UNL d   1     -50.939  13.179  21.660  0.00  0.00     0.000 A 
ATOM     19  C   UNL d   1     -50.957  12.927  22.439  0.00  0.00     0.002 A 
ATOM     20  C   UNL d   1     -50.346  12.457  22.722  0.00  0.00     0.025 A 
ENDBRANCH  14  15
ENDBRANCH  13  14
ENDBRANCH  11  13
ENDBRANCH   1  10
TORSDOF 4
ENDMDL
MODEL 2
REMARK VINA RESULT:      -7.9      2.097      4.291
REMARK  4 active torsions:
REMARK  status: ('A' for Active; 'I' for Inactive)
REMARK    1  A    between atoms: N_6  and  C_1 
REMARK       I    between atoms: C_9  and  N_6 
REMARK    2  A    between atoms: C_12  and  C_9 
REMARK    3  A    between atoms: O_11  and  C_12 
REMARK    4  A    between atoms: C_15  and  O_11 
ROOT
ATOM      1  C   UNL d   1     -49.277  14.437  22.154  0.00  0.00     0.124 A 
ATOM      2  C   UNL d   1     -50.001  14.333  22.549  0.00  0.00     0.093 A 
ATOM      3  S   UNL d   1     -49.147  13.767  21.686  0.00  0.00    -0.067 SA
ATOM      4  C   UNL d   1     -50.307  13.599  22.319  0.00  0.00     0.018 A 
ATOM      5  C   UNL d   1     -49.783  13.262  21.795  0.00  0.00     0.032 A 
ATOM      6  C   UNL d   1     -50.345  14.875  23.078  0.00  0.00     0.103 C 
ATOM      7  N   UNL d   1     -50.687  15.400  23.596  0.00  0.00    -0.191 NA
ATOM      8  C   UNL d   1     -51.022  13.275  22.583  0.00  0.00     0.001 C 
ATOM      9  C   UNL d   1     -49.878  12.522  21.428  0.00  0.00     0.007 C 
ENDROOT
BRANCH   1  10
ATOM     10  N   UNL d   1     -48.783  15.086  22.217  0.00  0.00    -0.199 NA
ATOM     11  C   UNL d   1     -48.014  14.985  22.486  0.00  0.00     0.305 C 
ATOM     12  O   UNL d   1     -47.515  15.642  22.550  0.00  0.00    -0.263 OA
BRANCH  11  13
ATOM     13  C   UNL d   1     -47.736  14.253  22.690  0.00  0.00     0.185 C 
BRANCH  13  14
ATOM     14  O   UNL d   1     -47.037  14.164  23.095  0.00  0.00    -0.300 OA
BRANCH  14  15
ATOM     15  C   UNL d   1     -46.650  13.433  23.124  0.00  0.00     0.100 A 
ATOM     16  C   UNL d   1     -46.908  12.868  23.670  0.00  0.00     0.025 A 
ATOM     17  C   UNL d   1     -46.525  12.149  23.697  0.00  0.00     0.002 A 
ATOM     18  C   UNL d   1     -45.894  11.992  23.189  0.00  0.00     0.000 A 
ATOM     19  C   UNL d   1     -45.644  12.557  22.653  0.00  0.00     0.002 A 
ATOM     20  C   UNL d   1     -46.029  13.281  22.624  0.00  0.00     0.025 A 
ENDBRANCH  14  15
ENDBRANCH  13  14
ENDBRANCH  11  13
ENDBRANCH   1  10
TORSDOF 4
ENDMDL
MODEL 3
REMARK VINA RESULT:      -7.7      1.396      3.832
REMARK  4 active torsions:
REMARK  status: ('A' for Active; 'I' for Inactive)
REMARK    1  A    between atoms: N_6  and  C_1 
REMARK       I    between atoms: C_9  and  N_6 
REMARK    2  A    between atoms: C_12  and  C_9 
REMARK    3  A    between atoms: O_11  and  C_12 
REMARK    4  A    between atoms: C_15  and  O_11 
ROOT
ATOM      1  C   UNL d   1     -49.467  12.182  22.183  0.00  0.00     0.124 A 
ATOM      2  C   UNL d   1     -50.169  12.490  22.503  0.00  0.00     0.093 A 
ATOM      3  S   UNL d   1     -49.205  12.706  21.599  0.00  0.00    -0.067 SA
ATOM      4  C   UNL d   1     -50.331  13.201  22.111  0.00  0.00     0.018 A 
ATOM      5  C   UNL d   1     -49.742  13.325  21.564  0.00  0.00     0.032 A 
ATOM      6  C   UNL d   1     -50.620  12.138  23.108  0.00  0.00     0.103 C 
ATOM      7  N   UNL d   1     -51.064  11.800  23.698  0.00  0.00    -0.191 NA
ATOM      8  C   UNL d   1     -50.982  13.690  22.259  0.00  0.00     0.001 C 
ATOM      9  C   UNL d   1     -49.690  13.977  21.050  0.00  0.00     0.007 C 
ENDROOT
BRANCH   1  10
ATOM     10  N   UNL d   1     -49.101  11.485  22.407  0.00  0.00    -0.199 NA
ATOM     11  C   UNL d   1     -48.317  11.500  22.651  0.00  0.00     0.305 C 
ATOM     12  O   UNL d   1     -47.947  10.795  22.877  0.00  0.00    -0.263 OA
BRANCH  11  13
ATOM     13  C   UNL d   1     -47.899  12.193  22.675  0.00  0.00     0.185 C 
BRANCH  13  14
ATOM     14  O   UNL d   1     -47.156  12.228  23.002  0.00  0.00    -0.300 OA
BRANCH  14  15
ATOM     15  C   UNL d   1     -46.667  12.885  22.881  0.00  0.00     0.100 A 
ATOM     16  C   UNL d   1     -46.800  13.567  23.329  0.00  0.00     0.025 A 
ATOM     17  C   UNL d   1     -46.317  14.213  23.209  0.00  0.00     0.002 A 
ATOM     18  C   UNL d   1     -45.709  14.182  22.651  0.00  0.00     0.000 A 
ATOM     19  C   UNL d   1     -45.584  13.503  22.212  0.00  0.00     0.002 A 
ATOM     20  C   UNL d   1     -46.070  12.852  22.332  0.00  0.00     0.025 A 
ENDBRANCH  14  15
ENDBRANCH  13  14
ENDBRANCH  11  13
ENDBRANCH   1  10
TORSDOF 4
ENDMDL
MODEL 4
REMARK VINA RESULT:      -7.6      1.448      2.051
REMARK  4 active torsions:
REMARK  status: ('A' for Active; 'I' for Inactive)
REMARK    1  A    between atoms: N_6  and  C_1 
REMARK       I    between atoms: C_9  and  N_6 
REMARK    2  A    between atoms: C_12  and  C_9 
REMARK    3  A    between atoms: O_11  and  C_12 
REMARK    4  A    between atoms: C_15  and  O_11 
ROOT
ATOM      1  C   UNL d   1     -46.857  13.448  23.052  0.00  0.00     0.124 A 
ATOM      2  C   UNL d   1     -46.199  12.977  22.861  0.00  0.00     0.093 A 
ATOM      3  S   UNL d   1     -47.431  12.955  23.389  0.00  0.00    -0.067 SA
ATOM      4  C   UNL d   1     -46.376  12.200  23.084  0.00  0.00     0.018 A 
ATOM      5  C   UNL d   1     -47.125  12.194  23.403  0.00  0.00     0.032 A 
ATOM      6  C   UNL d   1     -45.496  13.250  22.511  0.00  0.00     0.103 C 
ATOM      7  N   UNL d   1     -44.806  13.509  22.169  0.00  0.00    -0.191 NA
ATOM      8  C   UNL d   1     -45.871  11.550  22.993  0.00  0.00     0.001 C 
ATOM      9  C   UNL d   1     -47.518  11.524  23.698  0.00  0.00     0.007 C 
ENDROOT
BRANCH   1  10
ATOM     10  N   UNL d   1     -46.925  14.253  22.927  0.00  0.00    -0.199 NA
ATOM     11  C   UNL d   1     -47.605  14.554  22.579  0.00  0.00     0.305 C 
ATOM     12  O   UNL d   1     -47.673  15.368  22.453  0.00  0.00    -0.263 OA
BRANCH  11  13
ATOM     13  C   UNL d   1     -48.211  14.065  22.355  0.00  0.00     0.185 C 
BRANCH  13  14
ATOM     14  O   UNL d   1     -48.798  14.321  21.855  0.00  0.00    -0.300 OA
BRANCH  14  15
ATOM     15  C   UNL d   1     -49.524  13.927  21.812  0.00  0.00     0.100 A 
ATOM     16  C   UNL d   1     -49.607  13.303  21.275  0.00  0.00     0.025 A 
ATOM     17  C   UNL d   1     -50.324  12.916  21.234  0.00  0.00     0.002 A 
ATOM     18  C   UNL d   1     -50.951  13.146  21.719  0.00  0.00     0.000 A 
ATOM     19  C   UNL d   1     -50.861  13.764  22.247  0.00  0.00     0.002 A 
ATOM     20  C   UNL d   1     -50.140  14.154  22.290  0.00  0.00     0.025 A 
ENDBRANCH  14  15
ENDBRANCH  13  14
ENDBRANCH  11  13
ENDBRANCH   1  10
TORSDOF 4
ENDMDL
MODEL 5
REMARK VINA RESULT:      -6.5      8.444      9.666
REMARK  4 active torsions:
REMARK  status: ('A' for Active; 'I' for Inactive)
REMARK    1  A    between atoms: N_6  and  C_1 
REMARK       I    between atoms: C_9  and  N_6 
REMARK    2  A    between atoms: C_12  and  C_9 
REMARK    3  A    between atoms: O_11  and  C_12 
REMARK    4  A    between atoms: C_15  and  O_11 
ROOT
ATOM      1  C   UNL d   1     -40.203  14.428  17.782  0.00  0.00     0.124 A 
ATOM      2  C   UNL d   1     -40.215  15.074  17.259  0.00  0.00     0.093 A 
ATOM      3  S   UNL d   1     -39.411  14.263  17.959  0.00  0.00    -0.067 SA
ATOM      4  C   UNL d   1     -39.431  15.299  17.122  0.00  0.00     0.018 A 
ATOM      5  C   UNL d   1     -38.948  14.802  17.550  0.00  0.00     0.032 A 
ATOM      6  C   UNL d   1     -40.899  15.424  16.939  0.00  0.00     0.103 C 
ATOM      7  N   UNL d   1     -41.563  15.769  16.623  0.00  0.00    -0.191 NA
ATOM      8  C   UNL d   1     -39.191  15.922  16.632  0.00  0.00     0.001 C 
ATOM      9  C   UNL d   1     -38.118  14.835  17.569  0.00  0.00     0.007 C 
ENDROOT
BRANCH   1  10
ATOM     10  N   UNL d   1     -40.856  14.028  18.068  0.00  0.00    -0.199 NA
ATOM     11  C   UNL d   1     -41.000  14.014  18.876  0.00  0.00     0.305 C 
ATOM     12  O   UNL d   1     -41.660  13.610  19.166  0.00  0.00    -0.263 OA
BRANCH  11  13
ATOM     13  C   UNL d   1     -40.505  14.391  19.396  0.00  0.00     0.185 C 
BRANCH  13  14
ATOM     14  O   UNL d   1     -40.689  14.454  20.185  0.00  0.00    -0.300 OA
BRANCH  14  15
ATOM     15  C   UNL d   1     -40.154  14.784  20.723  0.00  0.00     0.100 A 
ATOM     16  C   UNL d   1     -40.181  15.599  20.862  0.00  0.00     0.025 A 
ATOM     17  C   UNL d   1     -39.653  15.921  21.393  0.00  0.00     0.002 A 
ATOM     18  C   UNL d   1     -39.105  15.442  21.781  0.00  0.00     0.000 A 
ATOM     19  C   UNL d   1     -39.085  14.636  21.638  0.00  0.00     0.002 A 
ATOM     20  C   UNL d   1     -39.616  14.310  21.104  0.00  0.00     0.025 A 
ENDBRANCH  14  15
ENDBRANCH  13  14
ENDBRANCH  11  13
ENDBRANCH   1  10
TORSDOF 4
ENDMDL
MODEL 6
REMARK VINA RESULT:      -5.7      9.011     10.203
REMARK  4 active torsions:
REMARK  status: ('A' for Active; 'I' for Inactive)
REMARK    1  A    between atoms: N_6  and  C_1 
REMARK       I    between atoms: C_9  and  N_6 
REMARK    2  A    between atoms: C_12  and  C_9 
REMARK    3  A    between atoms: O_11  and  C_12 
REMARK    4  A    between atoms: C_15  and  O_11 
ROOT
ATOM      1  C   UNL d   1     -39.555  14.194  17.531  0.00  0.00     0.124 A 
ATOM      2  C   UNL d   1     -39.352  14.752  16.950  0.00  0.00     0.093 A 
ATOM      3  S   UNL d   1     -40.313  14.381  17.807  0.00  0.00    -0.067 SA
ATOM      4  C   UNL d   1     -39.988  15.276  16.875  0.00  0.00     0.018 A 
ATOM      5  C   UNL d   1     -40.567  15.045  17.398  0.00  0.00     0.032 A 
ATOM      6  C   UNL d   1     -38.636  14.770  16.527  0.00  0.00     0.103 C 
ATOM      7  N   UNL d   1     -37.939  14.794  16.110  0.00  0.00    -0.191 NA
ATOM      8  C   UNL d   1     -40.019  15.920  16.355  0.00  0.00     0.001 C 
ATOM      9  C   UNL d   1     -41.301  15.421  17.502  0.00  0.00     0.007 C 
ENDROOT
BRANCH   1  10
ATOM     10  N   UNL d   1     -39.089  13.572  17.785  0.00  0.00    -0.199 NA
ATOM     11  C   UNL d   1     -38.872  13.524  18.575  0.00  0.00     0.305 C 
ATOM     12  O   UNL d   1     -38.400  12.895  18.832  0.00  0.00    -0.263 OA
BRANCH  11  13
ATOM     13  C   UNL d   1     -39.113  14.083  19.109  0.00  0.00     0.185 C 
BRANCH  13  14
ATOM     14  O   UNL d   1     -38.811  14.106  19.864  0.00  0.00    -0.300 OA
BRANCH  14  15
ATOM     15  C   UNL d   1     -39.086  14.655  20.418  0.00  0.00     0.100 A 
ATOM     16  C   UNL d   1     -38.697  15.382  20.484  0.00  0.00     0.025 A 
ATOM     17  C   UNL d   1     -38.970  15.922  21.031  0.00  0.00     0.002 A 
ATOM     18  C   UNL d   1     -39.621  15.743  21.506  0.00  0.00     0.000 A 
ATOM     19  C   UNL d   1     -39.999  15.021  21.435  0.00  0.00     0.002 A 
ATOM     20  C   UNL d   1     -39.726  14.477  20.885  0.00  0.00     0.025 A 
ENDBRANCH  14  15
ENDBRANCH  13  14
ENDBRANCH  11  13
ENDBRANCH   1  10
TORSDOF 4
ENDMDL
MODEL 7
REMARK VINA RESULT:      -5.5      8.129      9.770
REMARK  4 active torsions:
REMARK  status: ('A' for Active; 'I' for Inactive)
REMARK    1  A    between atoms: N_6  and  C_1 
REMARK       I    between atoms: C_9  and  N_6 
REMARK    2  A    between atoms: C_12  and  C_9 
REMARK    3  A    between atoms: O_11  and  C_12 
REMARK    4  A    between atoms: C_15  and  O_11 
ROOT
ATOM      1  C   UNL d   1     -38.309  13.867  18.701  0.00  0.00     0.124 A 
ATOM      2  C   UNL d   1     -38.568  13.535  17.984  0.00  0.00     0.093 A 
ATOM      3  S   UNL d   1     -38.354  14.690  18.628  0.00  0.00    -0.067 SA
ATOM      4  C   UNL d   1     -38.769  14.159  17.479  0.00  0.00     0.018 A 
ATOM      5  C   UNL d   1     -38.637  14.857  17.876  0.00  0.00     0.032 A 
ATOM      6  C   UNL d   1     -38.612  12.721  17.817  0.00  0.00     0.103 C 
ATOM      7  N   UNL d   1     -38.658  11.928  17.647  0.00  0.00    -0.191 NA
ATOM      8  C   UNL d   1     -39.055  14.075  16.706  0.00  0.00     0.001 C 
ATOM      9  C   UNL d   1     -38.767  15.618  17.570  0.00  0.00     0.007 C 
ENDROOT
BRANCH   1  10
ATOM     10  N   UNL d   1     -38.055  13.453  19.359  0.00  0.00    -0.199 NA
ATOM     11  C   UNL d   1     -38.439  13.559  20.077  0.00  0.00     0.305 C 
ATOM     12  O   UNL d   1     -38.183  13.140  20.742  0.00  0.00    -0.263 OA
BRANCH  11  13
ATOM     13  C   UNL d   1     -39.067  14.066  20.144  0.00  0.00     0.185 C 
BRANCH  13  14
ATOM     14  O   UNL d   1     -39.508  14.106  20.825  0.00  0.00    -0.300 OA
BRANCH  14  15
ATOM     15  C   UNL d   1     -40.137  14.638  20.898  0.00  0.00     0.100 A 
ATOM     16  C   UNL d   1     -40.896  14.388  20.685  0.00  0.00     0.025 A 
ATOM     17  C   UNL d   1     -41.514  14.915  20.757  0.00  0.00     0.002 A 
ATOM     18  C   UNL d   1     -41.381  15.680  21.036  0.00  0.00     0.000 A 
ATOM     19  C   UNL d   1     -40.627  15.920  21.244  0.00  0.00     0.002 A 
ATOM     20  C   UNL d   1     -40.004  15.390  21.172  0.00  0.00     0.025 A 
ENDBRANCH  14  15
ENDBRANCH  13  14
ENDBRANCH  11  13
ENDBRANCH   1  10
TORSDOF 4
ENDMDL
MODEL 8
REMARK VINA RESULT:      -5.2      7.963      9.567
REMARK  4 active torsions:
REMARK  status: ('A' for Active; 'I' for Inactive)
REMARK    1  A    between atoms: N_6  and  C_1 
REMARK       I    between atoms: C_9  and  N_6 
REMARK    2  A    between atoms: C_12  and  C_9 
REMARK    3  A    between atoms: O_11  and  C_12 
REMARK    4  A    between atoms: C_15  and  O_11 
ROOT
ATOM      1  C   UNL d   1     -39.503  14.402  20.613  0.00  0.00     0.124 A 
ATOM      2  C   UNL d   1     -39.499  15.073  21.104  0.00  0.00     0.093 A 
ATOM      3  S   UNL d   1     -40.292  14.206  20.460  0.00  0.00    -0.067 SA
ATOM      4  C   UNL d   1     -40.287  15.282  21.246  0.00  0.00     0.018 A 
ATOM      5  C   UNL d   1     -40.763  14.751  20.853  0.00  0.00     0.032 A 
ATOM      6  C   UNL d   1     -38.820  15.457  21.393  0.00  0.00     0.103 C 
ATOM      7  N   UNL d   1     -38.161  15.836  21.678  0.00  0.00    -0.191 NA
ATOM      8  C   UNL d   1     -40.536  15.921  21.710  0.00  0.00     0.001 C 
ATOM      9  C   UNL d   1     -41.594  14.760  20.848  0.00  0.00     0.007 C 
ENDROOT
BRANCH   1  10
ATOM     10  N   UNL d   1     -38.844  14.007  20.333  0.00  0.00    -0.199 NA
ATOM     11  C   UNL d   1     -38.708  13.969  19.524  0.00  0.00     0.305 C 
ATOM     12  O   UNL d   1     -38.042  13.569  19.241  0.00  0.00    -0.263 OA
BRANCH  11  13
ATOM     13  C   UNL d   1     -39.217  14.316  18.998  0.00  0.00     0.185 C 
BRANCH  13  14
ATOM     14  O   UNL d   1     -39.087  14.280  18.197  0.00  0.00    -0.300 OA
BRANCH  14  15
ATOM     15  C   UNL d   1     -39.536  14.732  17.670  0.00  0.00     0.100 A 
ATOM     16  C   UNL d   1     -40.240  14.414  17.373  0.00  0.00     0.025 A 
ATOM     17  C   UNL d   1     -40.681  14.861  16.854  0.00  0.00     0.002 A 
ATOM     18  C   UNL d   1     -40.428  15.615  16.631  0.00  0.00     0.000 A 
ATOM     19  C   UNL d   1     -39.731  15.922  16.930  0.00  0.00     0.002 A 
ATOM     20  C   UNL d   1     -39.285  15.472  17.452  0.00  0.00     0.025 A 
ENDBRANCH  14  15
ENDBRANCH  13  14
ENDBRANCH  11  13
ENDBRANCH   1  10
TORSDOF 4
ENDMDL
