MODEL 1
REMARK VINA RESULT:     -11.0      0.000      0.000
REMARK  4 active torsions:
REMARK  status: ('A' for Active; 'I' for Inactive)
REMARK    1  A    between atoms: C_6  and  C_1 
REMARK    2  A    between atoms: C_10  and  C_2 
REMARK       I    between atoms: N_14  and  C_6 
REMARK    3  A    between atoms: C_8  and  C_15 
REMARK    4  A    between atoms: C_21  and  N_14 
ROOT
ATOM      1  C   UNL d   1      52.583  32.256  53.450  0.00  0.00     0.283 C 
ATOM      2  N   UNL d   1      52.356  32.635  52.755  0.00  0.00    -0.208 NA
ATOM      3  O   UNL d   1      52.170  32.385  54.155  0.00  0.00    -0.265 OA
ENDROOT
BRANCH   2   4
ATOM      4  C   UNL d   1      51.710  33.148  52.768  0.00  0.00     0.085 A 
ATOM      5  C   UNL d   1      51.003  32.930  53.132  0.00  0.00     0.019 A 
ATOM      6  C   UNL d   1      50.358  33.446  53.143  0.00  0.00     0.003 A 
ATOM      7  C   UNL d   1      50.424  34.185  52.786  0.00  0.00     0.020 A 
ATOM      8  C   UNL d   1      51.126  34.417  52.417  0.00  0.00     0.003 A 
ATOM      9  C   UNL d   1      51.772  33.904  52.404  0.00  0.00     0.019 A 
BRANCH   7  10
ATOM     10  C   UNL d   1      49.782  34.703  52.795  0.00  0.00     0.118 A 
ATOM     11  N   UNL d   1      49.593  35.231  53.398  0.00  0.00    -0.059 NA
ATOM     12  C   UNL d   1      48.912  35.635  53.173  0.00  0.00     0.735 A 
ATOM     13  N   UNL d   1      48.478  36.222  53.559  0.00  0.00    -0.059 NA
ATOM     14  N   UNL d   1      48.682  35.362  52.443  0.00  0.00    -0.136 N 
ATOM     15  C   UNL d   1      47.807  36.530  53.195  0.00  0.00     0.119 A 
ATOM     16  C   UNL d   1      47.571  36.256  52.454  0.00  0.00     0.041 A 
ATOM     17  C   UNL d   1      48.004  35.674  52.075  0.00  0.00     0.100 A 
ATOM     18  C   UNL d   1      49.219  34.785  52.206  0.00  0.00     0.118 A 
ENDBRANCH   7  10
ENDBRANCH   2   4
BRANCH   1  19
ATOM     19  C   UNL d   1      53.228  31.741  53.449  0.00  0.00     0.102 A 
ATOM     20  C   UNL d   1      53.959  31.879  53.798  0.00  0.00     0.116 A 
ATOM     21  N   UNL d   1      54.435  31.212  53.658  0.00  0.00    -0.126 NA
ATOM     22  O   UNL d   1      53.987  30.673  53.223  0.00  0.00    -0.211 OA
ATOM     23  C   UNL d   1      53.241  30.996  53.092  0.00  0.00     0.131 A 
ATOM     24  C   UNL d   1      52.621  30.648  52.684  0.00  0.00     0.029 C 
BRANCH  20  25
ATOM     25  C   UNL d   1      54.185  32.542  54.207  0.00  0.00     0.031 A 
ATOM     26  C   UNL d   1      54.751  33.043  53.897  0.00  0.00     0.059 A 
ATOM     27 CL   UNL d   1      55.096  32.881  53.173  0.00  0.00    -0.082 Cl
ATOM     28  C   UNL d   1      54.976  33.717  54.321  0.00  0.00     0.011 A 
ATOM     29  C   UNL d   1      54.631  33.879  55.046  0.00  0.00     0.001 A 
ATOM     30  C   UNL d   1      54.060  33.378  55.363  0.00  0.00     0.000 A 
ATOM     31  C   UNL d   1      53.835  32.704  54.940  0.00  0.00     0.002 A 
ENDBRANCH  20  25
ENDBRANCH   1  19
TORSDOF 4
ENDMDL
MODEL 2
REMARK VINA RESULT:      -9.6      1.211      2.287
REMARK  4 active torsions:
REMARK  status: ('A' for Active; 'I' for Inactive)
REMARK    1  A    between atoms: C_6  and  C_1 
REMARK    2  A    between atoms: C_10  and  C_2 
REMARK       I    between atoms: N_14  and  C_6 
REMARK    3  A    between atoms: C_8  and  C_15 
REMARK    4  A    between atoms: C_21  and  N_14 
ROOT
ATOM      1  C   UNL d   1      53.030  33.254  53.568  0.00  0.00     0.283 C 
ATOM      2  N   UNL d   1      52.381  33.541  53.986  0.00  0.00    -0.208 NA
ATOM      3  O   UNL d   1      53.016  33.213  52.743  0.00  0.00    -0.265 OA
ENDROOT
BRANCH   2   4
ATOM      4  C   UNL d   1      51.713  33.790  53.571  0.00  0.00     0.085 A 
ATOM      5  C   UNL d   1      51.740  34.457  53.086  0.00  0.00     0.019 A 
ATOM      6  C   UNL d   1      51.069  34.703  52.672  0.00  0.00     0.003 A 
ATOM      7  C   UNL d   1      50.367  34.277  52.745  0.00  0.00     0.020 A 
ATOM      8  C   UNL d   1      50.326  33.608  53.227  0.00  0.00     0.003 A 
ATOM      9  C   UNL d   1      50.995  33.359  53.642  0.00  0.00     0.019 A 
BRANCH   7  10
ATOM     10  C   UNL d   1      49.695  34.520  52.333  0.00  0.00     0.118 A 
ATOM     11  N   UNL d   1      49.475  34.276  51.578  0.00  0.00    -0.059 NA
ATOM     12  C   UNL d   1      48.770  34.657  51.388  0.00  0.00     0.735 A 
ATOM     13  N   UNL d   1      48.301  34.622  50.709  0.00  0.00    -0.059 NA
ATOM     14  N   UNL d   1      48.556  35.129  52.015  0.00  0.00    -0.136 N 
ATOM     15  C   UNL d   1      47.613  35.071  50.673  0.00  0.00     0.119 A 
ATOM     16  C   UNL d   1      47.393  35.551  51.306  0.00  0.00     0.041 A 
ATOM     17  C   UNL d   1      47.861  35.583  51.977  0.00  0.00     0.100 A 
ATOM     18  C   UNL d   1      49.128  35.046  52.601  0.00  0.00     0.118 A 
ENDBRANCH   7  10
ENDBRANCH   2   4
BRANCH   1  19
ATOM     19  C   UNL d   1      53.705  33.002  53.973  0.00  0.00     0.102 A 
ATOM     20  C   UNL d   1      53.974  32.228  54.032  0.00  0.00     0.116 A 
ATOM     21  N   UNL d   1      54.667  32.236  54.489  0.00  0.00    -0.126 NA
ATOM     22  O   UNL d   1      54.813  33.019  54.706  0.00  0.00    -0.211 OA
ATOM     23  C   UNL d   1      54.221  33.495  54.389  0.00  0.00     0.131 A 
ATOM     24  C   UNL d   1      54.151  34.308  54.467  0.00  0.00     0.029 C 
BRANCH  20  25
ATOM     25  C   UNL d   1      53.632  31.568  53.705  0.00  0.00     0.031 A 
ATOM     26  C   UNL d   1      53.369  30.962  54.186  0.00  0.00     0.059 A 
ATOM     27 CL   UNL d   1      53.448  31.013  54.999  0.00  0.00    -0.082 Cl
ATOM     28  C   UNL d   1      53.022  30.293  53.845  0.00  0.00     0.011 A 
ATOM     29  C   UNL d   1      52.943  30.242  53.031  0.00  0.00     0.001 A 
ATOM     30  C   UNL d   1      53.206  30.850  52.543  0.00  0.00     0.000 A 
ATOM     31  C   UNL d   1      53.553  31.518  52.883  0.00  0.00     0.002 A 
ENDBRANCH  20  25
ENDBRANCH   1  19
TORSDOF 4
ENDMDL
