MODEL 1
REMARK VINA RESULT:      95.1      0.000      0.000
REMARK  3 active torsions:
REMARK  status: ('A' for Active; 'I' for Inactive)
REMARK    1  A    between atoms: C_5  and  C_1 
REMARK    2  A    between atoms: C_2  and  C_5 
REMARK    3  A    between atoms: C_12  and  C_5 
ROOT
ATOM      1  C   UNL d   1      60.218  48.916  50.869  0.00  0.00     0.021 C 
ENDROOT
BRANCH   1   2
ATOM      2  C   UNL d   1      60.785  48.402  50.559  0.00  0.00     0.021 A 
ATOM      3  C   UNL d   1      61.459  48.545  50.081  0.00  0.00     0.082 A 
ATOM      4  N   UNL d   1      61.812  47.813  49.947  0.00  0.00    -0.246 NA
ATOM      5  C   UNL d   1      61.728  49.275  49.794  0.00  0.00     0.021 C 
ATOM      6  C   UNL d   1      61.375  47.228  50.327  0.00  0.00     0.081 A 
ATOM      7  C   UNL d   1      60.743  47.600  50.702  0.00  0.00     0.019 A 
ATOM      8  C   UNL d   1      61.455  46.406  50.391  0.00  0.00     0.019 A 
ATOM      9  C   UNL d   1      60.197  47.158  51.136  0.00  0.00     0.002 A 
ATOM     10  C   UNL d   1      60.274  46.340  51.202  0.00  0.00     0.000 A 
ATOM     11  C   UNL d   1      60.894  45.983  50.832  0.00  0.00     0.002 A 
ENDBRANCH   1   2
BRANCH   1  12
ATOM     12  C   UNL d   1      59.581  49.176  50.398  0.00  0.00     0.021 A 
ATOM     13  C   UNL d   1      59.661  49.537  49.667  0.00  0.00     0.082 A 
ATOM     14  N   UNL d   1      58.903  49.707  49.388  0.00  0.00    -0.246 NA
ATOM     15  C   UNL d   1      60.388  49.707  49.268  0.00  0.00     0.021 C 
ATOM     16  C   UNL d   1      58.362  49.449  49.949  0.00  0.00     0.081 A 
ATOM     17  C   UNL d   1      58.780  49.122  50.572  0.00  0.00     0.019 A 
ATOM     18  C   UNL d   1      57.536  49.470  49.973  0.00  0.00     0.019 A 
ATOM     19  C   UNL d   1      58.377  48.812  51.224  0.00  0.00     0.002 A 
ATOM     20  C   UNL d   1      57.549  48.834  51.247  0.00  0.00     0.000 A 
ATOM     21  C   UNL d   1      57.131  49.162  50.624  0.00  0.00     0.002 A 
ENDBRANCH   1  12
BRANCH   1  22
ATOM     22  C   UNL d   1      60.271  49.177  51.640  0.00  0.00     0.082 A 
ATOM     23  N   UNL d   1      59.614  49.173  52.123  0.00  0.00    -0.244 NA
ATOM     24  C   UNL d   1      59.663  49.435  52.898  0.00  0.00     0.099 A 
ATOM     25  C   UNL d   1      60.407  49.707  53.182  0.00  0.00     0.021 A 
ATOM     26  C   UNL d   1      61.040  49.708  52.709  0.00  0.00     0.003 A 
ATOM     27  C   UNL d   1      60.998  49.449  51.936  0.00  0.00     0.019 A 
ENDBRANCH   1  22
TORSDOF 3
ENDMDL
MODEL 2
REMARK VINA RESULT:      97.3      0.344      2.933
REMARK  3 active torsions:
REMARK  status: ('A' for Active; 'I' for Inactive)
REMARK    1  A    between atoms: C_5  and  C_1 
REMARK    2  A    between atoms: C_2  and  C_5 
REMARK    3  A    between atoms: C_12  and  C_5 
ROOT
ATOM      1  C   UNL d   1      60.242  48.878  50.832  0.00  0.00     0.021 C 
ENDROOT
BRANCH   1   2
ATOM      2  C   UNL d   1      59.654  49.174  50.335  0.00  0.00     0.021 A 
ATOM      3  C   UNL d   1      59.695  49.503  49.565  0.00  0.00     0.082 A 
ATOM      4  N   UNL d   1      58.924  49.701  49.351  0.00  0.00    -0.246 NA
ATOM      5  C   UNL d   1      60.372  49.613  49.098  0.00  0.00     0.021 C 
ATOM      6  C   UNL d   1      58.414  49.504  49.967  0.00  0.00     0.081 A 
ATOM      7  C   UNL d   1      58.873  49.179  50.570  0.00  0.00     0.019 A 
ATOM      8  C   UNL d   1      57.595  49.570  50.074  0.00  0.00     0.019 A 
ATOM      9  C   UNL d   1      58.519  48.924  51.270  0.00  0.00     0.002 A 
ATOM     10  C   UNL d   1      57.704  48.988  51.380  0.00  0.00     0.000 A 
ATOM     11  C   UNL d   1      57.262  49.306  50.786  0.00  0.00     0.002 A 
ENDBRANCH   1   2
BRANCH   1  12
ATOM     12  C   UNL d   1      60.769  48.291  50.561  0.00  0.00     0.021 A 
ATOM     13  C   UNL d   1      61.435  48.439  50.108  0.00  0.00     0.082 A 
ATOM     14  N   UNL d   1      61.801  47.715  49.958  0.00  0.00    -0.246 NA
ATOM     15  C   UNL d   1      61.702  49.197  49.841  0.00  0.00     0.021 C 
ATOM     16  C   UNL d   1      61.358  47.126  50.320  0.00  0.00     0.081 A 
ATOM     17  C   UNL d   1      60.721  47.482  50.691  0.00  0.00     0.019 A 
ATOM     18  C   UNL d   1      61.453  46.306  50.358  0.00  0.00     0.019 A 
ATOM     19  C   UNL d   1      60.173  47.020  51.105  0.00  0.00     0.002 A 
ATOM     20  C   UNL d   1      60.269  46.199  51.143  0.00  0.00     0.000 A 
ATOM     21  C   UNL d   1      60.906  45.843  50.772  0.00  0.00     0.002 A 
ENDBRANCH   1  12
BRANCH   1  22
ATOM     22  C   UNL d   1      60.317  49.153  51.597  0.00  0.00     0.082 A 
ATOM     23  N   UNL d   1      61.035  49.431  51.866  0.00  0.00    -0.244 NA
ATOM     24  C   UNL d   1      61.115  49.708  52.633  0.00  0.00     0.099 A 
ATOM     25  C   UNL d   1      60.439  49.698  53.135  0.00  0.00     0.021 A 
ATOM     26  C   UNL d   1      59.747  49.426  52.868  0.00  0.00     0.003 A 
ATOM     27  C   UNL d   1      59.660  49.149  52.105  0.00  0.00     0.019 A 
ENDBRANCH   1  22
TORSDOF 3
ENDMDL
