MODEL 1
REMARK VINA RESULT:      -4.2      0.000      0.000
REMARK  8 active torsions:
REMARK  status: ('A' for Active; 'I' for Inactive)
REMARK    1  A    between atoms: N_4  and  S_1 
REMARK    2  A    between atoms: C_10  and  S_1 
REMARK    3  A    between atoms: C_7  and  N_2 
REMARK    4  A    between atoms: N_3  and  C_6 
REMARK    5  A    between atoms: C_5  and  N_4 
REMARK    6  A    between atoms: C_6  and  C_5 
REMARK    7  A    between atoms: C_11  and  C_6 
REMARK    8  A    between atoms: O_19  and  C_17 
ROOT
ATOM      1  C   UNL d   1     -39.719  14.831  20.183  0.00  0.00     0.086 C 
ENDROOT
BRANCH   1   2
ATOM      2  N   UNL d   1     -39.430  14.619  19.438  0.00  0.00    -0.300 N 
ATOM      3  C   UNL d   1     -38.679  14.275  19.368  0.00  0.00     0.100 A 
ATOM      4  C   UNL d   1     -38.390  14.064  18.628  0.00  0.00     0.100 A 
ATOM      5  N   UNL d   1     -38.845  14.193  17.955  0.00  0.00    -0.300 N 
ATOM      6  C   UNL d   1     -39.590  14.533  18.021  0.00  0.00     0.100 A 
ATOM      7  C   UNL d   1     -39.885  14.748  18.764  0.00  0.00     0.100 A 
BRANCH   5   8
ATOM      8  C   UNL d   1     -38.555  13.981  17.216  0.00  0.00     0.086 A 
ATOM      9  C   UNL d   1     -38.440  14.556  16.641  0.00  0.00     0.110 A 
ATOM     10  C   UNL d   1     -38.149  14.346  15.898  0.00  0.00     0.026 A 
ATOM     11  C   UNL d   1     -37.973  13.550  15.733  0.00  0.00     0.002 A 
ATOM     12  C   UNL d   1     -38.089  12.974  16.311  0.00  0.00     0.002 A 
ATOM     13  C   UNL d   1     -38.379  13.185  17.050  0.00  0.00     0.019 A 
BRANCH   9  14
ATOM     14  O   UNL d   1     -38.614  15.344  16.805  0.00  0.00    -0.327 OA
ATOM     15  C   UNL d   1     -38.661  15.891  16.194  0.00  0.00     0.181 C 
ENDBRANCH   9  14
ENDBRANCH   5   8
ENDBRANCH   1   2
BRANCH   1  16
ATOM     16  C   UNL d   1     -39.234  15.244  20.718  0.00  0.00     0.130 C 
BRANCH  16  17
ATOM     17  N   UNL d   1     -38.887  14.842  21.350  0.00  0.00    -0.155 NA
BRANCH  17  18
ATOM     18  S   UNL d   1     -38.413  15.256  21.889  0.00  0.00     0.285 S 
ATOM     19  O   UNL d   1     -37.941  15.666  22.427  0.00  0.00    -0.198 OA
ATOM     20  O   UNL d   1     -38.439  15.916  21.390  0.00  0.00    -0.198 OA
BRANCH  18  21
ATOM     21  C   UNL d   1     -38.391  14.588  22.386  0.00  0.00     0.105 A 
ATOM     22  C   UNL d   1     -38.797  14.599  23.102  0.00  0.00     0.013 A 
ATOM     23  C   UNL d   1     -38.779  13.944  23.595  0.00  0.00     0.001 A 
ATOM     24  C   UNL d   1     -38.347  13.257  23.373  0.00  0.00     0.000 A 
ATOM     25  C   UNL d   1     -37.940  13.252  22.649  0.00  0.00     0.001 A 
ATOM     26  C   UNL d   1     -37.966  13.920  22.159  0.00  0.00     0.013 A 
ENDBRANCH  18  21
ENDBRANCH  17  18
ENDBRANCH  16  17
ENDBRANCH   1  16
BRANCH   1  27
ATOM     27  C   UNL d   1     -40.489  14.635  20.399  0.00  0.00     0.037 A 
ATOM     28  C   UNL d   1     -40.720  13.847  20.432  0.00  0.00     0.100 A 
ATOM     29  N   UNL d   1     -41.497  13.649  20.650  0.00  0.00    -0.242 NA
ATOM     30  C   UNL d   1     -42.036  14.241  20.833  0.00  0.00     0.099 A 
ATOM     31  C   UNL d   1     -41.806  15.029  20.799  0.00  0.00     0.021 A 
ATOM     32  C   UNL d   1     -41.029  15.227  20.581  0.00  0.00     0.005 A 
ENDBRANCH   1  27
TORSDOF 8
ENDMDL
MODEL 2
REMARK VINA RESULT:      -3.5      1.345      2.741
REMARK  8 active torsions:
REMARK  status: ('A' for Active; 'I' for Inactive)
REMARK    1  A    between atoms: N_4  and  S_1 
REMARK    2  A    between atoms: C_10  and  S_1 
REMARK    3  A    between atoms: C_7  and  N_2 
REMARK    4  A    between atoms: N_3  and  C_6 
REMARK    5  A    between atoms: C_5  and  N_4 
REMARK    6  A    between atoms: C_6  and  C_5 
REMARK    7  A    between atoms: C_11  and  C_6 
REMARK    8  A    between atoms: O_19  and  C_17 
ROOT
ATOM      1  C   UNL d   1     -39.457  14.692  20.435  0.00  0.00     0.086 C 
ENDROOT
BRANCH   1   2
ATOM      2  N   UNL d   1     -39.269  14.599  19.635  0.00  0.00    -0.300 N 
ATOM      3  C   UNL d   1     -38.919  15.223  19.217  0.00  0.00     0.100 A 
ATOM      4  C   UNL d   1     -38.732  15.132  18.422  0.00  0.00     0.100 A 
ATOM      5  N   UNL d   1     -38.891  14.421  18.039  0.00  0.00    -0.300 N 
ATOM      6  C   UNL d   1     -39.238  13.801  18.451  0.00  0.00     0.100 A 
ATOM      7  C   UNL d   1     -39.429  13.888  19.252  0.00  0.00     0.100 A 
BRANCH   5   8
ATOM      8  C   UNL d   1     -38.704  14.331  17.244  0.00  0.00     0.086 A 
ATOM      9  C   UNL d   1     -39.086  14.788  16.679  0.00  0.00     0.110 A 
ATOM     10  C   UNL d   1     -38.899  14.699  15.880  0.00  0.00     0.026 A 
ATOM     11  C   UNL d   1     -38.322  14.146  15.649  0.00  0.00     0.002 A 
ATOM     12  C   UNL d   1     -37.940  13.688  16.218  0.00  0.00     0.002 A 
ATOM     13  C   UNL d   1     -38.127  13.778  17.013  0.00  0.00     0.019 A 
BRANCH   9  14
ATOM     14  O   UNL d   1     -39.656  15.335  16.908  0.00  0.00    -0.327 OA
ATOM     15  C   UNL d   1     -40.011  15.820  16.347  0.00  0.00     0.181 C 
ENDBRANCH   9  14
ENDBRANCH   5   8
ENDBRANCH   1   2
BRANCH   1  16
ATOM     16  C   UNL d   1     -40.158  15.083  20.657  0.00  0.00     0.130 C 
BRANCH  16  17
ATOM     17  N   UNL d   1     -40.850  14.648  20.775  0.00  0.00    -0.155 NA
BRANCH  17  18
ATOM     18  S   UNL d   1     -41.561  15.043  20.928  0.00  0.00     0.285 S 
ATOM     19  O   UNL d   1     -42.271  15.435  21.080  0.00  0.00    -0.198 OA
ATOM     20  O   UNL d   1     -41.163  15.766  20.862  0.00  0.00    -0.198 OA
BRANCH  18  21
ATOM     21  C   UNL d   1     -41.955  14.312  20.993  0.00  0.00     0.105 A 
ATOM     22  C   UNL d   1     -41.952  13.911  21.711  0.00  0.00     0.013 A 
ATOM     23  C   UNL d   1     -42.339  13.191  21.781  0.00  0.00     0.001 A 
ATOM     24  C   UNL d   1     -42.740  12.858  21.120  0.00  0.00     0.000 A 
ATOM     25  C   UNL d   1     -42.739  13.269  20.398  0.00  0.00     0.001 A 
ATOM     26  C   UNL d   1     -42.345  13.996  20.341  0.00  0.00     0.013 A 
ENDBRANCH  18  21
ENDBRANCH  17  18
ENDBRANCH  16  17
ENDBRANCH   1  16
BRANCH   1  27
ATOM     27  C   UNL d   1     -38.953  14.398  21.016  0.00  0.00     0.037 A 
ATOM     28  C   UNL d   1     -38.532  14.915  21.496  0.00  0.00     0.100 A 
ATOM     29  N   UNL d   1     -38.023  14.619  22.082  0.00  0.00    -0.242 NA
ATOM     30  C   UNL d   1     -37.940  13.808  22.182  0.00  0.00     0.099 A 
ATOM     31  C   UNL d   1     -38.360  13.290  21.703  0.00  0.00     0.021 A 
ATOM     32  C   UNL d   1     -38.869  13.587  21.117  0.00  0.00     0.005 A 
ENDBRANCH   1  27
TORSDOF 8
ENDMDL
MODEL 3
REMARK VINA RESULT:      -1.9      2.065      5.262
REMARK  8 active torsions:
REMARK  status: ('A' for Active; 'I' for Inactive)
REMARK    1  A    between atoms: N_4  and  S_1 
REMARK    2  A    between atoms: C_10  and  S_1 
REMARK    3  A    between atoms: C_7  and  N_2 
REMARK    4  A    between atoms: N_3  and  C_6 
REMARK    5  A    between atoms: C_5  and  N_4 
REMARK    6  A    between atoms: C_6  and  C_5 
REMARK    7  A    between atoms: C_11  and  C_6 
REMARK    8  A    between atoms: O_19  and  C_17 
ROOT
ATOM      1  C   UNL d   1     -40.584  14.610  20.646  0.00  0.00     0.086 C 
ENDROOT
BRANCH   1   2
ATOM      2  N   UNL d   1     -41.289  14.235  20.861  0.00  0.00    -0.300 N 
ATOM      3  C   UNL d   1     -41.859  14.645  21.301  0.00  0.00     0.100 A 
ATOM      4  C   UNL d   1     -42.560  14.274  21.515  0.00  0.00     0.100 A 
ATOM      5  N   UNL d   1     -42.698  13.494  21.292  0.00  0.00    -0.300 N 
ATOM      6  C   UNL d   1     -42.135  13.085  20.856  0.00  0.00     0.100 A 
ATOM      7  C   UNL d   1     -41.427  13.455  20.638  0.00  0.00     0.100 A 
BRANCH   5   8
ATOM      8  C   UNL d   1     -43.399  13.123  21.506  0.00  0.00     0.086 A 
ATOM      9  C   UNL d   1     -43.379  12.434  21.952  0.00  0.00     0.110 A 
ATOM     10  C   UNL d   1     -44.082  12.060  22.167  0.00  0.00     0.026 A 
ATOM     11  C   UNL d   1     -44.812  12.384  21.934  0.00  0.00     0.002 A 
ATOM     12  C   UNL d   1     -44.831  13.076  21.487  0.00  0.00     0.002 A 
ATOM     13  C   UNL d   1     -44.129  13.447  21.273  0.00  0.00     0.019 A 
BRANCH   9  14
ATOM     14  O   UNL d   1     -42.657  12.114  22.183  0.00  0.00    -0.327 OA
ATOM     15  C   UNL d   1     -42.636  11.472  22.696  0.00  0.00     0.181 C 
ENDBRANCH   9  14
ENDBRANCH   5   8
ENDBRANCH   1   2
BRANCH   1  16
ATOM     16  C   UNL d   1     -40.559  15.101  19.975  0.00  0.00     0.130 C 
BRANCH  16  17
ATOM     17  N   UNL d   1     -40.268  14.806  19.261  0.00  0.00    -0.155 NA
BRANCH  17  18
ATOM     18  S   UNL d   1     -40.305  15.273  18.578  0.00  0.00     0.285 S 
ATOM     19  O   UNL d   1     -40.341  15.736  17.896  0.00  0.00    -0.198 OA
ATOM     20  O   UNL d   1     -40.798  15.803  18.979  0.00  0.00    -0.198 OA
BRANCH  18  21
ATOM     21  C   UNL d   1     -39.809  14.734  18.181  0.00  0.00     0.105 A 
ATOM     22  C   UNL d   1     -38.999  14.879  18.143  0.00  0.00     0.013 A 
ATOM     23  C   UNL d   1     -38.506  14.352  17.753  0.00  0.00     0.001 A 
ATOM     24  C   UNL d   1     -38.823  13.662  17.390  0.00  0.00     0.000 A 
ATOM     25  C   UNL d   1     -39.641  13.522  17.433  0.00  0.00     0.001 A 
ATOM     26  C   UNL d   1     -40.128  14.062  17.830  0.00  0.00     0.013 A 
ENDBRANCH  18  21
ENDBRANCH  17  18
ENDBRANCH  16  17
ENDBRANCH   1  16
BRANCH   1  27
ATOM     27  C   UNL d   1     -39.903  14.499  21.095  0.00  0.00     0.037 A 
ATOM     28  C   UNL d   1     -39.538  13.763  21.116  0.00  0.00     0.100 A 
ATOM     29  N   UNL d   1     -38.851  13.651  21.569  0.00  0.00    -0.242 NA
ATOM     30  C   UNL d   1     -38.535  14.277  21.998  0.00  0.00     0.099 A 
ATOM     31  C   UNL d   1     -38.899  15.013  21.978  0.00  0.00     0.021 A 
ATOM     32  C   UNL d   1     -39.586  15.124  21.524  0.00  0.00     0.005 A 
ENDBRANCH   1  27
TORSDOF 8
ENDMDL
MODEL 4
REMARK VINA RESULT:      -1.7      1.898      4.626
REMARK  8 active torsions:
REMARK  status: ('A' for Active; 'I' for Inactive)
REMARK    1  A    between atoms: N_4  and  S_1 
REMARK    2  A    between atoms: C_10  and  S_1 
REMARK    3  A    between atoms: C_7  and  N_2 
REMARK    4  A    between atoms: N_3  and  C_6 
REMARK    5  A    between atoms: C_5  and  N_4 
REMARK    6  A    between atoms: C_6  and  C_5 
REMARK    7  A    between atoms: C_11  and  C_6 
REMARK    8  A    between atoms: O_19  and  C_17 
ROOT
ATOM      1  C   UNL d   1     -40.858  14.669  20.384  0.00  0.00     0.086 C 
ENDROOT
BRANCH   1   2
ATOM      2  N   UNL d   1     -41.521  14.277  20.686  0.00  0.00    -0.300 N 
ATOM      3  C   UNL d   1     -42.116  14.707  21.071  0.00  0.00     0.100 A 
ATOM      4  C   UNL d   1     -42.775  14.319  21.372  0.00  0.00     0.100 A 
ATOM      5  N   UNL d   1     -42.846  13.503  21.291  0.00  0.00    -0.300 N 
ATOM      6  C   UNL d   1     -42.258  13.075  20.910  0.00  0.00     0.100 A 
ATOM      7  C   UNL d   1     -41.592  13.461  20.606  0.00  0.00     0.100 A 
BRANCH   5   8
ATOM      8  C   UNL d   1     -43.506  13.117  21.592  0.00  0.00     0.086 A 
ATOM      9  C   UNL d   1     -43.413  12.428  22.029  0.00  0.00     0.110 A 
ATOM     10  C   UNL d   1     -44.073  12.038  22.332  0.00  0.00     0.026 A 
ATOM     11  C   UNL d   1     -44.835  12.344  22.193  0.00  0.00     0.002 A 
ATOM     12  C   UNL d   1     -44.926  13.036  21.754  0.00  0.00     0.002 A 
ATOM     13  C   UNL d   1     -44.267  13.422  21.454  0.00  0.00     0.019 A 
BRANCH   9  14
ATOM     14  O   UNL d   1     -42.660  12.125  22.166  0.00  0.00    -0.327 OA
ATOM     15  C   UNL d   1     -42.561  11.471  22.653  0.00  0.00     0.181 C 
ENDBRANCH   9  14
ENDBRANCH   5   8
ENDBRANCH   1   2
BRANCH   1  16
ATOM     16  C   UNL d   1     -40.355  15.094  20.894  0.00  0.00     0.130 C 
BRANCH  16  17
ATOM     17  N   UNL d   1     -39.752  14.699  21.297  0.00  0.00    -0.155 NA
BRANCH  17  18
ATOM     18  S   UNL d   1     -39.232  15.128  21.778  0.00  0.00     0.285 S 
ATOM     19  O   UNL d   1     -38.712  15.553  22.258  0.00  0.00    -0.198 OA
ATOM     20  O   UNL d   1     -39.584  15.830  21.518  0.00  0.00    -0.198 OA
BRANCH  18  21
ATOM     21  C   UNL d   1     -38.882  14.417  22.036  0.00  0.00     0.105 A 
ATOM     22  C   UNL d   1     -38.292  14.066  21.583  0.00  0.00     0.013 A 
ATOM     23  C   UNL d   1     -37.944  13.366  21.832  0.00  0.00     0.001 A 
ATOM     24  C   UNL d   1     -38.188  13.003  22.552  0.00  0.00     0.000 A 
ATOM     25  C   UNL d   1     -38.784  13.363  23.004  0.00  0.00     0.001 A 
ATOM     26  C   UNL d   1     -39.127  14.070  22.741  0.00  0.00     0.013 A 
ENDBRANCH  18  21
ENDBRANCH  17  18
ENDBRANCH  16  17
ENDBRANCH   1  16
BRANCH   1  27
ATOM     27  C   UNL d   1     -40.691  14.641  19.579  0.00  0.00     0.037 A 
ATOM     28  C   UNL d   1     -40.405  13.948  19.241  0.00  0.00     0.100 A 
ATOM     29  N   UNL d   1     -40.237  13.920  18.428  0.00  0.00    -0.242 NA
ATOM     30  C   UNL d   1     -40.358  14.584  17.960  0.00  0.00     0.099 A 
ATOM     31  C   UNL d   1     -40.644  15.276  18.296  0.00  0.00     0.021 A 
ATOM     32  C   UNL d   1     -40.812  15.304  19.110  0.00  0.00     0.005 A 
ENDBRANCH   1  27
TORSDOF 8
ENDMDL
MODEL 5
REMARK VINA RESULT:      -1.3      1.452      2.919
REMARK  8 active torsions:
REMARK  status: ('A' for Active; 'I' for Inactive)
REMARK    1  A    between atoms: N_4  and  S_1 
REMARK    2  A    between atoms: C_10  and  S_1 
REMARK    3  A    between atoms: C_7  and  N_2 
REMARK    4  A    between atoms: N_3  and  C_6 
REMARK    5  A    between atoms: C_5  and  N_4 
REMARK    6  A    between atoms: C_6  and  C_5 
REMARK    7  A    between atoms: C_11  and  C_6 
REMARK    8  A    between atoms: O_19  and  C_17 
ROOT
ATOM      1  C   UNL d   1     -39.773  15.032  20.304  0.00  0.00     0.086 C 
ENDROOT
BRANCH   1   2
ATOM      2  N   UNL d   1     -39.596  15.057  19.496  0.00  0.00    -0.300 N 
ATOM      3  C   UNL d   1     -39.865  14.454  18.995  0.00  0.00     0.100 A 
ATOM      4  C   UNL d   1     -39.691  14.477  18.192  0.00  0.00     0.100 A 
ATOM      5  N   UNL d   1     -39.249  15.099  17.883  0.00  0.00    -0.300 N 
ATOM      6  C   UNL d   1     -38.982  15.698  18.378  0.00  0.00     0.100 A 
ATOM      7  C   UNL d   1     -39.155  15.679  19.187  0.00  0.00     0.100 A 
BRANCH   5   8
ATOM      8  C   UNL d   1     -39.076  15.122  17.081  0.00  0.00     0.086 A 
ATOM      9  C   UNL d   1     -38.771  14.457  16.709  0.00  0.00     0.110 A 
ATOM     10  C   UNL d   1     -38.596  14.477  15.903  0.00  0.00     0.026 A 
ATOM     11  C   UNL d   1     -38.729  15.174  15.468  0.00  0.00     0.002 A 
ATOM     12  C   UNL d   1     -39.035  15.841  15.843  0.00  0.00     0.002 A 
ATOM     13  C   UNL d   1     -39.209  15.819  16.646  0.00  0.00     0.019 A 
BRANCH   9  14
ATOM     14  O   UNL d   1     -38.639  13.768  17.139  0.00  0.00    -0.327 OA
ATOM     15  C   UNL d   1     -38.013  13.273  16.944  0.00  0.00     0.181 C 
ENDBRANCH   9  14
ENDBRANCH   5   8
ENDBRANCH   1   2
BRANCH   1  16
ATOM     16  C   UNL d   1     -40.515  15.290  20.578  0.00  0.00     0.130 C 
BRANCH  16  17
ATOM     17  N   UNL d   1     -41.127  14.745  20.679  0.00  0.00    -0.155 NA
BRANCH  17  18
ATOM     18  S   UNL d   1     -41.881  15.011  20.892  0.00  0.00     0.285 S 
ATOM     19  O   UNL d   1     -42.634  15.274  21.104  0.00  0.00    -0.198 OA
ATOM     20  O   UNL d   1     -41.629  15.791  20.777  0.00  0.00    -0.198 OA
BRANCH  18  21
ATOM     21  C   UNL d   1     -42.129  14.224  21.006  0.00  0.00     0.105 A 
ATOM     22  C   UNL d   1     -42.010  13.861  21.735  0.00  0.00     0.013 A 
ATOM     23  C   UNL d   1     -42.251  13.086  21.853  0.00  0.00     0.001 A 
ATOM     24  C   UNL d   1     -42.621  12.657  21.230  0.00  0.00     0.000 A 
ATOM     25  C   UNL d   1     -42.737  13.030  20.496  0.00  0.00     0.001 A 
ATOM     26  C   UNL d   1     -42.489  13.813  20.390  0.00  0.00     0.013 A 
ENDBRANCH  18  21
ENDBRANCH  17  18
ENDBRANCH  16  17
ENDBRANCH   1  16
BRANCH   1  27
ATOM     27  C   UNL d   1     -39.215  14.752  20.840  0.00  0.00     0.037 A 
ATOM     28  C   UNL d   1     -38.863  15.267  21.375  0.00  0.00     0.100 A 
ATOM     29  N   UNL d   1     -38.300  14.984  21.917  0.00  0.00    -0.242 NA
ATOM     30  C   UNL d   1     -38.095  14.188  21.919  0.00  0.00     0.099 A 
ATOM     31  C   UNL d   1     -38.446  13.673  21.385  0.00  0.00     0.021 A 
ATOM     32  C   UNL d   1     -39.009  13.956  20.843  0.00  0.00     0.005 A 
ENDBRANCH   1  27
TORSDOF 8
ENDMDL
