MODEL 1
REMARK VINA RESULT:      -4.3      0.000      0.000
REMARK  3 active torsions:
REMARK  status: ('A' for Active; 'I' for Inactive)
REMARK    1  A    between atoms: C_2  and  S_1 
REMARK    2  A    between atoms: N_3  and  S_1 
REMARK    3  A    between atoms: C_8  and  N_3 
ROOT
ATOM      1  S   UNL d   1      57.865  -0.207  30.742  0.00  0.00     0.327 S 
ATOM      2  O   UNL d   1      57.147  -0.136  30.333  0.00  0.00    -0.186 OA
ATOM      3  O   UNL d   1      58.579  -0.278  31.149  0.00  0.00    -0.186 OA
ENDROOT
BRANCH   1   4
ATOM      4  C   UNL d   1      58.276  -0.138  30.032  0.00  0.00     0.116 A 
ATOM      5  C   UNL d   1      58.483  -0.812  29.607  0.00  0.00     0.013 A 
ATOM      6  C   UNL d   1      58.900  -0.743  28.889  0.00  0.00     0.001 A 
ATOM      7  C   UNL d   1      58.282  -1.564  29.886  0.00  0.00     0.001 A 
ATOM      8  C   UNL d   1      59.107  -1.418  28.465  0.00  0.00     0.000 A 
ATOM      9  C   UNL d   1      59.105   0.001  28.601  0.00  0.00     0.000 A 
ATOM     10  C   UNL d   1      58.901  -2.161  28.752  0.00  0.00     0.000 A 
ATOM     11  C   UNL d   1      58.489  -2.239  29.463  0.00  0.00     0.000 A 
ATOM     12  C   UNL d   1      58.898   0.680  29.026  0.00  0.00     0.001 A 
ATOM     13  C   UNL d   1      58.482   0.610  29.745  0.00  0.00     0.014 A 
ENDBRANCH   1   4
BRANCH   1  14
ATOM     14  N   UNL d   1      57.452  -0.276  31.454  0.00  0.00    -0.318 NA
BRANCH  14  15
ATOM     15  C   UNL d   1      57.040  -0.345  32.165  0.00  0.00     0.141 A 
ATOM     16  C   UNL d   1      56.441  -0.894  32.243  0.00  0.00     0.028 A 
ATOM     17  C   UNL d   1      56.033  -0.963  32.948  0.00  0.00     0.101 A 
ATOM     18  C   UNL d   1      55.576  -1.565  32.618  0.00  0.00     0.029 C 
ATOM     19  C   UNL d   1      55.414  -1.441  33.219  0.00  0.00     0.029 C 
ATOM     20  N   UNL d   1      56.224  -0.477  33.584  0.00  0.00    -0.295 NA
ATOM     21  C   UNL d   1      56.828   0.079  33.509  0.00  0.00     0.101 A 
ATOM     22  C   UNL d   1      57.240   0.148  32.798  0.00  0.00     0.028 A 
ATOM     23  C   UNL d   1      57.290   0.682  33.830  0.00  0.00     0.029 C 
ATOM     24  C   UNL d   1      56.863   0.459  34.243  0.00  0.00     0.029 C 
ENDBRANCH  14  15
ENDBRANCH   1  14
TORSDOF 3
ENDMDL
MODEL 2
REMARK VINA RESULT:      -4.1      0.150      1.306
REMARK  3 active torsions:
REMARK  status: ('A' for Active; 'I' for Inactive)
REMARK    1  A    between atoms: C_2  and  S_1 
REMARK    2  A    between atoms: N_3  and  S_1 
REMARK    3  A    between atoms: C_8  and  N_3 
ROOT
ATOM      1  S   UNL d   1      57.794  -0.172  30.683  0.00  0.00     0.327 S 
ATOM      2  O   UNL d   1      57.077   0.054  30.333  0.00  0.00    -0.186 OA
ATOM      3  O   UNL d   1      58.507  -0.396  31.031  0.00  0.00    -0.186 OA
ENDROOT
BRANCH   1   4
ATOM      4  C   UNL d   1      58.168  -0.117  29.951  0.00  0.00     0.116 A 
ATOM      5  C   UNL d   1      58.439  -0.796  29.573  0.00  0.00     0.013 A 
ATOM      6  C   UNL d   1      58.817  -0.740  28.833  0.00  0.00     0.001 A 
ATOM      7  C   UNL d   1      58.339  -1.539  29.921  0.00  0.00     0.001 A 
ATOM      8  C   UNL d   1      59.088  -1.421  28.455  0.00  0.00     0.000 A 
ATOM      9  C   UNL d   1      58.921  -0.005  28.477  0.00  0.00     0.000 A 
ATOM     10  C   UNL d   1      58.983  -2.155  28.811  0.00  0.00     0.000 A 
ATOM     11  C   UNL d   1      58.610  -2.219  29.544  0.00  0.00     0.000 A 
ATOM     12  C   UNL d   1      58.650   0.679  28.855  0.00  0.00     0.001 A 
ATOM     13  C   UNL d   1      58.272   0.623  29.595  0.00  0.00     0.014 A 
ENDBRANCH   1   4
BRANCH   1  14
ATOM     14  N   UNL d   1      57.419  -0.227  31.416  0.00  0.00    -0.318 NA
BRANCH  14  15
ATOM     15  C   UNL d   1      57.045  -0.282  32.149  0.00  0.00     0.141 A 
ATOM     16  C   UNL d   1      57.304   0.165  32.780  0.00  0.00     0.028 A 
ATOM     17  C   UNL d   1      56.933   0.111  33.506  0.00  0.00     0.101 A 
ATOM     18  C   UNL d   1      57.460   0.668  33.811  0.00  0.00     0.029 C 
ATOM     19  C   UNL d   1      57.042   0.468  34.245  0.00  0.00     0.029 C 
ATOM     20  N   UNL d   1      56.294  -0.398  33.605  0.00  0.00    -0.295 NA
ATOM     21  C   UNL d   1      56.028  -0.851  32.971  0.00  0.00     0.101 A 
ATOM     22  C   UNL d   1      56.403  -0.796  32.238  0.00  0.00     0.028 A 
ATOM     23  C   UNL d   1      55.506  -1.408  32.657  0.00  0.00     0.029 C 
ATOM     24  C   UNL d   1      55.391  -1.286  33.268  0.00  0.00     0.029 C 
ENDBRANCH  14  15
ENDBRANCH   1  14
TORSDOF 3
ENDMDL
MODEL 3
REMARK VINA RESULT:      -4.1      0.924      4.586
REMARK  3 active torsions:
REMARK  status: ('A' for Active; 'I' for Inactive)
REMARK    1  A    between atoms: C_2  and  S_1 
REMARK    2  A    between atoms: N_3  and  S_1 
REMARK    3  A    between atoms: C_8  and  N_3 
ROOT
ATOM      1  S   UNL d   1      57.010  -0.762  31.576  0.00  0.00     0.327 S 
ATOM      2  O   UNL d   1      56.636  -0.084  31.279  0.00  0.00    -0.186 OA
ATOM      3  O   UNL d   1      57.381  -1.437  31.871  0.00  0.00    -0.186 OA
ENDROOT
BRANCH   1   4
ATOM      4  C   UNL d   1      56.523  -0.740  32.240  0.00  0.00     0.116 A 
ATOM      5  C   UNL d   1      56.723  -0.266  32.883  0.00  0.00     0.013 A 
ATOM      6  C   UNL d   1      56.231  -0.243  33.555  0.00  0.00     0.001 A 
ATOM      7  C   UNL d   1      57.412   0.191  32.871  0.00  0.00     0.001 A 
ATOM      8  C   UNL d   1      56.432   0.231  34.198  0.00  0.00     0.000 A 
ATOM      9  C   UNL d   1      55.543  -0.694  33.578  0.00  0.00     0.000 A 
ATOM     10  C   UNL d   1      57.120   0.682  34.175  0.00  0.00     0.000 A 
ATOM     11  C   UNL d   1      57.613   0.665  33.513  0.00  0.00     0.000 A 
ATOM     12  C   UNL d   1      55.339  -1.170  32.933  0.00  0.00     0.001 A 
ATOM     13  C   UNL d   1      55.831  -1.193  32.261  0.00  0.00     0.014 A 
ENDBRANCH   1   4
BRANCH   1  14
ATOM     14  N   UNL d   1      57.497  -0.785  30.911  0.00  0.00    -0.318 NA
BRANCH  14  15
ATOM     15  C   UNL d   1      57.985  -0.808  30.245  0.00  0.00     0.141 A 
ATOM     16  C   UNL d   1      58.283  -0.118  29.928  0.00  0.00     0.028 A 
ATOM     17  C   UNL d   1      58.766  -0.141  29.270  0.00  0.00     0.101 A 
ATOM     18  C   UNL d   1      58.827   0.682  29.292  0.00  0.00     0.029 C 
ATOM     19  C   UNL d   1      59.156   0.429  28.813  0.00  0.00     0.029 C 
ATOM     20  N   UNL d   1      58.954  -0.862  28.921  0.00  0.00    -0.295 NA
ATOM     21  C   UNL d   1      58.656  -1.561  29.238  0.00  0.00     0.101 A 
ATOM     22  C   UNL d   1      58.168  -1.538  29.903  0.00  0.00     0.028 A 
ATOM     23  C   UNL d   1      58.589  -2.383  29.223  0.00  0.00     0.029 C 
ATOM     24  C   UNL d   1      58.955  -2.162  28.754  0.00  0.00     0.029 C 
ENDBRANCH  14  15
ENDBRANCH   1  14
TORSDOF 3
ENDMDL
MODEL 4
REMARK VINA RESULT:      -3.7      0.879      1.915
REMARK  3 active torsions:
REMARK  status: ('A' for Active; 'I' for Inactive)
REMARK    1  A    between atoms: C_2  and  S_1 
REMARK    2  A    between atoms: N_3  and  S_1 
REMARK    3  A    between atoms: C_8  and  N_3 
ROOT
ATOM      1  S   UNL d   1      58.019  -0.128  30.650  0.00  0.00     0.327 S 
ATOM      2  O   UNL d   1      58.181  -0.941  30.650  0.00  0.00    -0.186 OA
ATOM      3  O   UNL d   1      57.858   0.681  30.650  0.00  0.00    -0.186 OA
ENDROOT
BRANCH   1   4
ATOM      4  C   UNL d   1      58.416  -0.049  29.932  0.00  0.00     0.116 A 
ATOM      5  C   UNL d   1      59.203   0.194  29.921  0.00  0.00     0.013 A 
ATOM      6  C   UNL d   1      59.605   0.274  29.195  0.00  0.00     0.001 A 
ATOM      7  C   UNL d   1      59.603   0.360  30.624  0.00  0.00     0.001 A 
ATOM      8  C   UNL d   1      60.392   0.517  29.184  0.00  0.00     0.000 A 
ATOM      9  C   UNL d   1      59.216   0.111  28.488  0.00  0.00     0.000 A 
ATOM     10  C   UNL d   1      60.780   0.679  29.891  0.00  0.00     0.000 A 
ATOM     11  C   UNL d   1      60.390   0.603  30.614  0.00  0.00     0.000 A 
ATOM     12  C   UNL d   1      58.426  -0.133  28.497  0.00  0.00     0.001 A 
ATOM     13  C   UNL d   1      58.024  -0.213  29.223  0.00  0.00     0.014 A 
ENDBRANCH   1   4
BRANCH   1  14
ATOM     14  N   UNL d   1      57.621  -0.207  31.368  0.00  0.00    -0.318 NA
BRANCH  14  15
ATOM     15  C   UNL d   1      57.224  -0.287  32.087  0.00  0.00     0.141 A 
ATOM     16  C   UNL d   1      57.433   0.173  32.728  0.00  0.00     0.028 A 
ATOM     17  C   UNL d   1      57.039   0.095  33.439  0.00  0.00     0.101 A 
ATOM     18  C   UNL d   1      57.520   0.681  33.765  0.00  0.00     0.029 C 
ATOM     19  C   UNL d   1      57.099   0.456  34.182  0.00  0.00     0.029 C 
ATOM     20  N   UNL d   1      56.427  -0.450  33.513  0.00  0.00    -0.295 NA
ATOM     21  C   UNL d   1      56.212  -0.917  32.870  0.00  0.00     0.101 A 
ATOM     22  C   UNL d   1      56.610  -0.837  32.151  0.00  0.00     0.028 A 
ATOM     23  C   UNL d   1      55.736  -1.502  32.536  0.00  0.00     0.029 C 
ATOM     24  C   UNL d   1      55.591  -1.390  33.143  0.00  0.00     0.029 C 
ENDBRANCH  14  15
ENDBRANCH   1  14
TORSDOF 3
ENDMDL
