MODEL 1
REMARK VINA RESULT:      44.0      0.000      0.000
REMARK  4 active torsions:
REMARK  status: ('A' for Active; 'I' for Inactive)
REMARK    1  A    between atoms: C_5  and  C_3 
REMARK    2  A    between atoms: C_8  and  C_5 
REMARK    3  A    between atoms: C_7  and  C_9 
REMARK    4  A    between atoms: C_9  and  C_8 
ROOT
ATOM      1  C   UNL d   1     -47.315  31.325  34.797  0.00  0.00     0.042 C 
ENDROOT
BRANCH   1   2
ATOM      2  C   UNL d   1     -47.215  30.820  35.437  0.00  0.00     0.006 C 
BRANCH   2   3
ATOM      3  C   UNL d   1     -47.529  30.049  35.407  0.00  0.00     0.039 A 
ATOM      4  C   UNL d   1     -47.784  29.573  34.770  0.00  0.00     0.122 A 
ATOM      5  N   UNL d   1     -48.040  28.866  35.081  0.00  0.00    -0.164 NA
ATOM      6  N   UNL d   1     -47.954  28.879  35.898  0.00  0.00    -0.227 N 
ATOM      7  C   UNL d   1     -47.634  29.622  36.101  0.00  0.00     0.085 A 
ATOM      8  C   UNL d   1     -48.129  28.308  36.467  0.00  0.00     0.121 C 
ATOM      9  C   UNL d   1     -47.427  29.958  36.825  0.00  0.00     0.021 C 
ENDBRANCH   2   3
ENDBRANCH   1   2
BRANCH   1  10
ATOM     10  C   UNL d   1     -47.310  32.145  34.922  0.00  0.00     0.199 C 
ATOM     11  O   UNL d   1     -46.908  32.468  35.579  0.00  0.00    -0.286 OA
BRANCH  10  12
ATOM     12  C   UNL d   1     -47.708  32.651  34.391  0.00  0.00     0.078 A 
ATOM     13  C   UNL d   1     -47.286  33.076  33.826  0.00  0.00     0.199 A 
ATOM     14  O   UNL d   1     -46.471  32.999  33.788  0.00  0.00    -0.286 OA
ATOM     15  C   UNL d   1     -47.690  33.573  33.307  0.00  0.00     0.042 A 
ATOM     16  C   UNL d   1     -48.516  33.647  33.350  0.00  0.00     0.003 A 
ATOM     17  C   UNL d   1     -48.927  33.225  33.910  0.00  0.00     0.000 A 
ATOM     18  C   UNL d   1     -48.533  32.725  34.434  0.00  0.00     0.006 A 
ENDBRANCH  10  12
ENDBRANCH   1  10
TORSDOF 4
ENDMDL
MODEL 2
REMARK VINA RESULT:      44.5      1.895      3.996
REMARK  4 active torsions:
REMARK  status: ('A' for Active; 'I' for Inactive)
REMARK    1  A    between atoms: C_5  and  C_3 
REMARK    2  A    between atoms: C_8  and  C_5 
REMARK    3  A    between atoms: C_7  and  C_9 
REMARK    4  A    between atoms: C_9  and  C_8 
ROOT
ATOM      1  C   UNL d   1     -47.136  31.018  35.064  0.00  0.00     0.042 C 
ENDROOT
BRANCH   1   2
ATOM      2  C   UNL d   1     -47.358  31.805  35.146  0.00  0.00     0.006 C 
BRANCH   2   3
ATOM      3  C   UNL d   1     -47.397  32.296  34.474  0.00  0.00     0.039 A 
ATOM      4  C   UNL d   1     -46.856  32.441  33.856  0.00  0.00     0.122 A 
ATOM      5  N   UNL d   1     -47.201  32.977  33.349  0.00  0.00    -0.164 NA
ATOM      6  N   UNL d   1     -47.947  33.175  33.629  0.00  0.00    -0.227 N 
ATOM      7  C   UNL d   1     -48.069  32.747  34.334  0.00  0.00     0.085 A 
ATOM      8  C   UNL d   1     -48.518  33.688  33.325  0.00  0.00     0.121 C 
ATOM      9  C   UNL d   1     -48.703  32.713  34.861  0.00  0.00     0.021 C 
ENDBRANCH   2   3
ENDBRANCH   1   2
BRANCH   1  10
ATOM     10  C   UNL d   1     -47.181  30.513  35.719  0.00  0.00     0.199 C 
ATOM     11  O   UNL d   1     -46.859  30.746  36.454  0.00  0.00    -0.286 OA
BRANCH  10  12
ATOM     12  C   UNL d   1     -47.548  29.767  35.647  0.00  0.00     0.078 A 
ATOM     13  C   UNL d   1     -47.906  29.415  36.299  0.00  0.00     0.199 A 
ATOM     14  O   UNL d   1     -47.900  29.802  37.022  0.00  0.00    -0.286 OA
ATOM     15  C   UNL d   1     -48.266  28.678  36.216  0.00  0.00     0.042 A 
ATOM     16  C   UNL d   1     -48.270  28.291  35.481  0.00  0.00     0.003 A 
ATOM     17  C   UNL d   1     -47.914  28.643  34.841  0.00  0.00     0.000 A 
ATOM     18  C   UNL d   1     -47.551  29.380  34.914  0.00  0.00     0.006 A 
ENDBRANCH  10  12
ENDBRANCH   1  10
TORSDOF 4
ENDMDL
