MODEL 1
REMARK VINA RESULT:      54.6      0.000      0.000
REMARK  3 active torsions:
REMARK  status: ('A' for Active; 'I' for Inactive)
REMARK    1  A    between atoms: C_9  and  C_2 
REMARK    2  A    between atoms: C_10  and  C_6 
REMARK    3  A    between atoms: O_18  and  C_9 
ROOT
ATOM      1  C   UNL d   1     -51.573  24.812  33.631  0.00  0.00     0.044 A 
ATOM      2  C   UNL d   1     -52.870  24.449  33.648  0.00  0.00     0.113 A 
ATOM      3  C   UNL d   1     -52.358  25.095  33.677  0.00  0.00     0.116 A 
ATOM      4  C   UNL d   1     -51.605  23.982  33.573  0.00  0.00     0.112 A 
ATOM      5  S   UNL d   1     -52.410  23.758  33.584  0.00  0.00    -0.061 SA
ATOM      6  C   UNL d   1     -50.846  25.189  33.634  0.00  0.00     0.011 A 
ATOM      7  N   UNL d   1     -50.918  23.553  33.520  0.00  0.00    -0.239 NA
ATOM      8  C   UNL d   1     -50.158  24.752  33.580  0.00  0.00     0.018 A 
ATOM      9  C   UNL d   1     -50.190  23.937  33.523  0.00  0.00     0.082 A 
ATOM     10  N   UNL d   1     -52.580  25.885  33.740  0.00  0.00    -0.147 N 
ATOM     11  C   UNL d   1     -49.430  25.145  33.583  0.00  0.00     0.002 A 
ATOM     12  C   UNL d   1     -49.495  23.500  33.469  0.00  0.00     0.019 A 
ATOM     13  C   UNL d   1     -48.740  24.699  33.529  0.00  0.00     0.000 A 
ATOM     14  C   UNL d   1     -48.772  23.877  33.472  0.00  0.00     0.002 A 
ENDROOT
BRANCH   6  15
ATOM     15  C   UNL d   1     -50.821  26.011  33.691  0.00  0.00     0.030 A 
ATOM     16  S   UNL d   1     -50.292  26.518  33.308  0.00  0.00    -0.086 SA
ATOM     17  C   UNL d   1     -50.479  27.290  33.533  0.00  0.00     0.035 A 
ATOM     18  C   UNL d   1     -51.120  27.265  34.052  0.00  0.00     0.007 A 
ATOM     19  C   UNL d   1     -51.331  26.473  34.150  0.00  0.00     0.007 A 
ENDBRANCH   6  15
BRANCH   2  20
ATOM     20  C   UNL d   1     -53.694  24.479  33.678  0.00  0.00     0.303 C 
ATOM     21  O   UNL d   1     -54.126  23.802  33.857  0.00  0.00    -0.259 OA
BRANCH  20  22
ATOM     22  O   UNL d   1     -54.079  25.188  33.528  0.00  0.00    -0.295 OA
ATOM     23  C   UNL d   1     -54.841  25.307  33.820  0.00  0.00     0.185 C 
ENDBRANCH  20  22
ENDBRANCH   2  20
TORSDOF 3
ENDMDL
