MODEL 1
REMARK VINA RESULT:      84.9      0.000      0.000
REMARK  7 active torsions:
REMARK  status: ('A' for Active; 'I' for Inactive)
REMARK       I    between atoms: C_3  and  N_1 
REMARK    1  A    between atoms: C_4  and  N_2 
REMARK    2  A    between atoms: C_15  and  C_3 
REMARK    3  A    between atoms: C_12  and  C_4 
REMARK    4  A    between atoms: C_13  and  C_4 
REMARK    5  A    between atoms: C_5  and  C_17 
REMARK    6  A    between atoms: C_16  and  C_15 
REMARK    7  A    between atoms: C_17  and  C_16 
ROOT
ATOM      1  N   UNL d   1      61.262  46.334  50.282  0.00  0.00    -0.269 N 
ATOM      2  N   UNL d   1      60.720  47.838  50.754  0.00  0.00    -0.301 N 
ATOM      3  C   UNL d   1      61.526  45.586  50.055  0.00  0.00     0.265 C 
ATOM      4  C   UNL d   1      60.813  46.417  50.980  0.00  0.00     0.102 A 
ATOM      5  C   UNL d   1      61.436  47.010  49.825  0.00  0.00     0.102 A 
ATOM      6  C   UNL d   1      61.165  47.758  50.062  0.00  0.00     0.100 A 
ATOM      7  C   UNL d   1      60.537  47.177  51.221  0.00  0.00     0.100 A 
ATOM      8  O   UNL d   1      61.967  45.516  49.367  0.00  0.00    -0.267 OA
ENDROOT
BRANCH   2   9
ATOM      9  C   UNL d   1      60.451  48.582  50.990  0.00  0.00     0.064 C 
BRANCH   9  10
ATOM     10  C   UNL d   1      59.834  48.959  50.573  0.00  0.00     0.016 A 
ATOM     11  C   UNL d   1      59.992  49.309  49.843  0.00  0.00     0.001 A 
ATOM     12  C   UNL d   1      59.378  49.677  49.443  0.00  0.00     0.000 A 
ATOM     13  C   UNL d   1      58.616  49.700  49.757  0.00  0.00     0.000 A 
ATOM     14  C   UNL d   1      58.470  49.347  50.487  0.00  0.00     0.000 A 
ATOM     15  C   UNL d   1      59.080  48.971  50.904  0.00  0.00     0.001 A 
ENDBRANCH   9  10
BRANCH   9  16
ATOM     16  C   UNL d   1      60.792  48.954  51.640  0.00  0.00     0.016 A 
ATOM     17  C   UNL d   1      60.405  48.954  52.362  0.00  0.00     0.001 A 
ATOM     18  C   UNL d   1      60.740  49.324  53.018  0.00  0.00     0.000 A 
ATOM     19  C   UNL d   1      61.478  49.700  52.941  0.00  0.00     0.000 A 
ATOM     20  C   UNL d   1      61.869  49.699  52.208  0.00  0.00     0.000 A 
ATOM     21  C   UNL d   1      61.524  49.326  51.564  0.00  0.00     0.001 A 
ENDBRANCH   9  16
ENDBRANCH   2   9
BRANCH   3  22
ATOM     22  C   UNL d   1      61.351  44.931  50.508  0.00  0.00     0.061 C 
BRANCH  22  23
ATOM     23  C   UNL d   1      61.835  44.271  50.470  0.00  0.00     0.011 C 
BRANCH  23  24
ATOM     24  C   UNL d   1      61.763  43.677  51.030  0.00  0.00     0.070 C 
BRANCH  24  25
ATOM     25  C   UNL d   1      62.322  43.080  51.068  0.00  0.00     0.211 C 
ATOM     26  O   UNL d   1      62.358  42.593  51.717  0.00  0.00    -0.644 OA
ATOM     27  O   UNL d   1      62.852  42.975  50.440  0.00  0.00    -0.644 OA
ENDBRANCH  24  25
ENDBRANCH  23  24
ENDBRANCH  22  23
ENDBRANCH   3  22
TORSDOF 7
ENDMDL
