MODEL 1
REMARK VINA RESULT:      -7.5      0.000      0.000
REMARK  1 active torsions:
REMARK  status: ('A' for Active; 'I' for Inactive)
REMARK       I    between atoms: N_2  and  C_1 
REMARK    1  A    between atoms: C_5  and  N_2 
ROOT
ATOM      1  C   UNL d   1      53.923  32.133  54.017  0.00  0.00     0.100 A 
ATOM      2  C   UNL d   1      54.633  33.411  54.789  0.00  0.00     0.058 A 
ATOM      3 CL   UNL d   1      54.987  34.048  55.171  0.00  0.00    -0.082 Cl
ATOM      4  C   UNL d   1      53.709  32.322  54.797  0.00  0.00     0.021 A 
ATOM      5  C   UNL d   1      54.492  32.584  53.627  0.00  0.00     0.021 A 
ATOM      6  C   UNL d   1      54.064  32.959  55.179  0.00  0.00     0.013 A 
ATOM      7  C   UNL d   1      54.847  33.226  54.016  0.00  0.00     0.013 A 
ENDROOT
BRANCH   1   8
ATOM      8  N   UNL d   1      53.566  31.493  53.637  0.00  0.00    -0.056 NA
ATOM      9  C   UNL d   1      52.923  31.614  53.137  0.00  0.00     0.787 C 
ATOM     10  N   UNL d   1      52.564  30.979  52.756  0.00  0.00     0.064 N 
ATOM     11  N   UNL d   1      52.639  32.380  53.020  0.00  0.00     0.064 N 
ENDBRANCH   1   8
TORSDOF 1
ENDMDL
MODEL 2
REMARK VINA RESULT:      -7.0      2.007      2.819
REMARK  1 active torsions:
REMARK  status: ('A' for Active; 'I' for Inactive)
REMARK       I    between atoms: N_2  and  C_1 
REMARK    1  A    between atoms: C_5  and  N_2 
ROOT
ATOM      1  C   UNL d   1      54.069  32.542  53.746  0.00  0.00     0.100 A 
ATOM      2  C   UNL d   1      52.934  31.513  53.124  0.00  0.00     0.058 A 
ATOM      3 CL   UNL d   1      52.370  31.000  52.816  0.00  0.00    -0.082 Cl
ATOM      4  C   UNL d   1      53.405  32.843  53.348  0.00  0.00     0.021 A 
ATOM      5  C   UNL d   1      54.162  31.727  53.831  0.00  0.00     0.021 A 
ATOM      6  C   UNL d   1      52.841  32.329  53.039  0.00  0.00     0.013 A 
ATOM      7  C   UNL d   1      53.591  31.213  53.519  0.00  0.00     0.013 A 
ENDROOT
BRANCH   1   8
ATOM      8  N   UNL d   1      54.633  33.061  54.054  0.00  0.00    -0.056 NA
ATOM      9  C   UNL d   1      54.636  33.241  54.857  0.00  0.00     0.787 C 
ATOM     10  N   UNL d   1      55.196  33.757  55.168  0.00  0.00     0.064 N 
ATOM     11  N   UNL d   1      54.070  32.899  55.351  0.00  0.00     0.064 N 
ENDBRANCH   1   8
TORSDOF 1
ENDMDL
MODEL 3
REMARK VINA RESULT:      -6.8      1.491      1.919
REMARK  1 active torsions:
REMARK  status: ('A' for Active; 'I' for Inactive)
REMARK       I    between atoms: N_2  and  C_1 
REMARK    1  A    between atoms: C_5  and  N_2 
ROOT
ATOM      1  C   UNL d   1      53.049  33.435  53.915  0.00  0.00     0.100 A 
ATOM      2  C   UNL d   1      54.462  33.503  54.771  0.00  0.00     0.058 A 
ATOM      3 CL   UNL d   1      55.165  33.538  55.199  0.00  0.00    -0.082 Cl
ATOM      4  C   UNL d   1      53.712  33.003  53.663  0.00  0.00     0.021 A 
ATOM      5  C   UNL d   1      53.097  33.900  54.595  0.00  0.00     0.021 A 
ATOM      6  C   UNL d   1      54.415  33.039  54.091  0.00  0.00     0.013 A 
ATOM      7  C   UNL d   1      53.806  33.933  55.024  0.00  0.00     0.013 A 
ENDROOT
BRANCH   1   8
ATOM      8  N   UNL d   1      52.346  33.397  53.484  0.00  0.00    -0.056 NA
ATOM      9  C   UNL d   1      52.118  34.027  53.006  0.00  0.00     0.787 C 
ATOM     10  N   UNL d   1      51.418  33.993  52.575  0.00  0.00     0.064 N 
ATOM     11  N   UNL d   1      52.598  34.697  52.962  0.00  0.00     0.064 N 
ENDBRANCH   1   8
TORSDOF 1
ENDMDL
MODEL 4
REMARK VINA RESULT:      -6.7      2.520      3.032
REMARK  1 active torsions:
REMARK  status: ('A' for Active; 'I' for Inactive)
REMARK       I    between atoms: N_2  and  C_1 
REMARK    1  A    between atoms: C_5  and  N_2 
ROOT
ATOM      1  C   UNL d   1      52.945  33.854  54.093  0.00  0.00     0.100 A 
ATOM      2  C   UNL d   1      51.917  34.121  52.826  0.00  0.00     0.058 A 
ATOM      3 CL   UNL d   1      51.404  34.252  52.196  0.00  0.00    -0.082 Cl
ATOM      4  C   UNL d   1      52.950  34.584  53.698  0.00  0.00     0.021 A 
ATOM      5  C   UNL d   1      52.425  33.260  53.853  0.00  0.00     0.021 A 
ATOM      6  C   UNL d   1      52.436  34.715  53.066  0.00  0.00     0.013 A 
ATOM      7  C   UNL d   1      51.910  33.396  53.217  0.00  0.00     0.013 A 
ENDROOT
BRANCH   1   8
ATOM      8  N   UNL d   1      53.461  33.726  54.725  0.00  0.00    -0.056 NA
ATOM      9  C   UNL d   1      54.172  33.329  54.607  0.00  0.00     0.787 C 
ATOM     10  N   UNL d   1      54.688  33.200  55.234  0.00  0.00     0.064 N 
ATOM     11  N   UNL d   1      54.365  33.060  53.851  0.00  0.00     0.064 N 
ENDBRANCH   1   8
TORSDOF 1
ENDMDL
