MODEL 1
REMARK VINA RESULT:       5.8      0.000      0.000
REMARK  4 active torsions:
REMARK  status: ('A' for Active; 'I' for Inactive)
REMARK    1  A    between atoms: C_11  and  C_4 
REMARK    2  A    between atoms: C_12  and  C_5 
REMARK    3  A    between atoms: C_7  and  C_11 
REMARK    4  A    between atoms: C_8  and  C_12 
ROOT
ATOM      1  N   UNL d   1      46.597 -18.637  43.060  0.00  0.00    -0.246 NA
ATOM      2  C   UNL d   1      46.607 -19.763  44.256  0.00  0.00     0.003 A 
ATOM      3  C   UNL d   1      46.629 -19.998  43.468  0.00  0.00     0.019 A 
ATOM      4  C   UNL d   1      46.624 -19.432  42.867  0.00  0.00     0.081 A 
ATOM      5  C   UNL d   1      46.575 -18.395  43.843  0.00  0.00     0.081 A 
ATOM      6  C   UNL d   1      46.580 -18.962  44.444  0.00  0.00     0.019 A 
ATOM      7  C   UNL d   1      46.613 -20.320  44.848  0.00  0.00     0.000 C 
ENDROOT
BRANCH   4   8
ATOM      8  C   UNL d   1      46.647 -19.692  42.067  0.00  0.00     0.019 C 
BRANCH   8   9
ATOM      9  C   UNL d   1      46.626 -19.153  41.456  0.00  0.00     0.002 C 
ATOM     10  C   UNL d   1      46.626 -19.399  40.660  0.00  0.00     0.000 C 
ENDBRANCH   8   9
ENDBRANCH   4   8
BRANCH   5  11
ATOM     11  C   UNL d   1      46.547 -17.577  44.030  0.00  0.00     0.019 C 
BRANCH  11  12
ATOM     12  C   UNL d   1      45.891 -17.262  44.403  0.00  0.00     0.002 C 
ATOM     13  C   UNL d   1      45.727 -16.451  44.336  0.00  0.00     0.000 C 
ENDBRANCH  11  12
ENDBRANCH   5  11
TORSDOF 4
ENDMDL
MODEL 2
REMARK VINA RESULT:       7.5      6.322      7.894
REMARK  4 active torsions:
REMARK  status: ('A' for Active; 'I' for Inactive)
REMARK    1  A    between atoms: C_11  and  C_4 
REMARK    2  A    between atoms: C_12  and  C_5 
REMARK    3  A    between atoms: C_7  and  C_11 
REMARK    4  A    between atoms: C_8  and  C_12 
ROOT
ATOM      1  N   UNL d   1      44.604 -15.156  36.354  0.00  0.00    -0.246 NA
ATOM      2  C   UNL d   1      44.741 -16.341  37.482  0.00  0.00     0.003 A 
ATOM      3  C   UNL d   1      45.414 -15.960  37.202  0.00  0.00     0.019 A 
ATOM      4  C   UNL d   1      45.345 -15.363  36.634  0.00  0.00     0.081 A 
ATOM      5  C   UNL d   1      43.930 -15.532  36.629  0.00  0.00     0.081 A 
ATOM      6  C   UNL d   1      43.999 -16.128  37.196  0.00  0.00     0.019 A 
ATOM      7  C   UNL d   1      44.809 -16.928  38.040  0.00  0.00     0.000 C 
ENDROOT
BRANCH   4   8
ATOM      8  C   UNL d   1      46.044 -14.985  36.360  0.00  0.00     0.019 C 
BRANCH   8   9
ATOM      9  C   UNL d   1      46.516 -14.564  36.874  0.00  0.00     0.002 C 
ATOM     10  C   UNL d   1      46.646 -13.747  36.775  0.00  0.00     0.000 C 
ENDBRANCH   8   9
ENDBRANCH   4   8
BRANCH   5  11
ATOM     11  C   UNL d   1      43.175 -15.310  36.334  0.00  0.00     0.019 C 
BRANCH  11  12
ATOM     12  C   UNL d   1      42.551 -15.838  36.363  0.00  0.00     0.002 C 
ATOM     13  C   UNL d   1      41.771 -15.557  36.330  0.00  0.00     0.000 C 
ENDBRANCH  11  12
ENDBRANCH   5  11
TORSDOF 4
ENDMDL
MODEL 3
REMARK VINA RESULT:       8.4      0.616      2.838
REMARK  4 active torsions:
REMARK  status: ('A' for Active; 'I' for Inactive)
REMARK    1  A    between atoms: C_11  and  C_4 
REMARK    2  A    between atoms: C_12  and  C_5 
REMARK    3  A    between atoms: C_7  and  C_11 
REMARK    4  A    between atoms: C_8  and  C_12 
ROOT
ATOM      1  N   UNL d   1      46.464 -18.917  43.653  0.00  0.00    -0.246 NA
ATOM      2  C   UNL d   1      46.586 -19.104  42.027  0.00  0.00     0.003 A 
ATOM      3  C   UNL d   1      46.464 -18.357  42.347  0.00  0.00     0.019 A 
ATOM      4  C   UNL d   1      46.403 -18.262  43.166  0.00  0.00     0.081 A 
ATOM      5  C   UNL d   1      46.585 -19.665  43.341  0.00  0.00     0.081 A 
ATOM      6  C   UNL d   1      46.646 -19.759  42.523  0.00  0.00     0.019 A 
ATOM      7  C   UNL d   1      46.646 -19.197  41.221  0.00  0.00     0.000 C 
ENDROOT
BRANCH   4   8
ATOM      8  C   UNL d   1      46.279 -17.490  43.475  0.00  0.00     0.019 C 
BRANCH   8   9
ATOM      9  C   UNL d   1      45.857 -17.383  44.164  0.00  0.00     0.002 C 
ATOM     10  C   UNL d   1      45.716 -16.623  44.474  0.00  0.00     0.000 C 
ENDBRANCH   8   9
ENDBRANCH   4   8
BRANCH   5  11
ATOM     11  C   UNL d   1      46.646 -20.330  43.851  0.00  0.00     0.019 C 
BRANCH  11  12
ATOM     12  C   UNL d   1      46.440 -20.264  44.639  0.00  0.00     0.002 C 
ATOM     13  C   UNL d   1      45.639 -20.245  44.856  0.00  0.00     0.000 C 
ENDBRANCH  11  12
ENDBRANCH   5  11
TORSDOF 4
ENDMDL
