MODEL 1
REMARK VINA RESULT:      -7.2      0.000      0.000
REMARK  5 active torsions:
REMARK  status: ('A' for Active; 'I' for Inactive)
REMARK    1  A    between atoms: C_3  and  C_1 
REMARK    2  A    between atoms: C_7  and  C_3 
REMARK       I    between atoms: C_6  and  N_5 
REMARK    3  A    between atoms: O_18  and  C_6 
REMARK    4  A    between atoms: N_10  and  C_7 
REMARK    5  A    between atoms: C_21  and  O_18 
ROOT
ATOM      1  C   UNL d   1      51.992  33.235  53.071  0.00  0.00     0.110 C 
ATOM      2  C   UNL d   1      51.477  32.595  53.191  0.00  0.00     0.105 C 
ATOM      3  N   UNL d   1      50.970  31.963  53.310  0.00  0.00    -0.191 NA
ENDROOT
BRANCH   1   4
ATOM      4  C   UNL d   1      52.695  33.281  53.501  0.00  0.00     0.122 A 
ATOM      5  N   UNL d   1      52.783  33.584  54.261  0.00  0.00    -0.238 NA
ATOM      6  C   UNL d   1      53.578  33.520  54.472  0.00  0.00     0.088 A 
ATOM      7  C   UNL d   1      53.985  33.732  55.160  0.00  0.00     0.020 A 
ATOM      8  C   UNL d   1      53.985  33.177  53.842  0.00  0.00     0.049 A 
ATOM      9  C   UNL d   1      54.795  33.600  55.217  0.00  0.00     0.002 A 
ATOM     10  C   UNL d   1      55.204  33.255  54.584  0.00  0.00     0.001 A 
ATOM     11  C   UNL d   1      54.802  33.044  53.898  0.00  0.00     0.008 A 
ATOM     12  S   UNL d   1      53.444  33.028  53.240  0.00  0.00    -0.066 SA
ENDBRANCH   1   4
BRANCH   1  13
ATOM     13  C   UNL d   1      51.803  33.822  52.526  0.00  0.00     0.093 C 
BRANCH  13  14
ATOM     14  N   UNL d   1      51.056  34.173  52.539  0.00  0.00    -0.299 N 
ATOM     15  C   UNL d   1      50.814  34.603  53.211  0.00  0.00     0.100 A 
ATOM     16  C   UNL d   1      50.074  34.950  53.223  0.00  0.00     0.104 A 
ATOM     17  N   UNL d   1      49.565  34.878  52.574  0.00  0.00    -0.249 N 
ATOM     18  C   UNL d   1      49.809  34.451  51.910  0.00  0.00     0.104 A 
ATOM     19  C   UNL d   1      48.818  35.229  52.586  0.00  0.00     0.378 C 
ATOM     20  C   UNL d   1      50.562  34.093  51.890  0.00  0.00     0.100 A 
ATOM     21  O   UNL d   1      48.313  35.155  51.939  0.00  0.00    -0.237 OA
BRANCH  19  22
ATOM     22  O   UNL d   1      48.581  35.651  53.247  0.00  0.00    -0.257 OA
BRANCH  22  23
ATOM     23  C   UNL d   1      47.860  36.049  53.250  0.00  0.00     0.128 C 
ATOM     24  C   UNL d   1      47.631  36.491  53.915  0.00  0.00     0.029 C 
ENDBRANCH  22  23
ENDBRANCH  19  22
ENDBRANCH  13  14
ENDBRANCH   1  13
TORSDOF 5
ENDMDL
MODEL 2
REMARK VINA RESULT:      -7.1      2.983      5.247
REMARK  5 active torsions:
REMARK  status: ('A' for Active; 'I' for Inactive)
REMARK    1  A    between atoms: C_3  and  C_1 
REMARK    2  A    between atoms: C_7  and  C_3 
REMARK       I    between atoms: C_6  and  N_5 
REMARK    3  A    between atoms: O_18  and  C_6 
REMARK    4  A    between atoms: N_10  and  C_7 
REMARK    5  A    between atoms: C_21  and  O_18 
ROOT
ATOM      1  C   UNL d   1      52.777  33.429  53.354  0.00  0.00     0.110 C 
ATOM      2  C   UNL d   1      53.069  33.705  54.081  0.00  0.00     0.105 C 
ATOM      3  N   UNL d   1      53.356  33.978  54.798  0.00  0.00    -0.191 NA
ENDROOT
BRANCH   1   4
ATOM      4  C   UNL d   1      52.059  33.716  53.066  0.00  0.00     0.122 A 
ATOM      5  N   UNL d   1      51.868  33.853  52.278  0.00  0.00    -0.238 NA
ATOM      6  C   UNL d   1      51.095  34.137  52.246  0.00  0.00     0.088 A 
ATOM      7  C   UNL d   1      50.617  34.366  51.612  0.00  0.00     0.020 A 
ATOM      8  C   UNL d   1      50.803  34.177  53.017  0.00  0.00     0.049 A 
ATOM      9  C   UNL d   1      49.851  34.633  51.748  0.00  0.00     0.002 A 
ATOM     10  C   UNL d   1      49.557  34.674  52.522  0.00  0.00     0.001 A 
ATOM     11  C   UNL d   1      50.031  34.446  53.156  0.00  0.00     0.008 A 
ATOM     12  S   UNL d   1      51.394  33.918  53.527  0.00  0.00    -0.066 SA
ENDBRANCH   1   4
BRANCH   1  13
ATOM     13  C   UNL d   1      53.201  32.873  52.922  0.00  0.00     0.093 C 
BRANCH  13  14
ATOM     14  N   UNL d   1      53.168  32.074  53.130  0.00  0.00    -0.299 N 
ATOM     15  C   UNL d   1      53.567  31.809  53.812  0.00  0.00     0.100 A 
ATOM     16  C   UNL d   1      53.533  31.019  54.017  0.00  0.00     0.104 A 
ATOM     17  N   UNL d   1      53.107  30.482  53.554  0.00  0.00    -0.249 N 
ATOM     18  C   UNL d   1      52.713  30.749  52.879  0.00  0.00     0.104 A 
ATOM     19  C   UNL d   1      53.073  29.683  53.762  0.00  0.00     0.378 C 
ATOM     20  C   UNL d   1      52.742  31.553  52.662  0.00  0.00     0.100 A 
ATOM     21  O   UNL d   1      52.648  29.150  53.298  0.00  0.00    -0.237 OA
BRANCH  19  22
ATOM     22  O   UNL d   1      53.466  29.423  54.433  0.00  0.00    -0.257 OA
BRANCH  22  23
ATOM     23  C   UNL d   1      53.330  28.667  54.727  0.00  0.00     0.128 C 
ATOM     24  C   UNL d   1      53.617  28.454  55.477  0.00  0.00     0.029 C 
ENDBRANCH  22  23
ENDBRANCH  19  22
ENDBRANCH  13  14
ENDBRANCH   1  13
TORSDOF 5
ENDMDL
MODEL 3
REMARK VINA RESULT:      -6.7      1.238      1.950
REMARK  5 active torsions:
REMARK  status: ('A' for Active; 'I' for Inactive)
REMARK    1  A    between atoms: C_3  and  C_1 
REMARK    2  A    between atoms: C_7  and  C_3 
REMARK       I    between atoms: C_6  and  N_5 
REMARK    3  A    between atoms: O_18  and  C_6 
REMARK    4  A    between atoms: N_10  and  C_7 
REMARK    5  A    between atoms: C_21  and  O_18 
ROOT
ATOM      1  C   UNL d   1      52.068  33.793  52.752  0.00  0.00     0.110 C 
ATOM      2  C   UNL d   1      52.335  34.482  53.129  0.00  0.00     0.105 C 
ATOM      3  N   UNL d   1      52.600  35.162  53.502  0.00  0.00    -0.191 NA
ENDROOT
BRANCH   1   4
ATOM      4  C   UNL d   1      52.406  33.065  52.942  0.00  0.00     0.122 A 
ATOM      5  N   UNL d   1      52.174  32.329  52.656  0.00  0.00    -0.238 NA
ATOM      6  C   UNL d   1      52.663  31.757  52.993  0.00  0.00     0.088 A 
ATOM      7  C   UNL d   1      52.688  30.934  52.910  0.00  0.00     0.020 A 
ATOM      8  C   UNL d   1      53.201  32.137  53.490  0.00  0.00     0.049 A 
ATOM      9  C   UNL d   1      53.248  30.496  53.323  0.00  0.00     0.002 A 
ATOM     10  C   UNL d   1      53.789  30.877  53.822  0.00  0.00     0.001 A 
ATOM     11  C   UNL d   1      53.766  31.696  53.907  0.00  0.00     0.008 A 
ATOM     12  S   UNL d   1      53.045  32.945  53.462  0.00  0.00    -0.066 SA
ENDBRANCH   1   4
BRANCH   1  13
ATOM     13  C   UNL d   1      51.468  33.834  52.190  0.00  0.00     0.093 C 
BRANCH  13  14
ATOM     14  N   UNL d   1      50.762  34.224  52.367  0.00  0.00    -0.299 N 
ATOM     15  C   UNL d   1      50.220  34.392  51.756  0.00  0.00     0.100 A 
ATOM     16  C   UNL d   1      49.521  34.778  51.931  0.00  0.00     0.104 A 
ATOM     17  N   UNL d   1      49.349  35.003  52.709  0.00  0.00    -0.249 N 
ATOM     18  C   UNL d   1      49.889  34.835  53.311  0.00  0.00     0.104 A 
ATOM     19  C   UNL d   1      48.643  35.394  52.886  0.00  0.00     0.378 C 
ATOM     20  C   UNL d   1      50.603  34.442  53.141  0.00  0.00     0.100 A 
ATOM     21  O   UNL d   1      48.474  35.616  53.661  0.00  0.00    -0.237 OA
BRANCH  19  22
ATOM     22  O   UNL d   1      48.111  35.558  52.284  0.00  0.00    -0.257 OA
BRANCH  22  23
ATOM     23  C   UNL d   1      47.437  36.007  52.436  0.00  0.00     0.128 C 
ATOM     24  C   UNL d   1      46.863  36.110  51.844  0.00  0.00     0.029 C 
ENDBRANCH  22  23
ENDBRANCH  19  22
ENDBRANCH  13  14
ENDBRANCH   1  13
TORSDOF 5
ENDMDL
MODEL 4
REMARK VINA RESULT:      -6.6      2.194      5.195
REMARK  5 active torsions:
REMARK  status: ('A' for Active; 'I' for Inactive)
REMARK    1  A    between atoms: C_3  and  C_1 
REMARK    2  A    between atoms: C_7  and  C_3 
REMARK       I    between atoms: C_6  and  N_5 
REMARK    3  A    between atoms: O_18  and  C_6 
REMARK    4  A    between atoms: N_10  and  C_7 
REMARK    5  A    between atoms: C_21  and  O_18 
ROOT
ATOM      1  C   UNL d   1      50.487  34.155  52.546  0.00  0.00     0.110 C 
ATOM      2  C   UNL d   1      51.026  34.261  51.923  0.00  0.00     0.105 C 
ATOM      3  N   UNL d   1      51.556  34.366  51.308  0.00  0.00    -0.191 NA
ENDROOT
BRANCH   1   4
ATOM      4  C   UNL d   1      49.805  34.619  52.581  0.00  0.00     0.122 A 
ATOM      5  N   UNL d   1      49.590  35.124  53.194  0.00  0.00    -0.238 NA
ATOM      6  C   UNL d   1      48.870  35.475  52.996  0.00  0.00     0.088 A 
ATOM      7  C   UNL d   1      48.395  36.022  53.395  0.00  0.00     0.020 A 
ATOM      8  C   UNL d   1      48.637  35.188  52.258  0.00  0.00     0.049 A 
ATOM      9  C   UNL d   1      47.691  36.279  53.056  0.00  0.00     0.002 A 
ATOM     10  C   UNL d   1      47.456  35.991  52.315  0.00  0.00     0.001 A 
ATOM     11  C   UNL d   1      47.927  35.447  51.916  0.00  0.00     0.008 A 
ATOM     12  S   UNL d   1      49.212  34.659  51.998  0.00  0.00    -0.066 SA
ENDBRANCH   1   4
BRANCH   1  13
ATOM     13  C   UNL d   1      50.630  33.590  53.127  0.00  0.00     0.093 C 
BRANCH  13  14
ATOM     14  N   UNL d   1      51.405  33.428  53.363  0.00  0.00    -0.299 N 
ATOM     15  C   UNL d   1      51.803  33.963  53.865  0.00  0.00     0.100 A 
ATOM     16  C   UNL d   1      52.569  33.803  54.099  0.00  0.00     0.104 A 
ATOM     17  N   UNL d   1      52.951  33.115  53.843  0.00  0.00    -0.249 N 
ATOM     18  C   UNL d   1      52.554  32.588  53.346  0.00  0.00     0.104 A 
ATOM     19  C   UNL d   1      53.726  32.953  54.079  0.00  0.00     0.378 C 
ATOM     20  C   UNL d   1      51.772  32.744  53.103  0.00  0.00     0.100 A 
ATOM     21  O   UNL d   1      54.105  32.267  53.823  0.00  0.00    -0.237 OA
BRANCH  19  22
ATOM     22  O   UNL d   1      54.116  33.479  54.572  0.00  0.00    -0.257 OA
BRANCH  22  23
ATOM     23  C   UNL d   1      54.892  33.333  54.805  0.00  0.00     0.128 C 
ATOM     24  C   UNL d   1      55.290  33.877  55.291  0.00  0.00     0.029 C 
ENDBRANCH  22  23
ENDBRANCH  19  22
ENDBRANCH  13  14
ENDBRANCH   1  13
TORSDOF 5
ENDMDL
MODEL 5
REMARK VINA RESULT:      -4.7      9.768     11.149
REMARK  5 active torsions:
REMARK  status: ('A' for Active; 'I' for Inactive)
REMARK    1  A    between atoms: C_3  and  C_1 
REMARK    2  A    between atoms: C_7  and  C_3 
REMARK       I    between atoms: C_6  and  N_5 
REMARK    3  A    between atoms: O_18  and  C_6 
REMARK    4  A    between atoms: N_10  and  C_7 
REMARK    5  A    between atoms: C_21  and  O_18 
ROOT
ATOM      1  C   UNL d   1      44.982  27.656  57.660  0.00  0.00     0.110 C 
ATOM      2  C   UNL d   1      45.726  27.309  57.786  0.00  0.00     0.105 C 
ATOM      3  N   UNL d   1      46.461  26.969  57.912  0.00  0.00    -0.191 NA
ENDROOT
BRANCH   1   4
ATOM      4  C   UNL d   1      44.913  28.477  57.629  0.00  0.00     0.122 A 
ATOM      5  N   UNL d   1      44.840  28.936  56.951  0.00  0.00    -0.238 NA
ATOM      6  C   UNL d   1      44.787  29.726  57.180  0.00  0.00     0.088 A 
ATOM      7  C   UNL d   1      44.707  30.424  56.742  0.00  0.00     0.020 A 
ATOM      8  C   UNL d   1      44.826  29.760  58.003  0.00  0.00     0.049 A 
ATOM      9  C   UNL d   1      44.667  31.149  57.127  0.00  0.00     0.002 A 
ATOM     10  C   UNL d   1      44.706  31.183  57.954  0.00  0.00     0.001 A 
ATOM     11  C   UNL d   1      44.786  30.491  58.393  0.00  0.00     0.008 A 
ATOM     12  S   UNL d   1      44.904  28.991  58.285  0.00  0.00    -0.066 SA
ENDBRANCH   1   4
BRANCH   1  13
ATOM     13  C   UNL d   1      44.316  27.182  57.565  0.00  0.00     0.093 C 
BRANCH  13  14
ATOM     14  N   UNL d   1      44.358  26.498  57.105  0.00  0.00    -0.299 N 
ATOM     15  C   UNL d   1      44.394  25.752  57.477  0.00  0.00     0.100 A 
ATOM     16  C   UNL d   1      44.435  25.075  57.022  0.00  0.00     0.104 A 
ATOM     17  N   UNL d   1      44.441  25.124  56.196  0.00  0.00    -0.249 N 
ATOM     18  C   UNL d   1      44.405  25.864  55.831  0.00  0.00     0.104 A 
ATOM     19  C   UNL d   1      44.482  24.439  55.736  0.00  0.00     0.378 C 
ATOM     20  C   UNL d   1      44.363  26.559  56.287  0.00  0.00     0.100 A 
ATOM     21  O   UNL d   1      44.488  24.490  54.913  0.00  0.00    -0.237 OA
BRANCH  19  22
ATOM     22  O   UNL d   1      44.518  23.707  56.103  0.00  0.00    -0.257 OA
BRANCH  22  23
ATOM     23  C   UNL d   1      44.576  23.019  55.655  0.00  0.00     0.128 C 
ATOM     24  C   UNL d   1      44.711  22.289  56.028  0.00  0.00     0.029 C 
ENDBRANCH  22  23
ENDBRANCH  19  22
ENDBRANCH  13  14
ENDBRANCH   1  13
TORSDOF 5
ENDMDL
MODEL 6
REMARK VINA RESULT:      -4.5      9.760     10.826
REMARK  5 active torsions:
REMARK  status: ('A' for Active; 'I' for Inactive)
REMARK    1  A    between atoms: C_3  and  C_1 
REMARK    2  A    between atoms: C_7  and  C_3 
REMARK       I    between atoms: C_6  and  N_5 
REMARK    3  A    between atoms: O_18  and  C_6 
REMARK    4  A    between atoms: N_10  and  C_7 
REMARK    5  A    between atoms: C_21  and  O_18 
ROOT
ATOM      1  C   UNL d   1      45.102  26.748  58.384  0.00  0.00     0.110 C 
ATOM      2  C   UNL d   1      44.746  27.075  59.060  0.00  0.00     0.105 C 
ATOM      3  N   UNL d   1      44.394  27.396  59.726  0.00  0.00    -0.191 NA
ENDROOT
BRANCH   1   4
ATOM      4  C   UNL d   1      44.932  25.971  58.167  0.00  0.00     0.122 A 
ATOM      5  N   UNL d   1      44.732  25.707  57.414  0.00  0.00    -0.238 NA
ATOM      6  C   UNL d   1      44.609  24.893  57.452  0.00  0.00     0.088 A 
ATOM      7  C   UNL d   1      44.400  24.339  56.875  0.00  0.00     0.020 A 
ATOM      8  C   UNL d   1      44.733  24.648  58.230  0.00  0.00     0.049 A 
ATOM      9  C   UNL d   1      44.314  23.546  57.076  0.00  0.00     0.002 A 
ATOM     10  C   UNL d   1      44.438  23.301  57.858  0.00  0.00     0.001 A 
ATOM     11  C   UNL d   1      44.647  23.849  58.435  0.00  0.00     0.008 A 
ATOM     12  S   UNL d   1      44.932  25.311  58.676  0.00  0.00    -0.066 SA
ENDBRANCH   1   4
BRANCH   1  13
ATOM     13  C   UNL d   1      45.623  27.198  57.933  0.00  0.00     0.093 C 
BRANCH  13  14
ATOM     14  N   UNL d   1      45.381  27.923  57.621  0.00  0.00    -0.299 N 
ATOM     15  C   UNL d   1      45.287  28.579  58.127  0.00  0.00     0.100 A 
ATOM     16  C   UNL d   1      45.047  29.296  57.819  0.00  0.00     0.104 A 
ATOM     17  N   UNL d   1      44.897  29.376  57.009  0.00  0.00    -0.249 N 
ATOM     18  C   UNL d   1      44.991  28.723  56.511  0.00  0.00     0.104 A 
ATOM     19  C   UNL d   1      44.655  30.101  56.697  0.00  0.00     0.378 C 
ATOM     20  C   UNL d   1      45.235  27.988  56.817  0.00  0.00     0.100 A 
ATOM     21  O   UNL d   1      44.506  30.177  55.889  0.00  0.00    -0.237 OA
BRANCH  19  22
ATOM     22  O   UNL d   1      44.563  30.745  57.195  0.00  0.00    -0.257 OA
BRANCH  22  23
ATOM     23  C   UNL d   1      44.577  31.510  56.893  0.00  0.00     0.128 C 
ATOM     24  C   UNL d   1      44.499  32.161  57.403  0.00  0.00     0.029 C 
ENDBRANCH  22  23
ENDBRANCH  19  22
ENDBRANCH  13  14
ENDBRANCH   1  13
TORSDOF 5
ENDMDL
MODEL 7
REMARK VINA RESULT:      -4.5      9.767     10.956
REMARK  5 active torsions:
REMARK  status: ('A' for Active; 'I' for Inactive)
REMARK    1  A    between atoms: C_3  and  C_1 
REMARK    2  A    between atoms: C_7  and  C_3 
REMARK       I    between atoms: C_6  and  N_5 
REMARK    3  A    between atoms: O_18  and  C_6 
REMARK    4  A    between atoms: N_10  and  C_7 
REMARK    5  A    between atoms: C_21  and  O_18 
ROOT
ATOM      1  C   UNL d   1      45.004  26.159  57.183  0.00  0.00     0.110 C 
ATOM      2  C   UNL d   1      44.657  26.090  57.934  0.00  0.00     0.105 C 
ATOM      3  N   UNL d   1      44.315  26.021  58.675  0.00  0.00    -0.191 NA
ENDROOT
BRANCH   1   4
ATOM      4  C   UNL d   1      44.850  25.588  56.607  0.00  0.00     0.122 A 
ATOM      5  N   UNL d   1      44.711  25.727  55.808  0.00  0.00    -0.238 NA
ATOM      6  C   UNL d   1      44.583  25.000  55.440  0.00  0.00     0.088 A 
ATOM      7  C   UNL d   1      44.419  24.800  54.654  0.00  0.00     0.020 A 
ATOM      8  C   UNL d   1      44.641  24.408  56.011  0.00  0.00     0.049 A 
ATOM      9  C   UNL d   1      44.315  24.012  54.443  0.00  0.00     0.002 A 
ATOM     10  C   UNL d   1      44.374  23.417  55.017  0.00  0.00     0.001 A 
ATOM     11  C   UNL d   1      44.537  23.612  55.799  0.00  0.00     0.008 A 
ATOM     12  S   UNL d   1      44.806  24.766  56.734  0.00  0.00    -0.066 SA
ENDBRANCH   1   4
BRANCH   1  13
ATOM     13  C   UNL d   1      45.500  26.793  57.012  0.00  0.00     0.093 C 
BRANCH  13  14
ATOM     14  N   UNL d   1      45.302  27.553  57.268  0.00  0.00    -0.299 N 
ATOM     15  C   UNL d   1      45.511  27.796  58.038  0.00  0.00     0.100 A 
ATOM     16  C   UNL d   1      45.316  28.547  58.291  0.00  0.00     0.104 A 
ATOM     17  N   UNL d   1      44.913  29.068  57.789  0.00  0.00    -0.249 N 
ATOM     18  C   UNL d   1      44.708  28.823  57.027  0.00  0.00     0.104 A 
ATOM     19  C   UNL d   1      44.716  29.828  58.045  0.00  0.00     0.378 C 
ATOM     20  C   UNL d   1      44.904  28.059  56.762  0.00  0.00     0.100 A 
ATOM     21  O   UNL d   1      44.314  30.345  57.543  0.00  0.00    -0.237 OA
BRANCH  19  22
ATOM     22  O   UNL d   1      44.922  30.066  58.802  0.00  0.00    -0.257 OA
BRANCH  22  23
ATOM     23  C   UNL d   1      44.741  30.825  59.063  0.00  0.00     0.128 C 
ATOM     24  C   UNL d   1      44.740  30.997  59.876  0.00  0.00     0.029 C 
ENDBRANCH  22  23
ENDBRANCH  19  22
ENDBRANCH  13  14
ENDBRANCH   1  13
TORSDOF 5
ENDMDL
MODEL 8
REMARK VINA RESULT:      -4.3     10.051     11.291
REMARK  5 active torsions:
REMARK  status: ('A' for Active; 'I' for Inactive)
REMARK    1  A    between atoms: C_3  and  C_1 
REMARK    2  A    between atoms: C_7  and  C_3 
REMARK       I    between atoms: C_6  and  N_5 
REMARK    3  A    between atoms: O_18  and  C_6 
REMARK    4  A    between atoms: N_10  and  C_7 
REMARK    5  A    between atoms: C_21  and  O_18 
ROOT
ATOM      1  C   UNL d   1      44.879  30.115  59.560  0.00  0.00     0.110 C 
ATOM      2  C   UNL d   1      45.561  30.335  59.141  0.00  0.00     0.105 C 
ATOM      3  N   UNL d   1      46.234  30.553  58.729  0.00  0.00    -0.191 NA
ENDROOT
BRANCH   1   4
ATOM      4  C   UNL d   1      44.769  30.383  60.333  0.00  0.00     0.122 A 
ATOM      5  N   UNL d   1      44.850  29.939  61.020  0.00  0.00    -0.238 NA
ATOM      6  C   UNL d   1      44.688  30.428  61.663  0.00  0.00     0.088 A 
ATOM      7  C   UNL d   1      44.684  30.286  62.478  0.00  0.00     0.020 A 
ATOM      8  C   UNL d   1      44.506  31.180  61.376  0.00  0.00     0.049 A 
ATOM      9  C   UNL d   1      44.498  30.893  63.001  0.00  0.00     0.002 A 
ATOM     10  C   UNL d   1      44.315  31.648  62.713  0.00  0.00     0.001 A 
ATOM     11  C   UNL d   1      44.318  31.793  61.903  0.00  0.00     0.008 A 
ATOM     12  S   UNL d   1      44.554  31.157  60.555  0.00  0.00    -0.066 SA
ENDBRANCH   1   4
BRANCH   1  13
ATOM     13  C   UNL d   1      44.314  29.632  59.208  0.00  0.00     0.093 C 
BRANCH  13  14
ATOM     14  N   UNL d   1      44.524  28.881  58.935  0.00  0.00    -0.299 N 
ATOM     15  C   UNL d   1      44.340  28.210  59.394  0.00  0.00     0.100 A 
ATOM     16  C   UNL d   1      44.548  27.467  59.124  0.00  0.00     0.104 A 
ATOM     17  N   UNL d   1      44.939  27.377  58.401  0.00  0.00    -0.249 N 
ATOM     18  C   UNL d   1      45.120  28.045  57.949  0.00  0.00     0.104 A 
ATOM     19  C   UNL d   1      45.150  26.627  58.128  0.00  0.00     0.378 C 
ATOM     20  C   UNL d   1      44.912  28.806  58.217  0.00  0.00     0.100 A 
ATOM     21  O   UNL d   1      45.540  26.540  57.406  0.00  0.00    -0.237 OA
BRANCH  19  22
ATOM     22  O   UNL d   1      44.968  25.967  58.579  0.00  0.00    -0.257 OA
BRANCH  22  23
ATOM     23  C   UNL d   1      44.859  25.235  58.221  0.00  0.00     0.128 C 
ATOM     24  C   UNL d   1      44.676  24.568  58.682  0.00  0.00     0.029 C 
ENDBRANCH  22  23
ENDBRANCH  19  22
ENDBRANCH  13  14
ENDBRANCH   1  13
TORSDOF 5
ENDMDL
