MODEL 1
REMARK VINA RESULT:      -7.9      0.000      0.000
REMARK  5 active torsions:
REMARK  status: ('A' for Active; 'I' for Inactive)
REMARK    1  A    between atoms: C_3  and  C_1 
REMARK    2  A    between atoms: S_2  and  C_3 
REMARK    3  A    between atoms: C_8  and  S_2 
REMARK    4  A    between atoms: C_9  and  C_3 
REMARK    5  A    between atoms: N_7  and  C_4 
ROOT
ATOM      1  C   UNL d   1      52.891  32.860  53.366  0.00  0.00     0.128 A 
ATOM      2  C   UNL d   1      52.955  33.391  53.988  0.00  0.00     0.166 A 
ATOM      3  N   UNL d   1      52.263  32.915  52.835  0.00  0.00    -0.240 NA
ATOM      4  N   UNL d   1      52.392  33.982  54.086  0.00  0.00    -0.225 NA
ATOM      5  C   UNL d   1      51.703  33.506  52.937  0.00  0.00     0.099 A 
ATOM      6  C   UNL d   1      51.760  34.041  53.557  0.00  0.00     0.101 A 
ATOM      7  C   UNL d   1      51.196  34.626  53.648  0.00  0.00     0.021 A 
ATOM      8  C   UNL d   1      51.071  33.562  52.405  0.00  0.00     0.021 A 
ATOM      9  C   UNL d   1      50.572  34.684  53.125  0.00  0.00     0.002 A 
ATOM     10  C   UNL d   1      50.511  34.151  52.504  0.00  0.00     0.002 A 
ENDROOT
BRANCH   1  11
ATOM     11  C   UNL d   1      53.451  32.269  53.264  0.00  0.00     0.129 C 
BRANCH  11  12
ATOM     12  S   UNL d   1      53.172  31.474  52.980  0.00  0.00     0.213 S 
ATOM     13  O   UNL d   1      53.132  31.344  52.103  0.00  0.00    -0.217 OA
ATOM     14  O   UNL d   1      53.333  31.917  52.296  0.00  0.00    -0.217 OA
BRANCH  12  15
ATOM     15  C   UNL d   1      52.925  30.783  53.374  0.00  0.00     0.088 A 
ATOM     16  C   UNL d   1      53.495  30.285  53.719  0.00  0.00     0.011 A 
ATOM     17  C   UNL d   1      53.244  29.600  54.109  0.00  0.00     0.001 A 
ATOM     18  C   UNL d   1      53.798  29.101  54.453  0.00  0.00     0.000 C 
ATOM     19  C   UNL d   1      52.439  29.411  54.156  0.00  0.00     0.000 A 
ATOM     20  C   UNL d   1      51.877  29.919  53.806  0.00  0.00     0.001 A 
ATOM     21  C   UNL d   1      52.131  30.601  53.418  0.00  0.00     0.011 A 
ENDBRANCH  12  15
ENDBRANCH  11  12
BRANCH  11  22
ATOM     22  C   UNL d   1      54.307  32.286  53.391  0.00  0.00     0.135 C 
ATOM     23  N   UNL d   1      54.952  32.253  52.786  0.00  0.00    -0.146 N 
ENDBRANCH  11  22
ENDBRANCH   1  11
BRANCH   2  24
ATOM     24  N   UNL d   1      53.589  33.331  54.518  0.00  0.00    -0.284 N 
ATOM     25  C   UNL d   1      54.301  33.739  54.359  0.00  0.00     0.108 A 
ATOM     26  C   UNL d   1      54.935  33.672  54.900  0.00  0.00     0.142 A 
ATOM     27  O   UNL d   1      54.859  33.204  55.587  0.00  0.00    -0.300 OA
ATOM     28  C   UNL d   1      54.148  32.805  55.732  0.00  0.00     0.142 A 
ATOM     29  C   UNL d   1      53.513  32.863  55.205  0.00  0.00     0.108 A 
ENDBRANCH   2  24
TORSDOF 5
ENDMDL
MODEL 2
REMARK VINA RESULT:      -6.8      0.971      3.291
REMARK  5 active torsions:
REMARK  status: ('A' for Active; 'I' for Inactive)
REMARK    1  A    between atoms: C_3  and  C_1 
REMARK    2  A    between atoms: S_2  and  C_3 
REMARK    3  A    between atoms: C_8  and  S_2 
REMARK    4  A    between atoms: C_9  and  C_3 
REMARK    5  A    between atoms: N_7  and  C_4 
ROOT
ATOM      1  C   UNL d   1      53.501  32.150  53.610  0.00  0.00     0.128 A 
ATOM      2  C   UNL d   1      53.781  32.064  54.377  0.00  0.00     0.166 A 
ATOM      3  N   UNL d   1      53.194  31.502  53.204  0.00  0.00    -0.240 NA
ATOM      4  N   UNL d   1      53.757  31.329  54.744  0.00  0.00    -0.225 NA
ATOM      5  C   UNL d   1      53.173  30.771  53.575  0.00  0.00     0.099 A 
ATOM      6  C   UNL d   1      53.451  30.676  54.341  0.00  0.00     0.101 A 
ATOM      7  C   UNL d   1      53.424  29.942  54.701  0.00  0.00     0.021 A 
ATOM      8  C   UNL d   1      52.865  30.118  53.168  0.00  0.00     0.021 A 
ATOM      9  C   UNL d   1      53.121  29.297  54.303  0.00  0.00     0.002 A 
ATOM     10  C   UNL d   1      52.842  29.387  53.536  0.00  0.00     0.002 A 
ENDROOT
BRANCH   1  11
ATOM     11  C   UNL d   1      53.523  32.881  53.239  0.00  0.00     0.129 C 
BRANCH  11  12
ATOM     12  S   UNL d   1      52.804  33.140  52.785  0.00  0.00     0.213 S 
ATOM     13  O   UNL d   1      52.723  32.853  51.948  0.00  0.00    -0.217 OA
ATOM     14  O   UNL d   1      53.242  32.661  52.266  0.00  0.00    -0.217 OA
BRANCH  12  15
ATOM     15  C   UNL d   1      52.151  33.619  52.977  0.00  0.00     0.088 A 
ATOM     16  C   UNL d   1      51.408  33.266  53.103  0.00  0.00     0.011 A 
ATOM     17  C   UNL d   1      50.763  33.747  53.293  0.00  0.00     0.001 A 
ATOM     18  C   UNL d   1      50.026  33.408  53.420  0.00  0.00     0.000 C 
ATOM     19  C   UNL d   1      50.852  34.568  53.358  0.00  0.00     0.000 A 
ATOM     20  C   UNL d   1      51.601  34.911  53.229  0.00  0.00     0.001 A 
ATOM     21  C   UNL d   1      52.242  34.428  53.039  0.00  0.00     0.011 A 
ENDBRANCH  12  15
ENDBRANCH  11  12
BRANCH  11  22
ATOM     22  C   UNL d   1      54.154  33.473  53.212  0.00  0.00     0.135 C 
ATOM     23  N   UNL d   1      54.716  33.645  52.550  0.00  0.00    -0.146 N 
ENDBRANCH  11  22
ENDBRANCH   1  11
BRANCH   2  24
ATOM     24  N   UNL d   1      54.088  32.720  54.780  0.00  0.00    -0.284 N 
ATOM     25  C   UNL d   1      54.880  32.953  54.646  0.00  0.00     0.108 A 
ATOM     26  C   UNL d   1      55.180  33.617  55.057  0.00  0.00     0.142 A 
ATOM     27  O   UNL d   1      54.698  34.038  55.592  0.00  0.00    -0.300 OA
ATOM     28  C   UNL d   1      53.916  33.795  55.714  0.00  0.00     0.142 A 
ATOM     29  C   UNL d   1      53.606  33.141  55.314  0.00  0.00     0.108 A 
ENDBRANCH   2  24
TORSDOF 5
ENDMDL
MODEL 3
REMARK VINA RESULT:      -6.0      1.390      3.758
REMARK  5 active torsions:
REMARK  status: ('A' for Active; 'I' for Inactive)
REMARK    1  A    between atoms: C_3  and  C_1 
REMARK    2  A    between atoms: S_2  and  C_3 
REMARK    3  A    between atoms: C_8  and  S_2 
REMARK    4  A    between atoms: C_9  and  C_3 
REMARK    5  A    between atoms: N_7  and  C_4 
ROOT
ATOM      1  C   UNL d   1      52.659  32.691  53.043  0.00  0.00     0.128 A 
ATOM      2  C   UNL d   1      51.866  32.480  53.069  0.00  0.00     0.166 A 
ATOM      3  N   UNL d   1      53.244  32.113  53.087  0.00  0.00    -0.240 NA
ATOM      4  N   UNL d   1      51.651  31.690  53.138  0.00  0.00    -0.225 NA
ATOM      5  C   UNL d   1      53.025  31.326  53.156  0.00  0.00     0.099 A 
ATOM      6  C   UNL d   1      52.234  31.107  53.182  0.00  0.00     0.101 A 
ATOM      7  C   UNL d   1      52.028  30.318  53.251  0.00  0.00     0.021 A 
ATOM      8  C   UNL d   1      53.612  30.743  53.199  0.00  0.00     0.021 A 
ATOM      9  C   UNL d   1      52.604  29.742  53.295  0.00  0.00     0.002 A 
ATOM     10  C   UNL d   1      53.397  29.957  53.269  0.00  0.00     0.002 A 
ENDROOT
BRANCH   1  11
ATOM     11  C   UNL d   1      52.878  33.479  52.974  0.00  0.00     0.129 C 
BRANCH  11  12
ATOM     12  S   UNL d   1      53.592  33.754  53.425  0.00  0.00     0.213 S 
ATOM     13  O   UNL d   1      54.366  33.778  52.991  0.00  0.00    -0.217 OA
ATOM     14  O   UNL d   1      53.860  33.579  52.658  0.00  0.00    -0.217 OA
BRANCH  12  15
ATOM     15  C   UNL d   1      53.707  34.010  54.209  0.00  0.00     0.088 A 
ATOM     16  C   UNL d   1      54.193  33.565  54.717  0.00  0.00     0.011 A 
ATOM     17  C   UNL d   1      54.304  33.824  55.494  0.00  0.00     0.001 A 
ATOM     18  C   UNL d   1      54.782  33.392  56.003  0.00  0.00     0.000 C 
ATOM     19  C   UNL d   1      53.937  34.515  55.766  0.00  0.00     0.000 A 
ATOM     20  C   UNL d   1      53.451  34.953  55.248  0.00  0.00     0.001 A 
ATOM     21  C   UNL d   1      53.344  34.691  54.473  0.00  0.00     0.011 A 
ENDBRANCH  12  15
ENDBRANCH  11  12
BRANCH  11  22
ATOM     22  C   UNL d   1      52.517  34.118  52.515  0.00  0.00     0.135 C 
ATOM     23  N   UNL d   1      52.894  34.636  51.905  0.00  0.00    -0.146 N 
ENDBRANCH  11  22
ENDBRANCH   1  11
BRANCH   2  24
ATOM     24  N   UNL d   1      51.282  33.067  53.025  0.00  0.00    -0.284 N 
ATOM     25  C   UNL d   1      51.044  33.359  52.278  0.00  0.00     0.108 A 
ATOM     26  C   UNL d   1      50.455  33.950  52.244  0.00  0.00     0.142 A 
ATOM     27  O   UNL d   1      50.109  34.245  52.944  0.00  0.00    -0.300 OA
ATOM     28  C   UNL d   1      50.353  33.947  53.676  0.00  0.00     0.142 A 
ATOM     29  C   UNL d   1      50.936  33.361  53.724  0.00  0.00     0.108 A 
ENDBRANCH   2  24
TORSDOF 5
ENDMDL
