MODEL 1
REMARK VINA RESULT:      -9.2      0.000      0.000
REMARK  4 active torsions:
REMARK  status: ('A' for Active; 'I' for Inactive)
REMARK    1  A    between atoms: C_2  and  N_1 
REMARK       I    between atoms: C_3  and  N_1 
REMARK    2  A    between atoms: C_4  and  C_3 
REMARK    3  A    between atoms: C_6  and  C_4 
REMARK    4  A    between atoms: C_10  and  C_6 
ROOT
ATOM      1  N   UNL d   1      53.163  32.489  53.665  0.00  0.00    -0.208 NA
ATOM      2  C   UNL d   1      53.027  31.808  53.212  0.00  0.00     0.279 C 
ATOM      3  O   UNL d   1      52.560  31.859  52.533  0.00  0.00    -0.265 OA
ENDROOT
BRANCH   1   4
ATOM      4  C   UNL d   1      52.831  33.211  53.435  0.00  0.00     0.085 A 
ATOM      5  C   UNL d   1      52.987  33.877  53.879  0.00  0.00     0.021 A 
ATOM      6  C   UNL d   1      52.659  34.608  53.657  0.00  0.00     0.021 A 
ATOM      7  C   UNL d   1      53.467  33.838  54.549  0.00  0.00     0.022 A 
ATOM      8  C   UNL d   1      52.812  35.274  54.098  0.00  0.00     0.099 A 
ATOM      9  C   UNL d   1      52.178  34.647  52.987  0.00  0.00     0.002 A 
ATOM     10  N   UNL d   1      53.287  35.236  54.760  0.00  0.00    -0.242 NA
ATOM     11  C   UNL d   1      53.619  34.514  54.990  0.00  0.00     0.099 A 
ATOM     12  C   UNL d   1      52.025  33.967  52.541  0.00  0.00     0.002 A 
ATOM     13  C   UNL d   1      52.355  33.249  52.771  0.00  0.00     0.019 A 
ENDBRANCH   1   4
BRANCH   2  14
ATOM     14  C   UNL d   1      53.353  31.086  53.435  0.00  0.00     0.062 C 
BRANCH  14  15
ATOM     15  C   UNL d   1      52.875  30.419  53.489  0.00  0.00     0.005 C 
BRANCH  15  16
ATOM     16  C   UNL d   1      53.116  29.783  53.961  0.00  0.00     0.000 A 
ATOM     17  C   UNL d   1      53.617  29.208  53.646  0.00  0.00     0.000 A 
ATOM     18  C   UNL d   1      53.860  28.573  54.111  0.00  0.00     0.000 A 
ATOM     19  C   UNL d   1      53.601  28.511  54.897  0.00  0.00     0.000 A 
ATOM     20  C   UNL d   1      53.101  29.084  55.213  0.00  0.00     0.000 A 
ATOM     21  C   UNL d   1      52.857  29.721  54.747  0.00  0.00     0.000 A 
ENDBRANCH  15  16
ENDBRANCH  14  15
ENDBRANCH   2  14
TORSDOF 4
ENDMDL
MODEL 2
REMARK VINA RESULT:      -9.1      1.983      4.414
REMARK  4 active torsions:
REMARK  status: ('A' for Active; 'I' for Inactive)
REMARK    1  A    between atoms: C_2  and  N_1 
REMARK       I    between atoms: C_3  and  N_1 
REMARK    2  A    between atoms: C_4  and  C_3 
REMARK    3  A    between atoms: C_6  and  C_4 
REMARK    4  A    between atoms: C_10  and  C_6 
ROOT
ATOM      1  N   UNL d   1      52.198  33.464  53.756  0.00  0.00    -0.208 NA
ATOM      2  C   UNL d   1      51.761  33.442  53.052  0.00  0.00     0.279 C 
ATOM      3  O   UNL d   1      52.070  33.051  52.394  0.00  0.00    -0.265 OA
ENDROOT
BRANCH   1   4
ATOM      4  C   UNL d   1      52.938  33.096  53.793  0.00  0.00     0.085 A 
ATOM      5  C   UNL d   1      53.516  33.416  54.272  0.00  0.00     0.021 A 
ATOM      6  C   UNL d   1      54.263  33.055  54.317  0.00  0.00     0.021 A 
ATOM      7  C   UNL d   1      53.370  34.097  54.715  0.00  0.00     0.022 A 
ATOM      8  C   UNL d   1      54.841  33.372  54.794  0.00  0.00     0.099 A 
ATOM      9  C   UNL d   1      54.408  32.374  53.875  0.00  0.00     0.002 A 
ATOM     10  N   UNL d   1      54.697  34.046  55.232  0.00  0.00    -0.242 NA
ATOM     11  C   UNL d   1      53.957  34.414  55.195  0.00  0.00     0.099 A 
ATOM     12  C   UNL d   1      53.818  32.055  53.391  0.00  0.00     0.002 A 
ATOM     13  C   UNL d   1      53.082  32.422  53.355  0.00  0.00     0.019 A 
ENDBRANCH   1   4
BRANCH   2  14
ATOM     14  C   UNL d   1      51.024  33.805  53.007  0.00  0.00     0.062 C 
BRANCH  14  15
ATOM     15  C   UNL d   1      50.763  34.117  52.292  0.00  0.00     0.005 C 
BRANCH  15  16
ATOM     16  C   UNL d   1      50.013  34.464  52.248  0.00  0.00     0.000 A 
ATOM     17  C   UNL d   1      49.574  34.399  51.552  0.00  0.00     0.000 A 
ATOM     18  C   UNL d   1      48.826  34.742  51.502  0.00  0.00     0.000 A 
ATOM     19  C   UNL d   1      48.514  35.153  52.152  0.00  0.00     0.000 A 
ATOM     20  C   UNL d   1      48.951  35.219  52.847  0.00  0.00     0.000 A 
ATOM     21  C   UNL d   1      49.701  34.875  52.898  0.00  0.00     0.000 A 
ENDBRANCH  15  16
ENDBRANCH  14  15
ENDBRANCH   2  14
TORSDOF 4
ENDMDL
MODEL 3
REMARK VINA RESULT:      -8.3      3.547      5.019
REMARK  4 active torsions:
REMARK  status: ('A' for Active; 'I' for Inactive)
REMARK    1  A    between atoms: C_2  and  N_1 
REMARK       I    between atoms: C_3  and  N_1 
REMARK    2  A    between atoms: C_4  and  C_3 
REMARK    3  A    between atoms: C_6  and  C_4 
REMARK    4  A    between atoms: C_10  and  C_6 
ROOT
ATOM      1  N   UNL d   1      49.405  34.943  52.807  0.00  0.00    -0.208 NA
ATOM      2  C   UNL d   1      50.032  34.512  52.480  0.00  0.00     0.279 C 
ATOM      3  O   UNL d   1      50.000  34.287  51.687  0.00  0.00    -0.265 OA
ENDROOT
BRANCH   1   4
ATOM      4  C   UNL d   1      48.753  35.144  52.338  0.00  0.00     0.085 A 
ATOM      5  C   UNL d   1      48.198  35.664  52.635  0.00  0.00     0.021 A 
ATOM      6  C   UNL d   1      47.540  35.872  52.172  0.00  0.00     0.021 A 
ATOM      7  C   UNL d   1      48.279  35.986  53.390  0.00  0.00     0.022 A 
ATOM      8  C   UNL d   1      46.984  36.390  52.465  0.00  0.00     0.099 A 
ATOM      9  C   UNL d   1      47.459  35.549  51.417  0.00  0.00     0.002 A 
ATOM     10  N   UNL d   1      47.064  36.709  53.211  0.00  0.00    -0.242 NA
ATOM     11  C   UNL d   1      47.715  36.508  53.680  0.00  0.00     0.099 A 
ATOM     12  C   UNL d   1      48.026  35.024  51.123  0.00  0.00     0.002 A 
ATOM     13  C   UNL d   1      48.673  34.824  51.591  0.00  0.00     0.019 A 
ENDBRANCH   1   4
BRANCH   2  14
ATOM     14  C   UNL d   1      50.683  34.308  52.940  0.00  0.00     0.062 C 
BRANCH  14  15
ATOM     15  C   UNL d   1      51.418  34.199  52.586  0.00  0.00     0.005 C 
BRANCH  15  16
ATOM     16  C   UNL d   1      52.081  34.057  53.060  0.00  0.00     0.000 A 
ATOM     17  C   UNL d   1      52.308  33.279  53.222  0.00  0.00     0.000 A 
ATOM     18  C   UNL d   1      52.967  33.132  53.693  0.00  0.00     0.000 A 
ATOM     19  C   UNL d   1      53.404  33.764  54.006  0.00  0.00     0.000 A 
ATOM     20  C   UNL d   1      53.179  34.540  53.846  0.00  0.00     0.000 A 
ATOM     21  C   UNL d   1      52.518  34.689  53.373  0.00  0.00     0.000 A 
ENDBRANCH  15  16
ENDBRANCH  14  15
ENDBRANCH   2  14
TORSDOF 4
ENDMDL
MODEL 4
REMARK VINA RESULT:      -6.7      9.795     11.040
REMARK  4 active torsions:
REMARK  status: ('A' for Active; 'I' for Inactive)
REMARK    1  A    between atoms: C_2  and  N_1 
REMARK       I    between atoms: C_3  and  N_1 
REMARK    2  A    between atoms: C_4  and  C_3 
REMARK    3  A    between atoms: C_6  and  C_4 
REMARK    4  A    between atoms: C_10  and  C_6 
ROOT
ATOM      1  N   UNL d   1      44.548  29.178  59.067  0.00  0.00    -0.208 NA
ATOM      2  C   UNL d   1      44.672  29.915  59.425  0.00  0.00     0.279 C 
ATOM      3  O   UNL d   1      44.983  30.535  58.980  0.00  0.00    -0.265 OA
ENDROOT
BRANCH   1   4
ATOM      4  C   UNL d   1      44.735  29.070  58.269  0.00  0.00     0.085 A 
ATOM      5  C   UNL d   1      44.987  28.336  58.017  0.00  0.00     0.021 A 
ATOM      6  C   UNL d   1      45.178  28.217  57.217  0.00  0.00     0.021 A 
ATOM      7  C   UNL d   1      45.056  27.707  58.546  0.00  0.00     0.022 A 
ATOM      8  C   UNL d   1      45.430  27.486  56.962  0.00  0.00     0.099 A 
ATOM      9  C   UNL d   1      45.110  28.847  56.688  0.00  0.00     0.002 A 
ATOM     10  N   UNL d   1      45.498  26.863  57.485  0.00  0.00    -0.242 NA
ATOM     11  C   UNL d   1      45.310  26.971  58.284  0.00  0.00     0.099 A 
ATOM     12  C   UNL d   1      44.854  29.588  56.950  0.00  0.00     0.002 A 
ATOM     13  C   UNL d   1      44.667  29.694  57.745  0.00  0.00     0.019 A 
ENDBRANCH   1   4
BRANCH   2  14
ATOM     14  C   UNL d   1      44.488  30.029  60.219  0.00  0.00     0.062 C 
BRANCH  14  15
ATOM     15  C   UNL d   1      44.931  30.554  60.672  0.00  0.00     0.005 C 
BRANCH  15  16
ATOM     16  C   UNL d   1      44.726  30.683  61.463  0.00  0.00     0.000 A 
ATOM     17  C   UNL d   1      44.729  30.050  61.993  0.00  0.00     0.000 A 
ATOM     18  C   UNL d   1      44.526  30.172  62.782  0.00  0.00     0.000 A 
ATOM     19  C   UNL d   1      44.317  30.931  63.045  0.00  0.00     0.000 A 
ATOM     20  C   UNL d   1      44.314  31.563  62.517  0.00  0.00     0.000 A 
ATOM     21  C   UNL d   1      44.518  31.443  61.726  0.00  0.00     0.000 A 
ENDBRANCH  15  16
ENDBRANCH  14  15
ENDBRANCH   2  14
TORSDOF 4
ENDMDL
MODEL 5
REMARK VINA RESULT:      -6.6      9.767     10.736
REMARK  4 active torsions:
REMARK  status: ('A' for Active; 'I' for Inactive)
REMARK    1  A    between atoms: C_2  and  N_1 
REMARK       I    between atoms: C_3  and  N_1 
REMARK    2  A    between atoms: C_4  and  C_3 
REMARK    3  A    between atoms: C_6  and  C_4 
REMARK    4  A    between atoms: C_10  and  C_6 
ROOT
ATOM      1  N   UNL d   1      44.885  30.235  58.744  0.00  0.00    -0.208 NA
ATOM      2  C   UNL d   1      44.765  29.897  59.491  0.00  0.00     0.279 C 
ATOM      3  O   UNL d   1      44.681  29.079  59.559  0.00  0.00    -0.265 OA
ENDROOT
BRANCH   1   4
ATOM      4  C   UNL d   1      44.920  29.752  58.074  0.00  0.00     0.085 A 
ATOM      5  C   UNL d   1      44.767  30.079  57.342  0.00  0.00     0.021 A 
ATOM      6  C   UNL d   1      44.800  29.602  56.662  0.00  0.00     0.021 A 
ATOM      7  C   UNL d   1      44.581  30.879  57.265  0.00  0.00     0.022 A 
ATOM      8  C   UNL d   1      44.649  29.925  55.930  0.00  0.00     0.099 A 
ATOM      9  C   UNL d   1      44.986  28.802  56.739  0.00  0.00     0.002 A 
ATOM     10  N   UNL d   1      44.464  30.717  55.854  0.00  0.00    -0.242 NA
ATOM     11  C   UNL d   1      44.429  31.200  56.524  0.00  0.00     0.099 A 
ATOM     12  C   UNL d   1      45.139  28.477  57.484  0.00  0.00     0.002 A 
ATOM     13  C   UNL d   1      45.104  28.959  58.150  0.00  0.00     0.019 A 
ENDBRANCH   1   4
BRANCH   2  14
ATOM     14  C   UNL d   1      44.729  30.372  60.163  0.00  0.00     0.062 C 
BRANCH  14  15
ATOM     15  C   UNL d   1      44.713  30.026  60.910  0.00  0.00     0.005 C 
BRANCH  15  16
ATOM     16  C   UNL d   1      44.580  30.500  61.575  0.00  0.00     0.000 A 
ATOM     17  C   UNL d   1      44.499  31.317  61.484  0.00  0.00     0.000 A 
ATOM     18  C   UNL d   1      44.367  31.794  62.142  0.00  0.00     0.000 A 
ATOM     19  C   UNL d   1      44.314  31.455  62.897  0.00  0.00     0.000 A 
ATOM     20  C   UNL d   1      44.395  30.640  62.989  0.00  0.00     0.000 A 
ATOM     21  C   UNL d   1      44.528  30.160  62.330  0.00  0.00     0.000 A 
ENDBRANCH  15  16
ENDBRANCH  14  15
ENDBRANCH   2  14
TORSDOF 4
ENDMDL
