MODEL 1
REMARK VINA RESULT:      -8.7      0.000      0.000
REMARK  7 active torsions:
REMARK  status: ('A' for Active; 'I' for Inactive)
REMARK    1  A    between atoms: C_19  and  N_1 
REMARK    2  A    between atoms: C_6  and  C_3 
REMARK    3  A    between atoms: C_9  and  C_6 
REMARK    4  A    between atoms: C_7  and  N_8 
REMARK       I    between atoms: N_8  and  C_11 
REMARK    5  A    between atoms: C_11  and  C_23 
REMARK    6  A    between atoms: C_22  and  C_19 
REMARK    7  A    between atoms: C_23  and  C_22 
ROOT
ATOM      1  C   UNL d   1      50.111  34.182  52.892  0.00  0.00     0.024 C 
ENDROOT
BRANCH   1   2
ATOM      2  C   UNL d   1      49.917  34.707  52.306  0.00  0.00     0.084 C 
BRANCH   2   3
ATOM      3  N   UNL d   1      49.168  35.051  52.246  0.00  0.00    -0.259 N 
ATOM      4  C   UNL d   1      48.666  34.974  51.586  0.00  0.00     0.153 A 
ATOM      5  S   UNL d   1      47.984  35.401  51.760  0.00  0.00    -0.053 SA
ATOM      6  S   UNL d   1      48.830  34.544  50.891  0.00  0.00    -0.052 SA
ATOM      7  C   UNL d   1      48.028  35.747  52.496  0.00  0.00     0.090 A 
ATOM      8  C   UNL d   1      48.761  35.529  52.793  0.00  0.00     0.272 A 
ATOM      9  O   UNL d   1      49.050  35.764  53.555  0.00  0.00    -0.266 OA
BRANCH   7  10
ATOM     10  C   UNL d   1      47.446  36.223  52.868  0.00  0.00     0.036 C 
BRANCH  10  11
ATOM     11  C   UNL d   1      46.647  36.074  52.767  0.00  0.00     0.101 A 
ATOM     12  O   UNL d   1      46.162  35.394  52.841  0.00  0.00    -0.305 OA
ATOM     13  C   UNL d   1      45.381  35.625  52.657  0.00  0.00     0.123 A 
ATOM     14  C   UNL d   1      45.371  36.398  52.479  0.00  0.00     0.029 A 
ATOM     15  C   UNL d   1      46.139  36.683  52.543  0.00  0.00     0.027 A 
ENDBRANCH  10  11
ENDBRANCH   7  10
ENDBRANCH   2   3
ENDBRANCH   1   2
BRANCH   1  16
ATOM     16  C   UNL d   1      50.910  33.995  53.084  0.00  0.00     0.064 C 
BRANCH  16  17
ATOM     17  C   UNL d   1      51.156  33.237  53.224  0.00  0.00     0.279 C 
ATOM     18  N   UNL d   1      51.900  33.084  53.549  0.00  0.00    -0.208 NA
ATOM     19  O   UNL d   1      50.655  32.599  53.039  0.00  0.00    -0.265 OA
BRANCH  18  20
ATOM     20  C   UNL d   1      52.411  33.727  53.738  0.00  0.00     0.085 A 
ATOM     21  C   UNL d   1      53.093  33.577  54.167  0.00  0.00     0.018 A 
ATOM     22  C   UNL d   1      53.605  34.203  54.359  0.00  0.00     0.002 A 
ATOM     23  C   UNL d   1      53.267  32.807  54.405  0.00  0.00     0.002 A 
ATOM     24  C   UNL d   1      54.286  34.059  54.787  0.00  0.00     0.000 A 
ATOM     25  C   UNL d   1      53.422  34.981  54.114  0.00  0.00     0.000 A 
ATOM     26  C   UNL d   1      54.476  33.290  55.034  0.00  0.00     0.000 A 
ATOM     27  C   UNL d   1      53.960  32.657  54.841  0.00  0.00     0.000 A 
ATOM     28  C   UNL d   1      52.746  35.126  53.690  0.00  0.00     0.002 A 
ATOM     29  C   UNL d   1      52.237  34.498  53.499  0.00  0.00     0.019 A 
ENDBRANCH  18  20
ENDBRANCH  16  17
ENDBRANCH   1  16
TORSDOF 7
ENDMDL
MODEL 2
REMARK VINA RESULT:      -8.6      1.627      6.177
REMARK  7 active torsions:
REMARK  status: ('A' for Active; 'I' for Inactive)
REMARK    1  A    between atoms: C_19  and  N_1 
REMARK    2  A    between atoms: C_6  and  C_3 
REMARK    3  A    between atoms: C_9  and  C_6 
REMARK    4  A    between atoms: C_7  and  N_8 
REMARK       I    between atoms: N_8  and  C_11 
REMARK    5  A    between atoms: C_11  and  C_23 
REMARK    6  A    between atoms: C_22  and  C_19 
REMARK    7  A    between atoms: C_23  and  C_22 
ROOT
ATOM      1  C   UNL d   1      50.157  34.413  52.391  0.00  0.00     0.024 C 
ENDROOT
BRANCH   1   2
ATOM      2  C   UNL d   1      50.408  34.082  53.087  0.00  0.00     0.084 C 
BRANCH   2   3
ATOM      3  N   UNL d   1      51.194  33.868  53.221  0.00  0.00    -0.259 N 
ATOM      4  C   UNL d   1      51.475  33.084  53.224  0.00  0.00     0.153 A 
ATOM      5  S   UNL d   1      52.283  33.125  53.379  0.00  0.00    -0.053 SA
ATOM      6  S   UNL d   1      51.019  32.398  53.096  0.00  0.00    -0.052 SA
ATOM      7  C   UNL d   1      52.529  33.896  53.473  0.00  0.00     0.090 A 
ATOM      8  C   UNL d   1      51.855  34.352  53.375  0.00  0.00     0.272 A 
ATOM      9  O   UNL d   1      51.846  35.198  53.427  0.00  0.00    -0.266 OA
BRANCH   7  10
ATOM     10  C   UNL d   1      53.308  34.162  53.636  0.00  0.00     0.036 C 
BRANCH  10  11
ATOM     11  C   UNL d   1      53.747  33.843  54.250  0.00  0.00     0.101 A 
ATOM     12  O   UNL d   1      53.597  33.688  55.061  0.00  0.00    -0.305 OA
ATOM     13  C   UNL d   1      54.292  33.352  55.381  0.00  0.00     0.123 A 
ATOM     14  C   UNL d   1      54.843  33.298  54.814  0.00  0.00     0.029 A 
ATOM     15  C   UNL d   1      54.522  33.595  54.119  0.00  0.00     0.027 A 
ENDBRANCH  10  11
ENDBRANCH   7  10
ENDBRANCH   2   3
ENDBRANCH   1   2
BRANCH   1  16
ATOM     16  C   UNL d   1      49.395  34.762  52.306  0.00  0.00     0.064 C 
BRANCH  16  17
ATOM     17  C   UNL d   1      49.026  34.829  51.588  0.00  0.00     0.279 C 
ATOM     18  N   UNL d   1      48.326  35.259  51.508  0.00  0.00    -0.208 NA
ATOM     19  O   UNL d   1      49.357  34.462  50.919  0.00  0.00    -0.265 OA
BRANCH  18  20
ATOM     20  C   UNL d   1      47.988  35.633  52.184  0.00  0.00     0.085 A 
ATOM     21  C   UNL d   1      47.183  35.784  52.190  0.00  0.00     0.018 A 
ATOM     22  C   UNL d   1      46.838  36.152  52.851  0.00  0.00     0.002 A 
ATOM     23  C   UNL d   1      46.719  35.570  51.543  0.00  0.00     0.002 A 
ATOM     24  C   UNL d   1      46.036  36.305  52.863  0.00  0.00     0.000 A 
ATOM     25  C   UNL d   1      47.314  36.366  53.504  0.00  0.00     0.000 A 
ATOM     26  C   UNL d   1      45.555  36.097  52.220  0.00  0.00     0.000 A 
ATOM     27  C   UNL d   1      45.902  35.725  51.552  0.00  0.00     0.000 A 
ATOM     28  C   UNL d   1      48.111  36.215  53.494  0.00  0.00     0.002 A 
ATOM     29  C   UNL d   1      48.452  35.847  52.832  0.00  0.00     0.019 A 
ENDBRANCH  18  20
ENDBRANCH  16  17
ENDBRANCH   1  16
TORSDOF 7
ENDMDL
MODEL 3
REMARK VINA RESULT:      -7.6      1.474      6.232
REMARK  7 active torsions:
REMARK  status: ('A' for Active; 'I' for Inactive)
REMARK    1  A    between atoms: C_19  and  N_1 
REMARK    2  A    between atoms: C_6  and  C_3 
REMARK    3  A    between atoms: C_9  and  C_6 
REMARK    4  A    between atoms: C_7  and  N_8 
REMARK       I    between atoms: N_8  and  C_11 
REMARK    5  A    between atoms: C_11  and  C_23 
REMARK    6  A    between atoms: C_22  and  C_19 
REMARK    7  A    between atoms: C_23  and  C_22 
ROOT
ATOM      1  C   UNL d   1      49.365  35.185  52.988  0.00  0.00     0.024 C 
ENDROOT
BRANCH   1   2
ATOM      2  C   UNL d   1      49.596  34.480  52.661  0.00  0.00     0.084 C 
BRANCH   2   3
ATOM      3  N   UNL d   1      50.378  34.216  52.674  0.00  0.00    -0.259 N 
ATOM      4  C   UNL d   1      50.886  34.214  52.015  0.00  0.00     0.153 A 
ATOM      5  S   UNL d   1      51.606  33.909  52.274  0.00  0.00    -0.053 SA
ATOM      6  S   UNL d   1      50.695  34.473  51.246  0.00  0.00    -0.052 SA
ATOM      7  C   UNL d   1      51.579  33.716  53.066  0.00  0.00     0.090 A 
ATOM      8  C   UNL d   1      50.820  33.907  53.309  0.00  0.00     0.272 A 
ATOM      9  O   UNL d   1      50.538  33.799  54.102  0.00  0.00    -0.266 OA
BRANCH   7  10
ATOM     10  C   UNL d   1      52.199  33.392  53.529  0.00  0.00     0.036 C 
BRANCH  10  11
ATOM     11  C   UNL d   1      52.532  32.666  53.346  0.00  0.00     0.101 A 
ATOM     12  O   UNL d   1      52.257  31.974  52.961  0.00  0.00    -0.305 OA
ATOM     13  C   UNL d   1      52.887  31.425  52.957  0.00  0.00     0.123 A 
ATOM     14  C   UNL d   1      53.518  31.747  53.314  0.00  0.00     0.029 A 
ATOM     15  C   UNL d   1      53.313  32.505  53.556  0.00  0.00     0.027 A 
ENDBRANCH  10  11
ENDBRANCH   7  10
ENDBRANCH   2   3
ENDBRANCH   1   2
BRANCH   1  16
ATOM     16  C   UNL d   1      48.585  35.491  52.899  0.00  0.00     0.064 C 
BRANCH  16  17
ATOM     17  C   UNL d   1      48.304  36.100  53.352  0.00  0.00     0.279 C 
ATOM     18  N   UNL d   1      47.545  36.402  53.235  0.00  0.00    -0.208 NA
ATOM     19  O   UNL d   1      48.785  36.428  53.947  0.00  0.00    -0.265 OA
BRANCH  18  20
ATOM     20  C   UNL d   1      47.055  36.072  52.634  0.00  0.00     0.085 A 
ATOM     21  C   UNL d   1      46.283  35.871  52.820  0.00  0.00     0.018 A 
ATOM     22  C   UNL d   1      45.789  35.544  52.236  0.00  0.00     0.002 A 
ATOM     23  C   UNL d   1      45.999  35.992  53.585  0.00  0.00     0.002 A 
ATOM     24  C   UNL d   1      45.019  35.342  52.416  0.00  0.00     0.000 A 
ATOM     25  C   UNL d   1      46.083  35.424  51.463  0.00  0.00     0.000 A 
ATOM     26  C   UNL d   1      44.718  35.457  53.181  0.00  0.00     0.000 A 
ATOM     27  C   UNL d   1      45.216  35.786  53.772  0.00  0.00     0.000 A 
ATOM     28  C   UNL d   1      46.847  35.625  51.281  0.00  0.00     0.002 A 
ATOM     29  C   UNL d   1      47.338  35.950  51.868  0.00  0.00     0.019 A 
ENDBRANCH  18  20
ENDBRANCH  16  17
ENDBRANCH   1  16
TORSDOF 7
ENDMDL
MODEL 4
REMARK VINA RESULT:      -7.3      1.795      6.192
REMARK  7 active torsions:
REMARK  status: ('A' for Active; 'I' for Inactive)
REMARK    1  A    between atoms: C_19  and  N_1 
REMARK    2  A    between atoms: C_6  and  C_3 
REMARK    3  A    between atoms: C_9  and  C_6 
REMARK    4  A    between atoms: C_7  and  N_8 
REMARK       I    between atoms: N_8  and  C_11 
REMARK    5  A    between atoms: C_11  and  C_23 
REMARK    6  A    between atoms: C_22  and  C_19 
REMARK    7  A    between atoms: C_23  and  C_22 
ROOT
ATOM      1  C   UNL d   1      50.221  34.412  52.420  0.00  0.00     0.024 C 
ENDROOT
BRANCH   1   2
ATOM      2  C   UNL d   1      50.591  34.169  53.099  0.00  0.00     0.084 C 
BRANCH   2   3
ATOM      3  N   UNL d   1      51.334  33.808  53.097  0.00  0.00    -0.259 N 
ATOM      4  C   UNL d   1      52.037  34.176  53.349  0.00  0.00     0.153 A 
ATOM      5  S   UNL d   1      52.639  33.622  53.255  0.00  0.00    -0.053 SA
ATOM      6  S   UNL d   1      52.108  34.955  53.639  0.00  0.00    -0.052 SA
ATOM      7  C   UNL d   1      52.353  32.921  52.955  0.00  0.00     0.090 A 
ATOM      8  C   UNL d   1      51.547  33.039  52.859  0.00  0.00     0.272 A 
ATOM      9  O   UNL d   1      51.017  32.450  52.558  0.00  0.00    -0.266 OA
BRANCH   7  10
ATOM     10  C   UNL d   1      52.793  32.227  52.782  0.00  0.00     0.036 C 
BRANCH  10  11
ATOM     11  C   UNL d   1      53.154  31.794  53.376  0.00  0.00     0.101 A 
ATOM     12  O   UNL d   1      53.617  31.989  54.048  0.00  0.00    -0.305 OA
ATOM     13  C   UNL d   1      53.815  31.273  54.430  0.00  0.00     0.123 A 
ATOM     14  C   UNL d   1      53.499  30.666  54.029  0.00  0.00     0.029 A 
ATOM     15  C   UNL d   1      53.094  30.972  53.383  0.00  0.00     0.027 A 
ENDBRANCH  10  11
ENDBRANCH   7  10
ENDBRANCH   2   3
ENDBRANCH   1   2
BRANCH   1  16
ATOM     16  C   UNL d   1      49.465  34.784  52.426  0.00  0.00     0.064 C 
BRANCH  16  17
ATOM     17  C   UNL d   1      49.020  34.874  51.756  0.00  0.00     0.279 C 
ATOM     18  N   UNL d   1      48.324  35.317  51.763  0.00  0.00    -0.208 NA
ATOM     19  O   UNL d   1      49.267  34.516  51.046  0.00  0.00    -0.265 OA
BRANCH  18  20
ATOM     20  C   UNL d   1      48.071  35.681  52.480  0.00  0.00     0.085 A 
ATOM     21  C   UNL d   1      47.291  35.924  52.546  0.00  0.00     0.018 A 
ATOM     22  C   UNL d   1      47.029  36.284  53.248  0.00  0.00     0.002 A 
ATOM     23  C   UNL d   1      46.770  35.810  51.917  0.00  0.00     0.002 A 
ATOM     24  C   UNL d   1      46.253  36.528  53.319  0.00  0.00     0.000 A 
ATOM     25  C   UNL d   1      47.562  36.396  53.882  0.00  0.00     0.000 A 
ATOM     26  C   UNL d   1      45.716  36.421  52.695  0.00  0.00     0.000 A 
ATOM     27  C   UNL d   1      45.979  36.057  51.986  0.00  0.00     0.000 A 
ATOM     28  C   UNL d   1      48.333  36.154  53.814  0.00  0.00     0.002 A 
ATOM     29  C   UNL d   1      48.591  35.795  53.111  0.00  0.00     0.019 A 
ENDBRANCH  18  20
ENDBRANCH  16  17
ENDBRANCH   1  16
TORSDOF 7
ENDMDL
MODEL 5
REMARK VINA RESULT:      -7.3      2.669      6.366
REMARK  7 active torsions:
REMARK  status: ('A' for Active; 'I' for Inactive)
REMARK    1  A    between atoms: C_19  and  N_1 
REMARK    2  A    between atoms: C_6  and  C_3 
REMARK    3  A    between atoms: C_9  and  C_6 
REMARK    4  A    between atoms: C_7  and  N_8 
REMARK       I    between atoms: N_8  and  C_11 
REMARK    5  A    between atoms: C_11  and  C_23 
REMARK    6  A    between atoms: C_22  and  C_19 
REMARK    7  A    between atoms: C_23  and  C_22 
ROOT
ATOM      1  C   UNL d   1      52.110  33.193  53.415  0.00  0.00     0.024 C 
ENDROOT
BRANCH   1   2
ATOM      2  C   UNL d   1      52.712  32.860  52.987  0.00  0.00     0.084 C 
BRANCH   2   3
ATOM      3  N   UNL d   1      53.041  32.126  53.176  0.00  0.00    -0.259 N 
ATOM      4  C   UNL d   1      53.797  32.020  53.508  0.00  0.00     0.153 A 
ATOM      5  S   UNL d   1      53.899  31.209  53.605  0.00  0.00    -0.053 SA
ATOM      6  S   UNL d   1      54.338  32.624  53.702  0.00  0.00    -0.052 SA
ATOM      7  C   UNL d   1      53.245  30.794  53.350  0.00  0.00     0.090 A 
ATOM      8  C   UNL d   1      52.718  31.364  53.086  0.00  0.00     0.272 A 
ATOM      9  O   UNL d   1      51.952  31.185  52.768  0.00  0.00    -0.266 OA
BRANCH   7  10
ATOM     10  C   UNL d   1      53.139  29.962  53.358  0.00  0.00     0.036 C 
BRANCH  10  11
ATOM     11  C   UNL d   1      53.197  29.533  54.054  0.00  0.00     0.101 A 
ATOM     12  O   UNL d   1      52.918  29.642  54.837  0.00  0.00    -0.305 OA
ATOM     13  C   UNL d   1      53.175  28.986  55.286  0.00  0.00     0.123 A 
ATOM     14  C   UNL d   1      53.588  28.495  54.819  0.00  0.00     0.029 A 
ATOM     15  C   UNL d   1      53.607  28.818  54.065  0.00  0.00     0.027 A 
ENDBRANCH  10  11
ENDBRANCH   7  10
ENDBRANCH   2   3
ENDBRANCH   1   2
BRANCH   1  16
ATOM     16  C   UNL d   1      51.615  33.800  53.103  0.00  0.00     0.064 C 
BRANCH  16  17
ATOM     17  C   UNL d   1      51.404  34.452  53.533  0.00  0.00     0.279 C 
ATOM     18  N   UNL d   1      50.763  34.921  53.308  0.00  0.00    -0.208 NA
ATOM     19  O   UNL d   1      51.837  34.655  54.214  0.00  0.00    -0.265 OA
BRANCH  18  20
ATOM     20  C   UNL d   1      50.322  34.718  52.618  0.00  0.00     0.085 A 
ATOM     21  C   UNL d   1      49.538  34.952  52.569  0.00  0.00     0.018 A 
ATOM     22  C   UNL d   1      49.092  34.758  51.894  0.00  0.00     0.002 A 
ATOM     23  C   UNL d   1      49.195  35.378  53.186  0.00  0.00     0.002 A 
ATOM     24  C   UNL d   1      48.310  34.989  51.839  0.00  0.00     0.000 A 
ATOM     25  C   UNL d   1      49.445  34.327  51.271  0.00  0.00     0.000 A 
ATOM     26  C   UNL d   1      47.951  35.418  52.452  0.00  0.00     0.000 A 
ATOM     27  C   UNL d   1      48.400  35.614  53.133  0.00  0.00     0.000 A 
ATOM     28  C   UNL d   1      50.221  34.097  51.324  0.00  0.00     0.002 A 
ATOM     29  C   UNL d   1      50.664  34.293  52.000  0.00  0.00     0.019 A 
ENDBRANCH  18  20
ENDBRANCH  16  17
ENDBRANCH   1  16
TORSDOF 7
ENDMDL
