MODEL 1
REMARK VINA RESULT:      41.9      0.000      0.000
REMARK  4 active torsions:
REMARK  status: ('A' for Active; 'I' for Inactive)
REMARK    1  A    between atoms: C_6  and  C_1 
REMARK    2  A    between atoms: C_4  and  C_8 
REMARK    3  A    between atoms: O_18  and  C_6 
REMARK    4  A    between atoms: C_19  and  O_18 
ROOT
ATOM      1  C   UNL d   1     -47.361  32.104  34.588  0.00  0.00     0.121 A 
ATOM      2  C   UNL d   1     -47.525  30.783  35.096  0.00  0.00     0.057 A 
ATOM      3  C   UNL d   1     -47.612  31.330  34.485  0.00  0.00     0.204 A 
ATOM      4  C   UNL d   1     -47.779  30.007  34.986  0.00  0.00     0.009 A 
ATOM      5  N   UNL d   1     -46.933  31.791  35.921  0.00  0.00    -0.244 NA
ATOM      6  C   UNL d   1     -47.695  29.458  35.593  0.00  0.00     0.072 A 
ATOM      7  C   UNL d   1     -47.019  32.339  35.310  0.00  0.00     0.107 A 
ATOM      8  C   UNL d   1     -47.187  31.008  35.814  0.00  0.00     0.085 A 
ATOM      9  C   UNL d   1     -47.356  29.684  36.311  0.00  0.00     0.005 A 
ATOM     10  C   UNL d   1     -47.103  30.458  36.421  0.00  0.00     0.019 A 
ATOM     11  O   UNL d   1     -47.951  31.101  33.769  0.00  0.00    -0.286 OA
ENDROOT
BRANCH   1  12
ATOM     12  C   UNL d   1     -47.446  32.653  33.981  0.00  0.00     0.305 C 
ATOM     13  O   UNL d   1     -46.924  32.646  33.342  0.00  0.00    -0.259 OA
BRANCH  12  14
ATOM     14  O   UNL d   1     -48.053  33.216  34.006  0.00  0.00    -0.271 OA
BRANCH  14  15
ATOM     15  C   UNL d   1     -48.410  33.465  33.306  0.00  0.00     0.126 C 
ATOM     16  C   UNL d   1     -49.206  33.686  33.310  0.00  0.00     0.029 C 
ENDBRANCH  14  15
ENDBRANCH  12  14
ENDBRANCH   1  12
BRANCH   6  17
ATOM     17  C   UNL d   1     -47.949  28.682  35.483  0.00  0.00     0.419 C 
ATOM     18  F   UNL d   1     -47.687  28.250  34.830  0.00  0.00    -0.166 F 
ATOM     19  F   UNL d   1     -48.467  28.336  36.026  0.00  0.00    -0.166 F 
ATOM     20  F   UNL d   1     -48.213  29.111  36.136  0.00  0.00    -0.166 F 
ENDBRANCH   6  17
TORSDOF 4
ENDMDL
