MODEL 1
REMARK VINA RESULT:      11.5      0.000      0.000
REMARK  0 active torsions:
REMARK  status: ('A' for Active; 'I' for Inactive)
ROOT
ATOM      1  N   UNL d   1      14.415  12.221  -0.960  0.00  0.00    -0.248 N 
ATOM      2  C   UNL d   1      13.668  11.937  -0.798  0.00  0.00     0.208 A 
ATOM      3  C   UNL d   1      14.653  12.368  -1.764  0.00  0.00     0.268 A 
ATOM      4  C   UNL d   1      14.140  12.227  -2.356  0.00  0.00     0.074 A 
ATOM      5  N   UNL d   1      13.146  11.796  -1.436  0.00  0.00    -0.218 NA
ATOM      6  C   UNL d   1      13.389  11.941  -2.193  0.00  0.00     0.088 A 
ATOM      7  S   UNL d   1      13.417  11.786  -0.014  0.00  0.00    -0.038 SA
ATOM      8  O   UNL d   1      15.413  12.657  -1.929  0.00  0.00    -0.267 OA
ATOM      9  C   UNL d   1      14.974  12.377  -0.338  0.00  0.00     0.104 C 
ATOM     10  C   UNL d   1      14.367  12.369  -3.148  0.00  0.00     0.006 A 
ATOM     11  C   UNL d   1      12.845  11.792  -2.828  0.00  0.00     0.019 A 
ATOM     12  C   UNL d   1      13.839  12.225  -3.768  0.00  0.00     0.000 A 
ATOM     13  C   UNL d   1      13.084  11.938  -3.603  0.00  0.00     0.002 A 
ENDROOT
TORSDOF 0
ENDMDL
