MODEL 1
REMARK VINA RESULT:      -7.4      0.000      0.000
REMARK  3 active torsions:
REMARK  status: ('A' for Active; 'I' for Inactive)
REMARK    1  A    between atoms: C_6  and  C_1 
REMARK    2  A    between atoms: C_7  and  C_5 
REMARK    3  A    between atoms: C_15  and  C_14 
ROOT
ATOM      1  C   UNL d   1     -45.778  12.906  22.642  0.00  0.00     0.169 A 
ATOM      2  C   UNL d   1     -46.423  12.954  22.194  0.00  0.00     0.048 A 
ATOM      3  N   UNL d   1     -46.524  12.429  23.661  0.00  0.00    -0.148 NA
ATOM      4  N   UNL d   1     -45.827  12.641  23.384  0.00  0.00    -0.142 NA
ATOM      5  C   UNL d   1     -47.174  12.476  23.214  0.00  0.00     0.105 A 
ENDROOT
BRANCH   5   6
ATOM      6  C   UNL d   1     -47.964  12.304  23.332  0.00  0.00     0.019 A 
ATOM      7  C   UNL d   1     -48.185  11.536  23.558  0.00  0.00     0.002 A 
ATOM      8  C   UNL d   1     -48.974  11.358  23.677  0.00  0.00     0.000 A 
ATOM      9  C   UNL d   1     -49.552  11.937  23.574  0.00  0.00     0.000 A 
ATOM     10  C   UNL d   1     -49.331  12.706  23.348  0.00  0.00     0.000 A 
ATOM     11  C   UNL d   1     -48.533  12.882  23.228  0.00  0.00     0.002 A 
BRANCH   9  12
ATOM     12  C   UNL d   1     -50.370  11.752  23.698  0.00  0.00     0.000 C 
ATOM     13  C   UNL d   1     -50.969  12.243  23.364  0.00  0.00     0.000 C 
ENDBRANCH   9  12
ENDBRANCH   5   6
BRANCH   1  14
ATOM     14  C   UNL d   1     -45.089  13.124  22.344  0.00  0.00     0.231 C 
ATOM     15  O   UNL d   1     -44.955  13.887  22.187  0.00  0.00    -0.643 OA
ATOM     16  O   UNL d   1     -44.529  12.587  22.200  0.00  0.00    -0.643 OA
ENDBRANCH   1  14
TORSDOF 3
ENDMDL
MODEL 2
REMARK VINA RESULT:      -7.4      1.860      2.330
REMARK  3 active torsions:
REMARK  status: ('A' for Active; 'I' for Inactive)
REMARK    1  A    between atoms: C_6  and  C_1 
REMARK    2  A    between atoms: C_7  and  C_5 
REMARK    3  A    between atoms: C_15  and  C_14 
ROOT
ATOM      1  C   UNL d   1     -46.115  13.290  22.714  0.00  0.00     0.169 A 
ATOM      2  C   UNL d   1     -46.816  12.939  22.657  0.00  0.00     0.048 A 
ATOM      3  N   UNL d   1     -46.727  14.482  22.876  0.00  0.00    -0.148 NA
ATOM      4  N   UNL d   1     -46.067  14.071  22.825  0.00  0.00    -0.142 NA
ATOM      5  C   UNL d   1     -47.433  14.133  22.818  0.00  0.00     0.105 A 
ENDROOT
BRANCH   5   6
ATOM      6  C   UNL d   1     -48.206  14.396  22.847  0.00  0.00     0.019 A 
ATOM      7  C   UNL d   1     -48.397  15.138  22.525  0.00  0.00     0.002 A 
ATOM      8  C   UNL d   1     -49.168  15.406  22.550  0.00  0.00     0.000 A 
ATOM      9  C   UNL d   1     -49.760  14.945  22.893  0.00  0.00     0.000 A 
ATOM     10  C   UNL d   1     -49.568  14.202  23.215  0.00  0.00     0.000 A 
ATOM     11  C   UNL d   1     -48.788  13.934  23.188  0.00  0.00     0.002 A 
BRANCH   9  12
ATOM     12  C   UNL d   1     -50.559  15.223  22.919  0.00  0.00     0.000 C 
ATOM     13  C   UNL d   1     -50.867  15.560  23.629  0.00  0.00     0.000 C 
ENDBRANCH   9  12
ENDBRANCH   5   6
BRANCH   1  14
ATOM     14  C   UNL d   1     -45.465  12.858  22.661  0.00  0.00     0.231 C 
ATOM     15  O   UNL d   1     -44.915  13.046  22.126  0.00  0.00    -0.643 OA
ATOM     16  O   UNL d   1     -45.358  12.238  23.137  0.00  0.00    -0.643 OA
ENDBRANCH   1  14
TORSDOF 3
ENDMDL
MODEL 3
REMARK VINA RESULT:      -7.0      3.067      4.333
REMARK  3 active torsions:
REMARK  status: ('A' for Active; 'I' for Inactive)
REMARK    1  A    between atoms: C_6  and  C_1 
REMARK    2  A    between atoms: C_7  and  C_5 
REMARK    3  A    between atoms: C_15  and  C_14 
ROOT
ATOM      1  C   UNL d   1     -49.871  14.969  22.849  0.00  0.00     0.169 A 
ATOM      2  C   UNL d   1     -49.219  15.256  22.517  0.00  0.00     0.048 A 
ATOM      3  N   UNL d   1     -49.186  13.872  23.239  0.00  0.00    -0.148 NA
ATOM      4  N   UNL d   1     -49.856  14.269  23.215  0.00  0.00    -0.142 NA
ATOM      5  C   UNL d   1     -48.529  14.158  22.906  0.00  0.00     0.105 A 
ENDROOT
BRANCH   5   6
ATOM      6  C   UNL d   1     -47.761  13.891  22.834  0.00  0.00     0.019 A 
ATOM      7  C   UNL d   1     -47.621  13.085  22.689  0.00  0.00     0.002 A 
ATOM      8  C   UNL d   1     -46.854  12.811  22.616  0.00  0.00     0.000 A 
ATOM      9  C   UNL d   1     -46.217  13.331  22.686  0.00  0.00     0.000 A 
ATOM     10  C   UNL d   1     -46.358  14.138  22.831  0.00  0.00     0.000 A 
ATOM     11  C   UNL d   1     -47.133  14.410  22.904  0.00  0.00     0.002 A 
BRANCH   9  12
ATOM     12  C   UNL d   1     -45.423  13.048  22.610  0.00  0.00     0.000 C 
ATOM     13  C   UNL d   1     -45.045  13.044  21.856  0.00  0.00     0.000 C 
ENDBRANCH   9  12
ENDBRANCH   5   6
BRANCH   1  14
ATOM     14  C   UNL d   1     -50.533  15.384  22.814  0.00  0.00     0.231 C 
ATOM     15  O   UNL d   1     -51.037  15.262  22.218  0.00  0.00    -0.643 OA
ATOM     16  O   UNL d   1     -50.697  15.921  23.368  0.00  0.00    -0.643 OA
ENDBRANCH   1  14
TORSDOF 3
ENDMDL
MODEL 4
REMARK VINA RESULT:      -6.7      2.674      3.776
REMARK  3 active torsions:
REMARK  status: ('A' for Active; 'I' for Inactive)
REMARK    1  A    between atoms: C_6  and  C_1 
REMARK    2  A    between atoms: C_7  and  C_5 
REMARK    3  A    between atoms: C_15  and  C_14 
ROOT
ATOM      1  C   UNL d   1     -49.493  14.698  22.894  0.00  0.00     0.169 A 
ATOM      2  C   UNL d   1     -49.639  13.948  23.079  0.00  0.00     0.048 A 
ATOM      3  N   UNL d   1     -48.167  14.445  22.922  0.00  0.00    -0.148 NA
ATOM      4  N   UNL d   1     -48.749  14.951  22.814  0.00  0.00    -0.142 NA
ATOM      5  C   UNL d   1     -48.310  13.690  23.108  0.00  0.00     0.105 A 
ENDROOT
BRANCH   5   6
ATOM      6  C   UNL d   1     -47.841  13.038  23.254  0.00  0.00     0.019 A 
ATOM      7  C   UNL d   1     -47.015  13.124  23.273  0.00  0.00     0.002 A 
ATOM      8  C   UNL d   1     -46.541  12.475  23.419  0.00  0.00     0.000 A 
ATOM      9  C   UNL d   1     -46.878  11.733  23.547  0.00  0.00     0.000 A 
ATOM     10  C   UNL d   1     -47.705  11.646  23.528  0.00  0.00     0.000 A 
ATOM     11  C   UNL d   1     -48.180  12.304  23.381  0.00  0.00     0.002 A 
BRANCH   9  12
ATOM     12  C   UNL d   1     -46.386  11.060  23.698  0.00  0.00     0.000 C 
ATOM     13  C   UNL d   1     -45.599  11.034  23.396  0.00  0.00     0.000 C 
ENDBRANCH   9  12
ENDBRANCH   5   6
BRANCH   1  14
ATOM     14  C   UNL d   1     -50.092  15.190  22.790  0.00  0.00     0.231 C 
ATOM     15  O   UNL d   1     -50.164  15.821  23.260  0.00  0.00    -0.643 OA
ATOM     16  O   UNL d   1     -50.622  15.059  22.221  0.00  0.00    -0.643 OA
ENDBRANCH   1  14
TORSDOF 3
ENDMDL
MODEL 5
REMARK VINA RESULT:      -6.4      2.552      4.177
REMARK  3 active torsions:
REMARK  status: ('A' for Active; 'I' for Inactive)
REMARK    1  A    between atoms: C_6  and  C_1 
REMARK    2  A    between atoms: C_7  and  C_5 
REMARK    3  A    between atoms: C_15  and  C_14 
ROOT
ATOM      1  C   UNL d   1     -49.741  12.433  23.436  0.00  0.00     0.169 A 
ATOM      2  C   UNL d   1     -49.132  11.957  23.294  0.00  0.00     0.048 A 
ATOM      3  N   UNL d   1     -48.949  13.506  23.229  0.00  0.00    -0.148 NA
ATOM      4  N   UNL d   1     -49.651  13.217  23.404  0.00  0.00    -0.142 NA
ATOM      5  C   UNL d   1     -48.334  13.031  23.085  0.00  0.00     0.105 A 
ENDROOT
BRANCH   5   6
ATOM      6  C   UNL d   1     -47.550  13.152  22.893  0.00  0.00     0.019 A 
ATOM      7  C   UNL d   1     -47.015  12.518  22.945  0.00  0.00     0.002 A 
ATOM      8  C   UNL d   1     -46.228  12.633  22.753  0.00  0.00     0.000 A 
ATOM      9  C   UNL d   1     -45.962  13.374  22.508  0.00  0.00     0.000 A 
ATOM     10  C   UNL d   1     -46.498  14.008  22.456  0.00  0.00     0.000 A 
ATOM     11  C   UNL d   1     -47.291  13.889  22.650  0.00  0.00     0.002 A 
BRANCH   9  12
ATOM     12  C   UNL d   1     -45.147  13.493  22.310  0.00  0.00     0.000 C 
ATOM     13  C   UNL d   1     -44.714  12.883  21.919  0.00  0.00     0.000 C 
ENDBRANCH   9  12
ENDBRANCH   5   6
BRANCH   1  14
ATOM     14  C   UNL d   1     -50.437  12.122  23.610  0.00  0.00     0.231 C 
ATOM     15  O   UNL d   1     -51.064  12.594  23.698  0.00  0.00    -0.643 OA
ATOM     16  O   UNL d   1     -50.515  11.342  23.697  0.00  0.00    -0.643 OA
ENDBRANCH   1  14
TORSDOF 3
ENDMDL
MODEL 6
REMARK VINA RESULT:      -6.3      8.157      9.009
REMARK  3 active torsions:
REMARK  status: ('A' for Active; 'I' for Inactive)
REMARK    1  A    between atoms: C_6  and  C_1 
REMARK    2  A    between atoms: C_7  and  C_5 
REMARK    3  A    between atoms: C_15  and  C_14 
ROOT
ATOM      1  C   UNL d   1     -40.806  15.110  17.530  0.00  0.00     0.169 A 
ATOM      2  C   UNL d   1     -40.497  15.574  18.085  0.00  0.00     0.048 A 
ATOM      3  N   UNL d   1     -40.752  14.062  18.379  0.00  0.00    -0.148 NA
ATOM      4  N   UNL d   1     -40.936  14.345  17.677  0.00  0.00    -0.142 NA
ATOM      5  C   UNL d   1     -40.441  14.525  18.939  0.00  0.00     0.105 A 
ENDROOT
BRANCH   5   6
ATOM      6  C   UNL d   1     -40.194  14.406  19.708  0.00  0.00     0.019 A 
ATOM      7  C   UNL d   1     -39.393  14.246  19.859  0.00  0.00     0.002 A 
ATOM      8  C   UNL d   1     -39.139  14.127  20.627  0.00  0.00     0.000 A 
ATOM      9  C   UNL d   1     -39.674  14.164  21.254  0.00  0.00     0.000 A 
ATOM     10  C   UNL d   1     -40.476  14.324  21.102  0.00  0.00     0.000 A 
ATOM     11  C   UNL d   1     -40.729  14.444  20.326  0.00  0.00     0.002 A 
BRANCH   9  12
ATOM     12  C   UNL d   1     -39.411  14.040  22.049  0.00  0.00     0.000 C 
ATOM     13  C   UNL d   1     -38.767  13.519  22.205  0.00  0.00     0.000 C 
ENDBRANCH   9  12
ENDBRANCH   5   6
BRANCH   1  14
ATOM     14  C   UNL d   1     -40.984  15.415  16.832  0.00  0.00     0.231 C 
ATOM     15  O   UNL d   1     -40.444  15.843  16.445  0.00  0.00    -0.643 OA
ATOM     16  O   UNL d   1     -41.697  15.297  16.515  0.00  0.00    -0.643 OA
ENDBRANCH   1  14
TORSDOF 3
ENDMDL
MODEL 7
REMARK VINA RESULT:      -5.5      7.762     10.143
REMARK  3 active torsions:
REMARK  status: ('A' for Active; 'I' for Inactive)
REMARK    1  A    between atoms: C_6  and  C_1 
REMARK    2  A    between atoms: C_7  and  C_5 
REMARK    3  A    between atoms: C_15  and  C_14 
ROOT
ATOM      1  C   UNL d   1     -40.602  14.465  19.718  0.00  0.00     0.169 A 
ATOM      2  C   UNL d   1     -39.834  14.570  19.591  0.00  0.00     0.048 A 
ATOM      3  N   UNL d   1     -40.736  13.957  18.474  0.00  0.00    -0.148 NA
ATOM      4  N   UNL d   1     -41.060  14.154  19.154  0.00  0.00    -0.142 NA
ATOM      5  C   UNL d   1     -39.964  14.061  18.343  0.00  0.00     0.105 A 
ENDROOT
BRANCH   5   6
ATOM      6  C   UNL d   1     -39.465  13.918  17.712  0.00  0.00     0.019 A 
ATOM      7  C   UNL d   1     -39.467  14.437  17.064  0.00  0.00     0.002 A 
ATOM      8  C   UNL d   1     -38.971  14.299  16.430  0.00  0.00     0.000 A 
ATOM      9  C   UNL d   1     -38.467  13.646  16.429  0.00  0.00     0.000 A 
ATOM     10  C   UNL d   1     -38.465  13.126  17.078  0.00  0.00     0.000 A 
ATOM     11  C   UNL d   1     -38.968  13.269  17.717  0.00  0.00     0.002 A 
BRANCH   9  12
ATOM     12  C   UNL d   1     -37.952  13.502  15.772  0.00  0.00     0.000 C 
ATOM     13  C   UNL d   1     -37.941  14.036  15.119  0.00  0.00     0.000 C 
ENDBRANCH   9  12
ENDBRANCH   5   6
BRANCH   1  14
ATOM     14  C   UNL d   1     -40.908  14.670  20.408  0.00  0.00     0.231 C 
ATOM     15  O   UNL d   1     -40.918  15.431  20.619  0.00  0.00    -0.643 OA
ATOM     16  O   UNL d   1     -41.205  14.122  20.892  0.00  0.00    -0.643 OA
ENDBRANCH   1  14
TORSDOF 3
ENDMDL
MODEL 8
REMARK VINA RESULT:      -5.3      8.482      8.930
REMARK  3 active torsions:
REMARK  status: ('A' for Active; 'I' for Inactive)
REMARK    1  A    between atoms: C_6  and  C_1 
REMARK    2  A    between atoms: C_7  and  C_5 
REMARK    3  A    between atoms: C_15  and  C_14 
ROOT
ATOM      1  C   UNL d   1     -39.535  14.295  21.332  0.00  0.00     0.169 A 
ATOM      2  C   UNL d   1     -39.145  14.209  20.655  0.00  0.00     0.048 A 
ATOM      3  N   UNL d   1     -40.582  14.818  20.661  0.00  0.00    -0.148 NA
ATOM      4  N   UNL d   1     -40.262  14.603  21.337  0.00  0.00    -0.142 NA
ATOM      5  C   UNL d   1     -40.194  14.733  19.978  0.00  0.00     0.105 A 
ENDROOT
BRANCH   5   6
ATOM      6  C   UNL d   1     -40.366  14.898  19.197  0.00  0.00     0.019 A 
ATOM      7  C   UNL d   1     -40.391  15.689  18.942  0.00  0.00     0.002 A 
ATOM      8  C   UNL d   1     -40.562  15.860  18.162  0.00  0.00     0.000 A 
ATOM      9  C   UNL d   1     -40.711  15.252  17.624  0.00  0.00     0.000 A 
ATOM     10  C   UNL d   1     -40.686  14.461  17.879  0.00  0.00     0.000 A 
ATOM     11  C   UNL d   1     -40.512  14.291  18.668  0.00  0.00     0.002 A 
BRANCH   9  12
ATOM     12  C   UNL d   1     -40.888  15.429  16.815  0.00  0.00     0.000 C 
ATOM     13  C   UNL d   1     -41.546  15.922  16.625  0.00  0.00     0.000 C 
ENDBRANCH   9  12
ENDBRANCH   5   6
BRANCH   1  14
ATOM     14  C   UNL d   1     -39.194  14.072  22.000  0.00  0.00     0.231 C 
ATOM     15  O   UNL d   1     -38.758  14.590  22.407  0.00  0.00    -0.643 OA
ATOM     16  O   UNL d   1     -39.285  13.335  22.267  0.00  0.00    -0.643 OA
ENDBRANCH   1  14
TORSDOF 3
ENDMDL
