MODEL 1
REMARK VINA RESULT:      -3.6      0.000      0.000
REMARK  2 active torsions:
REMARK  status: ('A' for Active; 'I' for Inactive)
REMARK    1  A    between atoms: C_9  and  C_3 
REMARK    2  A    between atoms: C_8  and  C_4 
ROOT
ATOM      1  N   UNL d   1      57.557  -1.331  30.790  0.00  0.00    -0.242 NA
ATOM      2  N   UNL d   1      57.930   0.274  30.801  0.00  0.00    -0.242 NA
ATOM      3  C   UNL d   1      58.111  -1.032  30.259  0.00  0.00     0.099 A 
ATOM      4  C   UNL d   1      58.297  -0.235  30.264  0.00  0.00     0.099 A 
ATOM      5  C   UNL d   1      57.191  -0.826  31.324  0.00  0.00     0.101 A 
ATOM      6  C   UNL d   1      57.376  -0.028  31.330  0.00  0.00     0.099 A 
ATOM      7  C   UNL d   1      56.638  -1.125  31.853  0.00  0.00     0.042 A 
ATOM      8  C   UNL d   1      57.011   0.481  31.864  0.00  0.00     0.022 A 
ATOM      9  C   UNL d   1      56.271  -0.619  32.389  0.00  0.00     0.104 A 
ATOM     10  N   UNL d   1      55.722  -0.919  32.914  0.00  0.00    -0.148 N 
ATOM     11  C   UNL d   1      56.457   0.179  32.394  0.00  0.00     0.023 A 
ENDROOT
BRANCH   3  12
ATOM     12  C   UNL d   1      58.474  -1.537  29.729  0.00  0.00     0.019 A 
ATOM     13  C   UNL d   1      59.190  -1.910  29.933  0.00  0.00     0.002 A 
ATOM     14  C   UNL d   1      59.563  -2.423  29.399  0.00  0.00     0.000 A 
ATOM     15  C   UNL d   1      59.220  -2.568  28.654  0.00  0.00     0.000 A 
ATOM     16  C   UNL d   1      58.500  -2.190  28.455  0.00  0.00     0.000 A 
ATOM     17  C   UNL d   1      58.134  -1.681  28.990  0.00  0.00     0.002 A 
ENDBRANCH   3  12
BRANCH   4  18
ATOM     18  C   UNL d   1      58.847   0.068  29.739  0.00  0.00     0.019 A 
ATOM     19  C   UNL d   1      59.652   0.095  29.956  0.00  0.00     0.002 A 
ATOM     20  C   UNL d   1      60.215   0.401  29.428  0.00  0.00     0.000 A 
ATOM     21  C   UNL d   1      59.976   0.682  28.679  0.00  0.00     0.000 A 
ATOM     22  C   UNL d   1      59.175   0.656  28.460  0.00  0.00     0.000 A 
ATOM     23  C   UNL d   1      58.608   0.349  28.990  0.00  0.00     0.002 A 
ENDBRANCH   4  18
TORSDOF 2
ENDMDL
MODEL 2
REMARK VINA RESULT:      -3.4      0.340      2.133
REMARK  2 active torsions:
REMARK  status: ('A' for Active; 'I' for Inactive)
REMARK    1  A    between atoms: C_9  and  C_3 
REMARK    2  A    between atoms: C_8  and  C_4 
ROOT
ATOM      1  N   UNL d   1      57.927   0.267  30.796  0.00  0.00    -0.242 NA
ATOM      2  N   UNL d   1      57.571  -1.342  30.791  0.00  0.00    -0.242 NA
ATOM      3  C   UNL d   1      58.304  -0.237  30.265  0.00  0.00     0.099 A 
ATOM      4  C   UNL d   1      58.127  -1.037  30.262  0.00  0.00     0.099 A 
ATOM      5  C   UNL d   1      57.374  -0.035  31.323  0.00  0.00     0.101 A 
ATOM      6  C   UNL d   1      57.197  -0.835  31.320  0.00  0.00     0.099 A 
ATOM      7  C   UNL d   1      56.998   0.469  31.852  0.00  0.00     0.042 A 
ATOM      8  C   UNL d   1      56.643  -1.140  31.847  0.00  0.00     0.022 A 
ATOM      9  C   UNL d   1      56.444   0.167  32.380  0.00  0.00     0.104 A 
ATOM     10  N   UNL d   1      56.072   0.670  32.905  0.00  0.00    -0.148 N 
ATOM     11  C   UNL d   1      56.267  -0.633  32.377  0.00  0.00     0.023 A 
ENDROOT
BRANCH   3  12
ATOM     12  C   UNL d   1      58.854   0.066  29.742  0.00  0.00     0.019 A 
ATOM     13  C   UNL d   1      59.651   0.132  29.971  0.00  0.00     0.002 A 
ATOM     14  C   UNL d   1      60.215   0.439  29.446  0.00  0.00     0.000 A 
ATOM     15  C   UNL d   1      59.982   0.682  28.684  0.00  0.00     0.000 A 
ATOM     16  C   UNL d   1      59.178   0.612  28.460  0.00  0.00     0.000 A 
ATOM     17  C   UNL d   1      58.623   0.307  28.987  0.00  0.00     0.002 A 
ENDBRANCH   3  12
BRANCH   4  18
ATOM     18  C   UNL d   1      58.498  -1.544  29.737  0.00  0.00     0.019 A 
ATOM     19  C   UNL d   1      58.146  -1.699  28.997  0.00  0.00     0.002 A 
ATOM     20  C   UNL d   1      58.517  -2.212  28.460  0.00  0.00     0.000 A 
ATOM     21  C   UNL d   1      59.243  -2.573  28.659  0.00  0.00     0.000 A 
ATOM     22  C   UNL d   1      59.597  -2.419  29.396  0.00  0.00     0.000 A 
ATOM     23  C   UNL d   1      59.224  -1.904  29.937  0.00  0.00     0.002 A 
ENDBRANCH   4  18
TORSDOF 2
ENDMDL
