MODEL 1
REMARK VINA RESULT:       0.8      0.000      0.000
REMARK  9 active torsions:
REMARK  status: ('A' for Active; 'I' for Inactive)
REMARK    1  A    between atoms: C_9  and  C_1 
REMARK    2  A    between atoms: N_8  and  C_2 
REMARK    3  A    between atoms: C_10  and  C_4 
REMARK    4  A    between atoms: C_6  and  N_7 
REMARK    5  A    between atoms: N_7  and  N_8 
REMARK    6  A    between atoms: O_18  and  C_9 
REMARK    7  A    between atoms: O_19  and  C_10 
REMARK    8  A    between atoms: C_23  and  O_18 
REMARK    9  A    between atoms: C_24  and  O_19 
ROOT
ATOM      1  C   UNL d   1      57.554  -0.887  30.887  0.00  0.00     0.090 A 
ATOM      2  C   UNL d   1      57.907  -0.175  30.783  0.00  0.00     0.138 A 
ATOM      3  C   UNL d   1      57.081  -0.831  31.530  0.00  0.00     0.018 A 
ATOM      4  C   UNL d   1      57.106  -0.124  31.850  0.00  0.00     0.095 A 
ATOM      5  S   UNL d   1      57.623   0.329  31.403  0.00  0.00    -0.061 SA
ATOM      6  C   UNL d   1      56.583  -1.470  31.859  0.00  0.00     0.001 C 
ENDROOT
BRANCH   2   7
ATOM      7  N   UNL d   1      58.434  -0.042  30.164  0.00  0.00    -0.141 NA
BRANCH   7   8
ATOM      8  N   UNL d   1      58.863   0.681  30.084  0.00  0.00    -0.141 NA
BRANCH   8   9
ATOM      9  C   UNL d   1      59.644   0.681  29.733  0.00  0.00     0.180 A 
ATOM     10  C   UNL d   1      59.683   0.680  28.884  0.00  0.00     0.218 A 
ATOM     11  O   UNL d   1      58.979   0.679  28.457  0.00  0.00    -0.285 OA
ATOM     12  C   UNL d   1      60.422   0.679  28.517  0.00  0.00     0.044 A 
ATOM     13  C   UNL d   1      61.127   0.679  28.946  0.00  0.00     0.007 A 
ATOM     14  C   UNL d   1      61.106   0.680  29.789  0.00  0.00     0.044 A 
ATOM     15  C   UNL d   1      60.355   0.681  30.185  0.00  0.00     0.218 A 
ATOM     16  O   UNL d   1      60.342   0.682  30.989  0.00  0.00    -0.285 OA
ENDBRANCH   8   9
ENDBRANCH   7   8
ENDBRANCH   2   7
BRANCH   1  17
ATOM     17  C   UNL d   1      57.672  -1.562  30.398  0.00  0.00     0.302 C 
ATOM     18  O   UNL d   1      57.041  -1.886  29.956  0.00  0.00    -0.259 OA
BRANCH  17  19
ATOM     19  O   UNL d   1      58.446  -1.916  30.357  0.00  0.00    -0.271 OA
BRANCH  19  20
ATOM     20  C   UNL d   1      58.539  -2.674  30.045  0.00  0.00     0.126 C 
ATOM     21  C   UNL d   1      59.302  -2.965  29.936  0.00  0.00     0.029 C 
ENDBRANCH  19  20
ENDBRANCH  17  19
ENDBRANCH   1  17
BRANCH   4  22
ATOM     22  C   UNL d   1      56.674   0.118  32.531  0.00  0.00     0.306 C 
ATOM     23  O   UNL d   1      55.915   0.371  32.467  0.00  0.00    -0.258 OA
BRANCH  22  24
ATOM     24  O   UNL d   1      57.073   0.078  33.248  0.00  0.00    -0.271 OA
BRANCH  24  25
ATOM     25  C   UNL d   1      56.724   0.455  33.924  0.00  0.00     0.126 C 
ATOM     26  C   UNL d   1      57.187   0.624  34.560  0.00  0.00     0.029 C 
ENDBRANCH  24  25
ENDBRANCH  22  24
ENDBRANCH   4  22
TORSDOF 9
ENDMDL
