MODEL 1
REMARK VINA RESULT:      65.7      0.000      0.000
REMARK  6 active torsions:
REMARK  status: ('A' for Active; 'I' for Inactive)
REMARK    1  A    between atoms: C_6  and  C_2 
REMARK    2  A    between atoms: C_7  and  C_6 
REMARK    3  A    between atoms: C_8  and  C_15 
REMARK       I    between atoms: N_9  and  C_8 
REMARK    4  A    between atoms: C_16  and  N_9 
REMARK    5  A    between atoms: O_13  and  C_12 
REMARK    6  A    between atoms: C_15  and  O_13 
ROOT
ATOM      1  C   UNL d   1     -51.093  25.903  34.255  0.00  0.00     0.023 A 
ATOM      2  C   UNL d   1     -50.937  26.501  34.800  0.00  0.00     0.100 A 
ATOM      3  C   UNL d   1     -51.391  26.084  33.513  0.00  0.00     0.002 A 
ATOM      4  C   UNL d   1     -51.081  27.289  34.602  0.00  0.00     0.025 A 
ATOM      5  C   UNL d   1     -51.539  26.872  33.306  0.00  0.00     0.000 A 
ATOM      6  C   UNL d   1     -51.381  27.473  33.856  0.00  0.00     0.002 A 
ENDROOT
BRANCH   2   7
ATOM      7  O   UNL d   1     -50.636  26.316  35.549  0.00  0.00    -0.300 OA
BRANCH   7   8
ATOM      8  C   UNL d   1     -51.005  26.630  36.224  0.00  0.00     0.185 C 
BRANCH   8   9
ATOM      9  C   UNL d   1     -50.543  26.982  36.820  0.00  0.00     0.304 C 
ATOM     10  N   UNL d   1     -50.745  26.867  37.614  0.00  0.00    -0.206 NA
ATOM     11  O   UNL d   1     -49.890  27.443  36.617  0.00  0.00    -0.263 OA
BRANCH  10  12
ATOM     12  C   UNL d   1     -51.399  26.407  37.816  0.00  0.00     0.085 A 
ATOM     13  C   UNL d   1     -52.165  26.695  37.669  0.00  0.00     0.019 A 
ATOM     14  C   UNL d   1     -52.823  26.239  37.869  0.00  0.00     0.002 A 
ATOM     15  C   UNL d   1     -52.719  25.492  38.217  0.00  0.00     0.000 A 
ATOM     16  C   UNL d   1     -51.952  25.211  38.361  0.00  0.00     0.002 A 
ATOM     17  C   UNL d   1     -51.298  25.671  38.159  0.00  0.00     0.019 A 
ENDBRANCH  10  12
ENDBRANCH   8   9
ENDBRANCH   7   8
ENDBRANCH   2   7
BRANCH   1  18
ATOM     18  C   UNL d   1     -50.949  25.111  34.452  0.00  0.00     0.013 C 
BRANCH  18  19
ATOM     19  C   UNL d   1     -51.336  24.503  34.053  0.00  0.00     0.092 A 
ATOM     20  C   UNL d   1     -50.985  23.917  33.600  0.00  0.00     0.288 A 
ATOM     21  N   UNL d   1     -51.576  23.428  33.306  0.00  0.00    -0.163 NA
ATOM     22  O   UNL d   1     -50.175  23.833  33.462  0.00  0.00    -0.265 OA
ATOM     23  C   UNL d   1     -52.304  23.714  33.581  0.00  0.00     0.313 A 
ATOM     24  S   UNL d   1     -52.155  24.382  34.045  0.00  0.00    -0.021 SA
ATOM     25  O   UNL d   1     -53.051  23.389  33.420  0.00  0.00    -0.258 OA
ENDBRANCH  18  19
ENDBRANCH   1  18
TORSDOF 6
ENDMDL
MODEL 2
REMARK VINA RESULT:      67.9      2.115      3.677
REMARK  6 active torsions:
REMARK  status: ('A' for Active; 'I' for Inactive)
REMARK    1  A    between atoms: C_6  and  C_2 
REMARK    2  A    between atoms: C_7  and  C_6 
REMARK    3  A    between atoms: C_8  and  C_15 
REMARK       I    between atoms: N_9  and  C_8 
REMARK    4  A    between atoms: C_16  and  N_9 
REMARK    5  A    between atoms: O_13  and  C_12 
REMARK    6  A    between atoms: C_15  and  O_13 
ROOT
ATOM      1  C   UNL d   1     -51.144  25.365  33.358  0.00  0.00     0.023 A 
ATOM      2  C   UNL d   1     -51.331  24.562  33.378  0.00  0.00     0.100 A 
ATOM      3  C   UNL d   1     -50.362  25.610  33.377  0.00  0.00     0.002 A 
ATOM      4  C   UNL d   1     -50.730  23.999  33.418  0.00  0.00     0.025 A 
ATOM      5  C   UNL d   1     -49.752  25.051  33.418  0.00  0.00     0.000 A 
ATOM      6  C   UNL d   1     -49.943  24.244  33.438  0.00  0.00     0.002 A 
ENDROOT
BRANCH   2   7
ATOM      7  O   UNL d   1     -52.122  24.317  33.358  0.00  0.00    -0.300 OA
BRANCH   7   8
ATOM      8  C   UNL d   1     -52.488  24.068  34.061  0.00  0.00     0.185 C 
BRANCH   8   9
ATOM      9  C   UNL d   1     -53.140  23.553  34.026  0.00  0.00     0.304 C 
ATOM     10  N   UNL d   1     -53.579  23.404  34.712  0.00  0.00    -0.206 NA
ATOM     11  O   UNL d   1     -53.346  23.196  33.312  0.00  0.00    -0.263 OA
BRANCH  10  12
ATOM     12  C   UNL d   1     -53.373  23.761  35.426  0.00  0.00     0.085 A 
ATOM     13  C   UNL d   1     -53.135  24.559  35.432  0.00  0.00     0.019 A 
ATOM     14  C   UNL d   1     -52.928  24.922  36.144  0.00  0.00     0.002 A 
ATOM     15  C   UNL d   1     -52.956  24.490  36.853  0.00  0.00     0.000 A 
ATOM     16  C   UNL d   1     -53.193  23.696  36.839  0.00  0.00     0.002 A 
ATOM     17  C   UNL d   1     -53.400  23.338  36.125  0.00  0.00     0.019 A 
ENDBRANCH  10  12
ENDBRANCH   8   9
ENDBRANCH   7   8
ENDBRANCH   2   7
BRANCH   1  18
ATOM     18  C   UNL d   1     -51.746  25.933  33.318  0.00  0.00     0.013 C 
BRANCH  18  19
ATOM     19  C   UNL d   1     -51.578  26.731  33.434  0.00  0.00     0.092 A 
ATOM     20  C   UNL d   1     -52.101  27.306  33.691  0.00  0.00     0.288 A 
ATOM     21  N   UNL d   1     -51.701  28.023  33.729  0.00  0.00    -0.163 NA
ATOM     22  O   UNL d   1     -52.896  27.187  33.881  0.00  0.00    -0.265 OA
ATOM     23  C   UNL d   1     -50.918  27.890  33.492  0.00  0.00     0.313 A 
ATOM     24  S   UNL d   1     -50.841  27.087  33.309  0.00  0.00    -0.021 SA
ATOM     25  O   UNL d   1     -50.316  28.461  33.446  0.00  0.00    -0.258 OA
ENDBRANCH  18  19
ENDBRANCH   1  18
TORSDOF 6
ENDMDL
