MODEL 1
REMARK VINA RESULT:      38.4      0.000      0.000
REMARK  2 active torsions:
REMARK  status: ('A' for Active; 'I' for Inactive)
REMARK    1  A    between atoms: C_6  and  C_1 
REMARK    2  A    between atoms: C_7  and  C_4 
ROOT
ATOM      1  C   UNL d   1     -55.055-101.910 -40.981  0.00  0.00     0.169 A 
ATOM      2  C   UNL d   1     -55.060-101.113 -41.194  0.00  0.00     0.048 A 
ATOM      3  N   UNL d   1     -54.920-102.284 -42.344  0.00  0.00    -0.148 NA
ATOM      4  C   UNL d   1     -54.924-101.488 -42.563  0.00  0.00     0.105 A 
ATOM      5  N   UNL d   1     -54.985-102.502 -41.549  0.00  0.00    -0.142 NA
ENDROOT
BRANCH   4   6
ATOM      6  C   UNL d   1     -54.872-101.074 -43.275  0.00  0.00     0.019 A 
ATOM      7  C   UNL d   1     -54.774-100.256 -43.264  0.00  0.00     0.002 A 
ATOM      8  C   UNL d   1     -54.722 -99.841 -43.968  0.00  0.00     0.000 A 
ATOM      9  C   UNL d   1     -54.729 -99.856 -42.541  0.00  0.00     0.000 C 
ATOM     10  C   UNL d   1     -54.767-100.241 -44.692  0.00  0.00     0.000 A 
ATOM     11  C   UNL d   1     -54.866-101.062 -44.701  0.00  0.00     0.000 A 
ATOM     12  C   UNL d   1     -54.715 -99.822 -45.400  0.00  0.00     0.000 C 
ATOM     13  C   UNL d   1     -54.918-101.478 -43.997  0.00  0.00     0.002 A 
ENDBRANCH   4   6
BRANCH   1  14
ATOM     14  C   UNL d   1     -55.121-102.119 -40.183  0.00  0.00     0.231 C 
ATOM     15  O   UNL d   1     -55.489-102.826 -39.973  0.00  0.00    -0.643 OA
ATOM     16  O   UNL d   1     -54.821-101.621 -39.600  0.00  0.00    -0.643 OA
ENDBRANCH   1  14
TORSDOF 2
ENDMDL
MODEL 2
REMARK VINA RESULT:      39.7      2.325      3.780
REMARK  2 active torsions:
REMARK  status: ('A' for Active; 'I' for Inactive)
REMARK    1  A    between atoms: C_6  and  C_1 
REMARK    2  A    between atoms: C_7  and  C_4 
ROOT
ATOM      1  C   UNL d   1     -55.173-100.140 -44.149  0.00  0.00     0.169 A 
ATOM      2  C   UNL d   1     -55.308 -99.938 -43.360  0.00  0.00     0.048 A 
ATOM      3  N   UNL d   1     -54.807-101.455 -43.759  0.00  0.00    -0.148 NA
ATOM      4  C   UNL d   1     -54.940-101.258 -42.969  0.00  0.00     0.105 A 
ATOM      5  N   UNL d   1     -54.923-100.896 -44.357  0.00  0.00    -0.142 NA
ENDROOT
BRANCH   4   6
ATOM      6  C   UNL d   1     -54.885-101.655 -42.246  0.00  0.00     0.019 A 
ATOM      7  C   UNL d   1     -54.781-101.224 -41.553  0.00  0.00     0.002 A 
ATOM      8  C   UNL d   1     -54.726-101.613 -40.834  0.00  0.00     0.000 A 
ATOM      9  C   UNL d   1     -54.731-100.399 -41.583  0.00  0.00     0.000 C 
ATOM     10  C   UNL d   1     -54.775-102.439 -40.802  0.00  0.00     0.000 A 
ATOM     11  C   UNL d   1     -54.880-102.871 -41.501  0.00  0.00     0.000 A 
ATOM     12  C   UNL d   1     -54.720-102.831 -40.079  0.00  0.00     0.000 C 
ATOM     13  C   UNL d   1     -54.935-102.482 -42.220  0.00  0.00     0.002 A 
ENDBRANCH   4   6
BRANCH   1  14
ATOM     14  C   UNL d   1     -55.292 -99.574 -44.740  0.00  0.00     0.231 C 
ATOM     15  O   UNL d   1     -54.811 -99.574 -45.410  0.00  0.00    -0.643 OA
ATOM     16  O   UNL d   1     -55.889 -99.012 -44.660  0.00  0.00    -0.643 OA
ENDBRANCH   1  14
TORSDOF 2
ENDMDL
