MODEL 1
REMARK VINA RESULT:      -4.8      0.000      0.000
REMARK  5 active torsions:
REMARK  status: ('A' for Active; 'I' for Inactive)
REMARK    1  A    between atoms: C_11  and  C_2 
REMARK    2  A    between atoms: N_3  and  C_5 
REMARK       I    between atoms: C_6  and  N_3 
REMARK    3  A    between atoms: C_5  and  N_12 
REMARK    4  A    between atoms: C_7  and  C_6 
REMARK    5  A    between atoms: N_12  and  C_20 
ROOT
ATOM      1  C   UNL d   1     -41.794-123.062 -50.063  0.00  0.00     0.041 A 
ATOM      2  C   UNL d   1     -41.330-123.606 -50.486  0.00  0.00     0.005 A 
ATOM      3  C   UNL d   1     -42.043-122.366 -50.410  0.00  0.00     0.005 A 
ATOM      4  C   UNL d   1     -41.371-122.730 -51.630  0.00  0.00     0.084 A 
ATOM      5  C   UNL d   1     -41.123-123.432 -51.271  0.00  0.00     0.019 A 
ATOM      6  C   UNL d   1     -41.836-122.204 -51.176  0.00  0.00     0.019 A 
ENDROOT
BRANCH   4   7
ATOM      7  N   UNL d   1     -41.164-122.558 -52.411  0.00  0.00    -0.217 NA
BRANCH   7   8
ATOM      8  C   UNL d   1     -41.507-122.974 -53.029  0.00  0.00     0.224 C 
ATOM      9  S   UNL d   1     -41.501-123.788 -53.015  0.00  0.00    -0.037 SA
BRANCH   8  10
ATOM     10  N   UNL d   1     -41.847-122.568 -53.641  0.00  0.00    -0.178 NA
ATOM     11  C   UNL d   1     -41.689-122.799 -54.425  0.00  0.00     0.287 C 
ATOM     12  O   UNL d   1     -41.190-123.436 -54.572  0.00  0.00    -0.265 OA
BRANCH  11  13
ATOM     13  C   UNL d   1     -42.014-122.413 -55.064  0.00  0.00     0.087 A 
ATOM     14  S   UNL d   1     -41.673-121.742 -55.426  0.00  0.00    -0.082 SA
ATOM     15  C   UNL d   1     -42.164-121.528 -56.036  0.00  0.00     0.036 A 
ATOM     16  C   UNL d   1     -42.820-122.065 -56.064  0.00  0.00     0.008 A 
ATOM     17  C   UNL d   1     -42.728-122.599 -55.476  0.00  0.00     0.012 A 
ENDBRANCH  11  13
ENDBRANCH   8  10
ENDBRANCH   7   8
ENDBRANCH   4   7
BRANCH   1  18
ATOM     18  C   UNL d   1     -42.003-123.236 -49.274  0.00  0.00     0.182 A 
ATOM     19  N   UNL d   1     -41.517-123.390 -48.630  0.00  0.00    -0.220 NA
ATOM     20  C   UNL d   1     -42.016-123.529 -47.977  0.00  0.00     0.106 A 
ATOM     21  C   UNL d   1     -42.794-123.455 -48.241  0.00  0.00     0.119 A 
ATOM     22  C   UNL d   1     -41.861-123.706 -47.205  0.00  0.00     0.021 A 
ATOM     23  C   UNL d   1     -43.418-123.558 -47.730  0.00  0.00     0.026 A 
ATOM     24  O   UNL d   1     -42.768-123.272 -49.054  0.00  0.00    -0.288 OA
ATOM     25  C   UNL d   1     -43.267-123.739 -46.940  0.00  0.00     0.002 A 
ATOM     26  C   UNL d   1     -42.490-123.814 -46.676  0.00  0.00     0.002 A 
ENDBRANCH   1  18
TORSDOF 5
ENDMDL
MODEL 2
REMARK VINA RESULT:      -2.3      1.460      6.181
REMARK  5 active torsions:
REMARK  status: ('A' for Active; 'I' for Inactive)
REMARK    1  A    between atoms: C_11  and  C_2 
REMARK    2  A    between atoms: N_3  and  C_5 
REMARK       I    between atoms: C_6  and  N_3 
REMARK    3  A    between atoms: C_5  and  N_12 
REMARK    4  A    between atoms: C_7  and  C_6 
REMARK    5  A    between atoms: N_12  and  C_20 
ROOT
ATOM      1  C   UNL d   1     -41.529-122.563 -52.876  0.00  0.00     0.041 A 
ATOM      2  C   UNL d   1     -41.393-123.357 -52.674  0.00  0.00     0.005 A 
ATOM      3  C   UNL d   1     -41.531-121.980 -52.303  0.00  0.00     0.005 A 
ATOM      4  C   UNL d   1     -41.258-122.969 -51.292  0.00  0.00     0.084 A 
ATOM      5  C   UNL d   1     -41.258-123.552 -51.878  0.00  0.00     0.019 A 
ATOM      6  C   UNL d   1     -41.398-122.179 -51.529  0.00  0.00     0.019 A 
ENDROOT
BRANCH   4   7
ATOM      7  N   UNL d   1     -41.123-123.164 -50.501  0.00  0.00    -0.217 NA
BRANCH   7   8
ATOM      8  C   UNL d   1     -41.715-123.519 -50.059  0.00  0.00     0.224 C 
ATOM      9  S   UNL d   1     -42.403-123.754 -50.426  0.00  0.00    -0.037 SA
BRANCH   8  10
ATOM     10  N   UNL d   1     -41.606-123.630 -49.265  0.00  0.00    -0.178 NA
ATOM     11  C   UNL d   1     -42.141-123.289 -48.724  0.00  0.00     0.287 C 
ATOM     12  O   UNL d   1     -42.774-122.843 -49.001  0.00  0.00    -0.265 OA
BRANCH  11  13
ATOM     13  C   UNL d   1     -42.060-123.381 -47.919  0.00  0.00     0.087 A 
ATOM     14  S   UNL d   1     -42.620-123.767 -47.436  0.00  0.00    -0.082 SA
ATOM     15  C   UNL d   1     -42.335-123.740 -46.676  0.00  0.00     0.036 A 
ATOM     16  C   UNL d   1     -41.590-123.335 -46.675  0.00  0.00     0.008 A 
ATOM     17  C   UNL d   1     -41.425-123.118 -47.427  0.00  0.00     0.012 A 
ENDBRANCH  11  13
ENDBRANCH   8  10
ENDBRANCH   7   8
ENDBRANCH   4   7
BRANCH   1  18
ATOM     18  C   UNL d   1     -41.665-122.366 -53.674  0.00  0.00     0.182 A 
ATOM     19  N   UNL d   1     -41.123-122.192 -54.266  0.00  0.00    -0.220 NA
ATOM     20  C   UNL d   1     -41.560-122.036 -54.959  0.00  0.00     0.106 A 
ATOM     21  C   UNL d   1     -42.359-122.119 -54.770  0.00  0.00     0.119 A 
ATOM     22  C   UNL d   1     -41.335-121.836 -55.707  0.00  0.00     0.021 A 
ATOM     23  C   UNL d   1     -42.933-122.001 -55.332  0.00  0.00     0.026 A 
ATOM     24  O   UNL d   1     -42.407-122.325 -53.963  0.00  0.00    -0.288 OA
ATOM     25  C   UNL d   1     -42.711-121.797 -56.100  0.00  0.00     0.002 A 
ATOM     26  C   UNL d   1     -41.913-121.714 -56.289  0.00  0.00     0.002 A 
ENDBRANCH   1  18
TORSDOF 5
ENDMDL
