MODEL 1
REMARK VINA RESULT:      45.8      0.000      0.000
REMARK  7 active torsions:
REMARK  status: ('A' for Active; 'I' for Inactive)
REMARK       I    between atoms: C_3  and  N_1 
REMARK    1  A    between atoms: C_4  and  N_2 
REMARK    2  A    between atoms: C_15  and  C_3 
REMARK    3  A    between atoms: C_12  and  C_4 
REMARK    4  A    between atoms: C_13  and  C_4 
REMARK    5  A    between atoms: C_5  and  C_17 
REMARK    6  A    between atoms: C_16  and  C_15 
REMARK    7  A    between atoms: C_17  and  C_16 
ROOT
ATOM      1  N   UNL d   1      45.896 -18.044  40.863  0.00  0.00    -0.269 N 
ATOM      2  N   UNL d   1      45.970 -18.120  42.526  0.00  0.00    -0.301 N 
ATOM      3  C   UNL d   1      45.852 -18.005  40.040  0.00  0.00     0.265 C 
ATOM      4  C   UNL d   1      45.216 -17.890  41.319  0.00  0.00     0.102 A 
ATOM      5  C   UNL d   1      46.612 -18.236  41.247  0.00  0.00     0.102 A 
ATOM      6  C   UNL d   1      46.645 -18.273  42.076  0.00  0.00     0.100 A 
ATOM      7  C   UNL d   1      45.250 -17.927  42.160  0.00  0.00     0.100 A 
ATOM      8  O   UNL d   1      46.527 -18.159  39.601  0.00  0.00    -0.267 OA
ENDROOT
BRANCH   2   9
ATOM      9  C   UNL d   1      46.004 -18.156  43.350  0.00  0.00     0.064 C 
BRANCH   9  10
ATOM     10  C   UNL d   1      46.103 -18.890  43.736  0.00  0.00     0.016 A 
ATOM     11  C   UNL d   1      45.885 -19.585  43.350  0.00  0.00     0.001 A 
ATOM     12  C   UNL d   1      45.987 -20.299  43.740  0.00  0.00     0.000 A 
ATOM     13  C   UNL d   1      46.301 -20.329  44.502  0.00  0.00     0.000 A 
ATOM     14  C   UNL d   1      46.516 -19.628  44.878  0.00  0.00     0.000 A 
ATOM     15  C   UNL d   1      46.419 -18.898  44.497  0.00  0.00     0.001 A 
ENDBRANCH   9  10
BRANCH   9  16
ATOM     16  C   UNL d   1      45.939 -17.466  43.794  0.00  0.00     0.016 A 
ATOM     17  C   UNL d   1      45.467 -16.852  43.530  0.00  0.00     0.001 A 
ATOM     18  C   UNL d   1      45.397 -16.157  43.970  0.00  0.00     0.000 A 
ATOM     19  C   UNL d   1      45.811 -16.085  44.686  0.00  0.00     0.000 A 
ATOM     20  C   UNL d   1      46.290 -16.710  44.953  0.00  0.00     0.000 A 
ATOM     21  C   UNL d   1      46.350 -17.395  44.505  0.00  0.00     0.001 A 
ENDBRANCH   9  16
ENDBRANCH   2   9
BRANCH   3  22
ATOM     22  C   UNL d   1      45.149 -17.817  39.672  0.00  0.00     0.061 C 
BRANCH  22  23
ATOM     23  C   UNL d   1      45.122 -17.192  39.144  0.00  0.00     0.011 C 
BRANCH  23  24
ATOM     24  C   UNL d   1      45.013 -17.334  38.344  0.00  0.00     0.070 C 
BRANCH  24  25
ATOM     25  C   UNL d   1      44.617 -16.788  37.880  0.00  0.00     0.211 C 
ATOM     26  O   UNL d   1      44.239 -17.026  37.202  0.00  0.00    -0.644 OA
ATOM     27  O   UNL d   1      44.604 -15.992  38.107  0.00  0.00    -0.644 OA
ENDBRANCH  24  25
ENDBRANCH  23  24
ENDBRANCH  22  23
ENDBRANCH   3  22
TORSDOF 7
ENDMDL
MODEL 2
REMARK VINA RESULT:      46.6      0.383      2.149
REMARK  7 active torsions:
REMARK  status: ('A' for Active; 'I' for Inactive)
REMARK       I    between atoms: C_3  and  N_1 
REMARK    1  A    between atoms: C_4  and  N_2 
REMARK    2  A    between atoms: C_15  and  C_3 
REMARK    3  A    between atoms: C_12  and  C_4 
REMARK    4  A    between atoms: C_13  and  C_4 
REMARK    5  A    between atoms: C_5  and  C_17 
REMARK    6  A    between atoms: C_16  and  C_15 
REMARK    7  A    between atoms: C_17  and  C_16 
ROOT
ATOM      1  N   UNL d   1      45.948 -17.830  40.759  0.00  0.00    -0.269 N 
ATOM      2  N   UNL d   1      45.969 -18.001  42.417  0.00  0.00    -0.301 N 
ATOM      3  C   UNL d   1      45.930 -17.743  39.939  0.00  0.00     0.265 C 
ATOM      4  C   UNL d   1      45.269 -17.646  41.207  0.00  0.00     0.102 A 
ATOM      5  C   UNL d   1      46.635 -18.099  41.148  0.00  0.00     0.102 A 
ATOM      6  C   UNL d   1      46.642 -18.184  41.975  0.00  0.00     0.100 A 
ATOM      7  C   UNL d   1      45.277 -17.731  42.046  0.00  0.00     0.100 A 
ATOM      8  O   UNL d   1      46.602 -17.926  39.508  0.00  0.00    -0.267 OA
ENDROOT
BRANCH   2   9
ATOM      9  C   UNL d   1      45.976 -18.084  43.238  0.00  0.00     0.064 C 
BRANCH   9  10
ATOM     10  C   UNL d   1      45.874 -17.419  43.731  0.00  0.00     0.016 A 
ATOM     11  C   UNL d   1      46.536 -17.033  44.035  0.00  0.00     0.001 A 
ATOM     12  C   UNL d   1      46.424 -16.380  44.519  0.00  0.00     0.000 A 
ATOM     13  C   UNL d   1      45.666 -16.109  44.700  0.00  0.00     0.000 A 
ATOM     14  C   UNL d   1      45.012 -16.502  44.390  0.00  0.00     0.000 A 
ATOM     15  C   UNL d   1      45.109 -17.163  43.900  0.00  0.00     0.001 A 
ENDBRANCH   9  10
BRANCH   9  16
ATOM     16  C   UNL d   1      46.085 -18.828  43.573  0.00  0.00     0.016 A 
ATOM     17  C   UNL d   1      46.371 -18.896  44.337  0.00  0.00     0.001 A 
ATOM     18  C   UNL d   1      46.482 -19.638  44.680  0.00  0.00     0.000 A 
ATOM     19  C   UNL d   1      46.302 -20.321  44.241  0.00  0.00     0.000 A 
ATOM     20  C   UNL d   1      46.012 -20.250  43.465  0.00  0.00     0.000 A 
ATOM     21  C   UNL d   1      45.906 -19.506  43.137  0.00  0.00     0.001 A 
ENDBRANCH   9  16
ENDBRANCH   2   9
BRANCH   3  22
ATOM     22  C   UNL d   1      45.254 -17.478  39.566  0.00  0.00     0.061 C 
BRANCH  22  23
ATOM     23  C   UNL d   1      45.316 -17.047  38.872  0.00  0.00     0.011 C 
BRANCH  23  24
ATOM     24  C   UNL d   1      44.667 -16.640  38.584  0.00  0.00     0.070 C 
BRANCH  24  25
ATOM     25  C   UNL d   1      44.533 -16.601  37.776  0.00  0.00     0.211 C 
ATOM     26  O   UNL d   1      44.703 -17.238  37.302  0.00  0.00    -0.644 OA
ATOM     27  O   UNL d   1      44.224 -15.907  37.446  0.00  0.00    -0.644 OA
ENDBRANCH  24  25
ENDBRANCH  23  24
ENDBRANCH  22  23
ENDBRANCH   3  22
TORSDOF 7
ENDMDL
