MODEL 1
REMARK VINA RESULT:      96.6      0.000      0.000
REMARK  5 active torsions:
REMARK  status: ('A' for Active; 'I' for Inactive)
REMARK       I    between atoms: C_8  and  N_1 
REMARK    1  A    between atoms: C_10  and  C_3 
REMARK    2  A    between atoms: C_4  and  S_14 
REMARK    3  A    between atoms: C_15  and  C_6 
REMARK    4  A    between atoms: C_16  and  C_8 
REMARK    5  A    between atoms: S_14  and  C_16 
ROOT
ATOM      1  N   UNL d   1      60.718  48.074  50.336  0.00  0.00    -0.195 N 
ATOM      2  N   UNL d   1      60.718  47.431  49.852  0.00  0.00    -0.162 NA
ATOM      3  C   UNL d   1      61.098  46.806  50.245  0.00  0.00     0.109 A 
ATOM      4  C   UNL d   1      61.101  47.863  51.044  0.00  0.00     0.088 A 
ATOM      5  C   UNL d   1      61.323  47.088  50.967  0.00  0.00     0.041 A 
ATOM      6  C   UNL d   1      60.434  48.827  50.255  0.00  0.00     0.275 C 
ATOM      7  O   UNL d   1      60.518  49.387  50.867  0.00  0.00    -0.266 OA
ENDROOT
BRANCH   4   8
ATOM      8  C   UNL d   1      61.241  48.317  51.702  0.00  0.00     0.018 A 
ATOM      9  C   UNL d   1      61.640  49.033  51.633  0.00  0.00     0.004 A 
ATOM     10  C   UNL d   1      61.780  49.494  52.314  0.00  0.00     0.030 A 
ATOM     11  C   UNL d   1      61.522  49.237  53.048  0.00  0.00     0.140 A 
ATOM     12  C   UNL d   1      61.122  48.519  53.114  0.00  0.00     0.030 A 
ATOM     13  F   UNL d   1      61.653  49.685  53.737  0.00  0.00    -0.204 F 
ATOM     14  C   UNL d   1      60.978  48.054  52.441  0.00  0.00     0.004 A 
ENDBRANCH   4   8
BRANCH   6  15
ATOM     15  C   UNL d   1      60.048  49.054  49.550  0.00  0.00     0.128 C 
BRANCH  15  16
ATOM     16  S   UNL d   1      59.534  49.707  49.544  0.00  0.00    -0.069 SA
BRANCH  16  17
ATOM     17  C   UNL d   1      58.710  49.596  49.584  0.00  0.00     0.140 A 
ATOM     18  N   UNL d   1      58.241  49.364  48.953  0.00  0.00    -0.232 NA
ATOM     19  C   UNL d   1      57.464  49.320  49.225  0.00  0.00     0.088 A 
ATOM     20  C   UNL d   1      56.758  49.117  48.839  0.00  0.00     0.020 A 
ATOM     21  C   UNL d   1      57.454  49.524  50.017  0.00  0.00     0.049 A 
ATOM     22  C   UNL d   1      56.044  49.119  49.255  0.00  0.00     0.002 A 
ATOM     23  C   UNL d   1      56.044  49.329  50.063  0.00  0.00     0.001 A 
ATOM     24  C   UNL d   1      56.750  49.529  50.434  0.00  0.00     0.008 A 
ATOM     25  S   UNL d   1      58.232  49.698  50.247  0.00  0.00    -0.060 SA
ENDBRANCH  16  17
ENDBRANCH  15  16
ENDBRANCH   6  15
BRANCH   3  26
ATOM     26  C   UNL d   1      61.209  46.051  49.930  0.00  0.00     0.049 A 
ATOM     27  S   UNL d   1      60.976  45.298  50.134  0.00  0.00    -0.085 SA
ATOM     28  C   UNL d   1      61.284  44.782  49.571  0.00  0.00     0.035 A 
ATOM     29  C   UNL d   1      61.703  45.204  49.024  0.00  0.00     0.007 A 
ATOM     30  C   UNL d   1      61.663  46.006  49.239  0.00  0.00     0.009 A 
ENDBRANCH   3  26
TORSDOF 5
ENDMDL
MODEL 2
REMARK VINA RESULT:      99.4      1.088      4.188
REMARK  5 active torsions:
REMARK  status: ('A' for Active; 'I' for Inactive)
REMARK       I    between atoms: C_8  and  N_1 
REMARK    1  A    between atoms: C_10  and  C_3 
REMARK    2  A    between atoms: C_4  and  S_14 
REMARK    3  A    between atoms: C_15  and  C_6 
REMARK    4  A    between atoms: C_16  and  C_8 
REMARK    5  A    between atoms: S_14  and  C_16 
ROOT
ATOM      1  N   UNL d   1      59.858  49.079  50.379  0.00  0.00    -0.195 N 
ATOM      2  N   UNL d   1      59.216  49.091  49.894  0.00  0.00    -0.162 NA
ATOM      3  C   UNL d   1      58.563  49.364  50.328  0.00  0.00     0.109 A 
ATOM      4  C   UNL d   1      59.617  49.346  51.130  0.00  0.00     0.088 A 
ATOM      5  C   UNL d   1      58.827  49.513  51.076  0.00  0.00     0.041 A 
ATOM      6  C   UNL d   1      60.632  48.870  50.268  0.00  0.00     0.275 C 
ATOM      7  O   UNL d   1      61.184  48.917  50.890  0.00  0.00    -0.266 OA
ENDROOT
BRANCH   4   8
ATOM      8  C   UNL d   1      60.060  49.433  51.805  0.00  0.00     0.018 A 
ATOM      9  C   UNL d   1      59.702  49.384  52.544  0.00  0.00     0.004 A 
ATOM     10  C   UNL d   1      60.163  49.475  53.233  0.00  0.00     0.030 A 
ATOM     11  C   UNL d   1      60.970  49.611  53.175  0.00  0.00     0.140 A 
ATOM     12  C   UNL d   1      61.326  49.659  52.433  0.00  0.00     0.030 A 
ATOM     13  F   UNL d   1      61.444  49.704  53.852  0.00  0.00    -0.204 F 
ATOM     14  C   UNL d   1      60.874  49.570  51.742  0.00  0.00     0.004 A 
ENDBRANCH   4   8
BRANCH   6  15
ATOM     15  C   UNL d   1      60.888  48.601  49.520  0.00  0.00     0.128 C 
BRANCH  15  16
ATOM     16  S   UNL d   1      61.587  48.157  49.450  0.00  0.00    -0.069 SA
BRANCH  16  17
ATOM     17  C   UNL d   1      61.573  47.331  49.551  0.00  0.00     0.140 A 
ATOM     18  N   UNL d   1      61.112  46.936  50.102  0.00  0.00    -0.232 NA
ATOM     19  C   UNL d   1      61.263  46.130  50.019  0.00  0.00     0.088 A 
ATOM     20  C   UNL d   1      60.960  45.471  50.423  0.00  0.00     0.020 A 
ATOM     21  C   UNL d   1      61.812  46.029  49.422  0.00  0.00     0.049 A 
ATOM     22  C   UNL d   1      61.213  44.711  50.222  0.00  0.00     0.002 A 
ATOM     23  C   UNL d   1      61.774  44.617  49.610  0.00  0.00     0.001 A 
ATOM     24  C   UNL d   1      62.067  45.278  49.217  0.00  0.00     0.008 A 
ATOM     25  S   UNL d   1      62.010  46.777  49.124  0.00  0.00    -0.060 SA
ENDBRANCH  16  17
ENDBRANCH  15  16
ENDBRANCH   6  15
BRANCH   3  26
ATOM     26  C   UNL d   1      57.800  49.454  50.024  0.00  0.00     0.049 A 
ATOM     27  S   UNL d   1      57.047  49.412  50.329  0.00  0.00    -0.085 SA
ATOM     28  C   UNL d   1      56.521  49.563  49.712  0.00  0.00     0.035 A 
ATOM     29  C   UNL d   1      56.940  49.698  49.034  0.00  0.00     0.007 A 
ATOM     30  C   UNL d   1      57.747  49.632  49.217  0.00  0.00     0.009 A 
ENDBRANCH   3  26
TORSDOF 5
ENDMDL
