MODEL 1
REMARK VINA RESULT:      -2.9      0.000      0.000
REMARK  4 active torsions:
REMARK  status: ('A' for Active; 'I' for Inactive)
REMARK    1  A    between atoms: C_6  and  C_1 
REMARK    2  A    between atoms: N_4  and  C_2 
REMARK       I    between atoms: C_3  and  N_4 
REMARK       I    between atoms: N_9  and  C_3 
REMARK    3  A    between atoms: C_15  and  N_9 
REMARK    4  A    between atoms: C_23  and  C_15 
ROOT
ATOM      1  C   UNL d   1      32.540  16.678 -24.258  0.00  0.00     0.040 A 
ATOM      2  C   UNL d   1      31.384  16.780 -24.637  0.00  0.00     0.109 A 
ATOM      3  C   UNL d   1      32.190  17.241 -24.188  0.00  0.00     0.035 A 
ATOM      4  C   UNL d   1      33.241  16.443 -24.088  0.00  0.00    -0.023 A 
ATOM      5  C   UNL d   1      32.109  15.819 -24.710  0.00  0.00     0.013 A 
ATOM      6  C   UNL d   1      32.557  16.095 -24.454  0.00  0.00    -0.011 A 
ATOM      7  C   UNL d   1      31.490  15.472 -25.052  0.00  0.00     0.025 A 
ATOM      8  C   UNL d   1      32.135  16.756 -24.376  0.00  0.00    -0.005 A 
ATOM      9  C   UNL d   1      31.061  16.138 -24.975  0.00  0.00     0.031 A 
ATOM     10  C   UNL d   1      32.234  15.453 -24.792  0.00  0.00    -0.027 A 
ENDROOT
BRANCH   2  11
ATOM     11  N   UNL d   1      30.603  16.909 -24.872  0.00  0.00    -0.217 NA
ATOM     12  C   UNL d   1      30.013  17.013 -24.308  0.00  0.00     0.360 C 
ATOM     13  N   UNL d   1      29.232  17.142 -24.535  0.00  0.00    -0.214 NA
ATOM     14  O   UNL d   1      30.206  16.987 -23.500  0.00  0.00    -0.243 OA
BRANCH  13  15
ATOM     15  C   UNL d   1      28.635  17.246 -23.966  0.00  0.00     0.147 C 
ATOM     16  C   UNL d   1      28.699  18.038 -24.207  0.00  0.00     0.033 C 
ATOM     17  C   UNL d   1      28.578  16.455 -23.731  0.00  0.00     0.033 C 
BRANCH  15  18
ATOM     18  C   UNL d   1      28.041  17.358 -23.401  0.00  0.00     0.229 C 
ATOM     19  O   UNL d   1      27.624  18.073 -23.381  0.00  0.00    -0.286 OA
ENDBRANCH  15  18
ENDBRANCH  13  15
ENDBRANCH   2  11
BRANCH   1  20
ATOM     20  C   UNL d   1      32.654  17.428 -23.957  0.00  0.00    -0.019 A 
ATOM     21  C   UNL d   1      32.660  17.555 -23.135  0.00  0.00    -0.004 A 
ATOM     22  C   UNL d   1      32.775  18.311 -22.829  0.00  0.00    -0.000 A 
ATOM     23  C   UNL d   1      32.885  18.955 -23.346  0.00  0.00    -0.000 A 
ATOM     24  C   UNL d   1      32.877  18.824 -24.161  0.00  0.00    -0.000 A 
ATOM     25  C   UNL d   1      33.000  19.714 -23.043  0.00  0.00    -0.000 C 
ATOM     26  C   UNL d   1      32.763  18.066 -24.467  0.00  0.00    -0.004 A 
ENDBRANCH   1  20
TORSDOF 4
ENDMDL
MODEL 2
REMARK VINA RESULT:      -2.6      1.355      3.460
REMARK  4 active torsions:
REMARK  status: ('A' for Active; 'I' for Inactive)
REMARK    1  A    between atoms: C_6  and  C_1 
REMARK    2  A    between atoms: N_4  and  C_2 
REMARK       I    between atoms: C_3  and  N_4 
REMARK       I    between atoms: N_9  and  C_3 
REMARK    3  A    between atoms: C_15  and  N_9 
REMARK    4  A    between atoms: C_23  and  C_15 
ROOT
ATOM      1  C   UNL d   1      30.757  15.965 -24.556  0.00  0.00     0.040 A 
ATOM      2  C   UNL d   1      31.620  16.530 -23.902  0.00  0.00     0.109 A 
ATOM      3  C   UNL d   1      30.612  16.417 -24.088  0.00  0.00     0.035 A 
ATOM      4  C   UNL d   1      30.366  15.531 -25.040  0.00  0.00    -0.023 A 
ATOM      5  C   UNL d   1      31.764  15.702 -24.767  0.00  0.00     0.013 A 
ATOM      6  C   UNL d   1      31.189  15.649 -24.861  0.00  0.00    -0.011 A 
ATOM      7  C   UNL d   1      32.532  15.792 -24.621  0.00  0.00     0.025 A 
ATOM      8  C   UNL d   1      31.026  16.185 -24.306  0.00  0.00    -0.005 A 
ATOM      9  C   UNL d   1      32.373  16.333 -24.060  0.00  0.00     0.031 A 
ATOM     10  C   UNL d   1      31.942  15.453 -25.018  0.00  0.00    -0.027 A 
ENDROOT
BRANCH   2  11
ATOM     11  N   UNL d   1      32.156  16.943 -23.430  0.00  0.00    -0.217 NA
ATOM     12  C   UNL d   1      32.219  17.760 -23.494  0.00  0.00     0.360 C 
ATOM     13  N   UNL d   1      32.752  18.179 -23.026  0.00  0.00    -0.214 NA
ATOM     14  O   UNL d   1      31.739  18.170 -24.036  0.00  0.00    -0.243 OA
BRANCH  13  15
ATOM     15  C   UNL d   1      32.816  19.006 -23.090  0.00  0.00     0.147 C 
ATOM     16  C   UNL d   1      33.241  18.808 -23.775  0.00  0.00     0.033 C 
ATOM     17  C   UNL d   1      32.391  19.195 -22.405  0.00  0.00     0.033 C 
BRANCH  15  18
ATOM     18  C   UNL d   1      32.884  19.828 -23.160  0.00  0.00     0.229 C 
ATOM     19  O   UNL d   1      33.241  20.263 -22.552  0.00  0.00    -0.286 OA
ENDBRANCH  15  18
ENDBRANCH  13  15
ENDBRANCH   2  11
BRANCH   1  20
ATOM     20  C   UNL d   1      30.091  16.311 -24.235  0.00  0.00    -0.019 A 
ATOM     21  C   UNL d   1      29.767  16.996 -24.577  0.00  0.00    -0.004 A 
ATOM     22  C   UNL d   1      29.095  17.348 -24.255  0.00  0.00    -0.000 A 
ATOM     23  C   UNL d   1      28.737  17.015 -23.581  0.00  0.00    -0.000 A 
ATOM     24  C   UNL d   1      29.063  16.335 -23.244  0.00  0.00    -0.000 A 
ATOM     25  C   UNL d   1      28.063  17.365 -23.255  0.00  0.00    -0.000 C 
ATOM     26  C   UNL d   1      29.736  15.984 -23.568  0.00  0.00    -0.004 A 
ENDBRANCH   1  20
TORSDOF 4
ENDMDL
MODEL 3
REMARK VINA RESULT:      -0.5      2.378      3.974
REMARK  4 active torsions:
REMARK  status: ('A' for Active; 'I' for Inactive)
REMARK    1  A    between atoms: C_6  and  C_1 
REMARK    2  A    between atoms: N_4  and  C_2 
REMARK       I    between atoms: C_3  and  N_4 
REMARK       I    between atoms: N_9  and  C_3 
REMARK    3  A    between atoms: C_15  and  N_9 
REMARK    4  A    between atoms: C_23  and  C_15 
ROOT
ATOM      1  C   UNL d   1      32.283  18.110 -24.372  0.00  0.00     0.040 A 
ATOM      2  C   UNL d   1      32.846  18.959 -23.700  0.00  0.00     0.109 A 
ATOM      3  C   UNL d   1      32.567  17.970 -23.784  0.00  0.00     0.035 A 
ATOM      4  C   UNL d   1      31.905  17.723 -24.904  0.00  0.00    -0.023 A 
ATOM      5  C   UNL d   1      32.302  19.095 -24.768  0.00  0.00     0.013 A 
ATOM      6  C   UNL d   1      32.151  18.530 -24.801  0.00  0.00    -0.011 A 
ATOM      7  C   UNL d   1      32.518  19.848 -24.698  0.00  0.00     0.025 A 
ATOM      8  C   UNL d   1      32.489  18.375 -24.106  0.00  0.00    -0.005 A 
ATOM      9  C   UNL d   1      32.860  19.696 -23.996  0.00  0.00     0.031 A 
ATOM     10  C   UNL d   1      32.165  19.267 -25.097  0.00  0.00    -0.027 A 
ENDROOT
BRANCH   2  11
ATOM     11  N   UNL d   1      33.239  19.489 -23.203  0.00  0.00    -0.217 NA
ATOM     12  C   UNL d   1      32.855  19.801 -22.546  0.00  0.00     0.360 C 
ATOM     13  N   UNL d   1      33.241  20.330 -22.046  0.00  0.00    -0.214 NA
ATOM     14  O   UNL d   1      32.070  19.582 -22.384  0.00  0.00    -0.243 OA
BRANCH  13  15
ATOM     15  C   UNL d   1      32.854  20.647 -21.381  0.00  0.00     0.147 C 
ATOM     16  C   UNL d   1      33.076  19.921 -21.045  0.00  0.00     0.033 C 
ATOM     17  C   UNL d   1      32.636  21.368 -21.723  0.00  0.00     0.033 C 
BRANCH  15  18
ATOM     18  C   UNL d   1      32.470  20.955 -20.716  0.00  0.00     0.229 C 
ATOM     19  O   UNL d   1      32.907  21.370 -20.147  0.00  0.00    -0.286 OA
ENDBRANCH  15  18
ENDBRANCH  13  15
ENDBRANCH   2  11
BRANCH   1  20
ATOM     20  C   UNL d   1      32.389  17.460 -23.889  0.00  0.00    -0.019 A 
ATOM     21  C   UNL d   1      33.120  17.062 -23.875  0.00  0.00    -0.004 A 
ATOM     22  C   UNL d   1      33.229  16.406 -23.389  0.00  0.00    -0.000 A 
ATOM     23  C   UNL d   1      32.605  16.138 -22.908  0.00  0.00    -0.000 A 
ATOM     24  C   UNL d   1      31.882  16.535 -22.926  0.00  0.00    -0.000 A 
ATOM     25  C   UNL d   1      32.711  15.480 -22.419  0.00  0.00    -0.000 C 
ATOM     26  C   UNL d   1      31.773  17.193 -23.413  0.00  0.00    -0.004 A 
ENDBRANCH   1  20
TORSDOF 4
ENDMDL
MODEL 4
REMARK VINA RESULT:      -0.1      2.993      5.468
REMARK  4 active torsions:
REMARK  status: ('A' for Active; 'I' for Inactive)
REMARK    1  A    between atoms: C_6  and  C_1 
REMARK    2  A    between atoms: N_4  and  C_2 
REMARK       I    between atoms: C_3  and  N_4 
REMARK       I    between atoms: N_9  and  C_3 
REMARK    3  A    between atoms: C_15  and  N_9 
REMARK    4  A    between atoms: C_23  and  C_15 
ROOT
ATOM      1  C   UNL d   1      32.483  22.094 -21.350  0.00  0.00     0.040 A 
ATOM      2  C   UNL d   1      32.898  21.005 -21.711  0.00  0.00     0.109 A 
ATOM      3  C   UNL d   1      32.650  21.967 -21.983  0.00  0.00     0.035 A 
ATOM      4  C   UNL d   1      32.217  22.689 -20.961  0.00  0.00    -0.023 A 
ATOM      5  C   UNL d   1      32.569  21.345 -20.602  0.00  0.00     0.013 A 
ATOM      6  C   UNL d   1      32.432  21.888 -20.773  0.00  0.00    -0.011 A 
ATOM      7  C   UNL d   1      32.760  20.610 -20.400  0.00  0.00     0.025 A 
ATOM      8  C   UNL d   1      32.631  21.729 -21.518  0.00  0.00    -0.005 A 
ATOM      9  C   UNL d   1      32.963  20.445 -21.152  0.00  0.00     0.031 A 
ATOM     10  C   UNL d   1      32.496  21.329 -20.213  0.00  0.00    -0.027 A 
ENDROOT
BRANCH   2  11
ATOM     11  N   UNL d   1      33.184  20.291 -22.013  0.00  0.00    -0.217 NA
ATOM     12  C   UNL d   1      32.862  19.976 -22.701  0.00  0.00     0.360 C 
ATOM     13  N   UNL d   1      33.142  19.265 -23.009  0.00  0.00    -0.214 NA
ATOM     14  O   UNL d   1      32.248  20.378 -23.092  0.00  0.00    -0.243 OA
BRANCH  13  15
ATOM     15  C   UNL d   1      32.817  18.945 -23.704  0.00  0.00     0.147 C 
ATOM     16  C   UNL d   1      32.400  18.476 -23.161  0.00  0.00     0.033 C 
ATOM     17  C   UNL d   1      33.236  19.417 -24.240  0.00  0.00     0.033 C 
BRANCH  15  18
ATOM     18  C   UNL d   1      32.489  18.622 -24.392  0.00  0.00     0.229 C 
ATOM     19  O   UNL d   1      32.818  17.935 -24.719  0.00  0.00    -0.286 OA
ENDBRANCH  15  18
ENDBRANCH  13  15
ENDBRANCH   2  11
BRANCH   1  20
ATOM     20  C   UNL d   1      32.501  22.492 -22.063  0.00  0.00    -0.019 A 
ATOM     21  C   UNL d   1      31.796  22.644 -22.477  0.00  0.00    -0.004 A 
ATOM     22  C   UNL d   1      31.811  23.045 -23.197  0.00  0.00    -0.000 A 
ATOM     23  C   UNL d   1      32.538  23.300 -23.513  0.00  0.00    -0.000 A 
ATOM     24  C   UNL d   1      33.235  23.146 -23.099  0.00  0.00    -0.000 A 
ATOM     25  C   UNL d   1      32.557  23.702 -24.235  0.00  0.00    -0.000 C 
ATOM     26  C   UNL d   1      33.219  22.745 -22.378  0.00  0.00    -0.004 A 
ENDBRANCH   1  20
TORSDOF 4
ENDMDL
