MODEL 1
REMARK VINA RESULT:      36.1      0.000      0.000
REMARK  2 active torsions:
REMARK  status: ('A' for Active; 'I' for Inactive)
REMARK    1  A    between atoms: C_7  and  C_1 
REMARK    2  A    between atoms: O_19  and  C_15 
ROOT
ATOM      1  C   UNL d   1      59.415  49.677  51.172  0.00  0.00     0.064 A 
ATOM      2  C   UNL d   1      59.286  49.677  50.348  0.00  0.00     0.199 A 
ATOM      3  C   UNL d   1      58.515  49.670  50.045  0.00  0.00     0.062 A 
ATOM      4  C   UNL d   1      58.761  49.670  51.695  0.00  0.00     0.126 A 
ATOM      5  C   UNL d   1      57.864  49.664  50.571  0.00  0.00     0.106 A 
ATOM      6  O   UNL d   1      57.983  49.664  51.388  0.00  0.00    -0.305 OA
ATOM      7  C   UNL d   1      58.390  49.670  49.235  0.00  0.00     0.009 A 
ATOM      8  C   UNL d   1      57.095  49.657  50.269  0.00  0.00     0.067 A 
ATOM      9  O   UNL d   1      59.930  49.683  49.833  0.00  0.00    -0.286 OA
ATOM     10  C   UNL d   1      56.979  49.658  49.450  0.00  0.00     0.198 A 
ATOM     11  C   UNL d   1      57.624  49.664  48.935  0.00  0.00     0.042 A 
ATOM     12  O   UNL d   1      56.212  49.651  49.150  0.00  0.00    -0.286 OA
ENDROOT
BRANCH   1  13
ATOM     13  C   UNL d   1      60.180  49.683  51.468  0.00  0.00     0.005 A 
ATOM     14  C   UNL d   1      60.819  49.688  50.946  0.00  0.00     0.002 A 
ATOM     15  C   UNL d   1      61.586  49.694  51.246  0.00  0.00     0.024 A 
ATOM     16  C   UNL d   1      61.719  49.696  52.061  0.00  0.00     0.094 A 
ATOM     17  C   UNL d   1      61.068  49.691  52.580  0.00  0.00     0.024 A 
ATOM     18  C   UNL d   1      60.301  49.684  52.282  0.00  0.00     0.002 A 
BRANCH  16  19
ATOM     19  O   UNL d   1      62.485  49.702  52.360  0.00  0.00    -0.328 OA
ATOM     20  C   UNL d   1      62.611  49.689  53.177  0.00  0.00     0.181 C 
ENDBRANCH  16  19
ENDBRANCH   1  13
TORSDOF 2
ENDMDL
