MODEL 1
REMARK VINA RESULT:      54.3      0.000      0.000
REMARK  3 active torsions:
REMARK  status: ('A' for Active; 'I' for Inactive)
REMARK    1  A    between atoms: C_9  and  C_1 
REMARK       I    between atoms: C_4  and  N_8 
REMARK    2  A    between atoms: C_5  and  C_4 
REMARK    3  A    between atoms: N_8  and  C_17 
ROOT
ATOM      1  C   UNL d   1      13.754  15.181  -4.833  0.00  0.00     0.036 A 
ATOM      2  C   UNL d   1      13.732  15.457  -5.598  0.00  0.00     0.005 A 
ATOM      3  C   UNL d   1      13.968  15.665  -4.217  0.00  0.00     0.005 A 
ATOM      4  C   UNL d   1      14.145  16.736  -5.132  0.00  0.00     0.085 A 
ATOM      5  C   UNL d   1      13.932  16.252  -5.747  0.00  0.00     0.019 A 
ATOM      6  C   UNL d   1      14.167  16.444  -4.337  0.00  0.00     0.019 A 
ENDROOT
BRANCH   1   7
ATOM      7  C   UNL d   1      13.554  14.387  -4.684  0.00  0.00     0.162 A 
ATOM      8  N   UNL d   1      13.279  13.792  -5.203  0.00  0.00    -0.225 NA
ATOM      9  C   UNL d   1      13.175  13.125  -4.756  0.00  0.00     0.101 A 
ATOM     10  C   UNL d   1      12.914  12.355  -4.945  0.00  0.00     0.021 A 
ATOM     11  C   UNL d   1      13.382  13.309  -3.976  0.00  0.00     0.101 A 
ATOM     12  C   UNL d   1      12.864  11.779  -4.357  0.00  0.00     0.002 A 
ATOM     13  C   UNL d   1      13.072  11.963  -3.577  0.00  0.00     0.002 A 
ATOM     14  C   UNL d   1      13.330  12.722  -3.384  0.00  0.00     0.021 A 
ATOM     15  N   UNL d   1      13.612  14.087  -3.951  0.00  0.00    -0.225 NA
ENDBRANCH   1   7
BRANCH   4  16
ATOM     16  N   UNL d   1      14.346  17.531  -5.280  0.00  0.00    -0.206 NA
ATOM     17  C   UNL d   1      13.875  18.008  -5.769  0.00  0.00     0.302 C 
ATOM     18  O   UNL d   1      13.209  17.690  -6.106  0.00  0.00    -0.263 OA
BRANCH  17  19
ATOM     19  C   UNL d   1      14.058  18.786  -5.923  0.00  0.00     0.158 A 
ATOM     20  O   UNL d   1      14.712  19.199  -5.669  0.00  0.00    -0.300 OA
ATOM     21  C   UNL d   1      14.656  19.981  -5.968  0.00  0.00     0.123 A 
ATOM     22  C   UNL d   1      13.994  20.045  -6.388  0.00  0.00     0.029 A 
ATOM     23  C   UNL d   1      13.607  19.333  -6.380  0.00  0.00     0.032 A 
ENDBRANCH  17  19
ENDBRANCH   4  16
TORSDOF 3
ENDMDL
