MODEL 1
REMARK VINA RESULT:      88.5      0.000      0.000
REMARK  6 active torsions:
REMARK  status: ('A' for Active; 'I' for Inactive)
REMARK    1  A    between atoms: C_11  and  N_3 
REMARK    2  A    between atoms: C_10  and  C_4 
REMARK    3  A    between atoms: C_18  and  C_11 
REMARK    4  A    between atoms: O_21  and  C_13 
REMARK    5  A    between atoms: O_22  and  C_15 
REMARK    6  A    between atoms: C_23  and  C_18 
ROOT
ATOM      1  N   UNL d   1     -50.889  25.742  33.921  0.00  0.00    -0.122 N 
ATOM      2  C   UNL d   1     -50.588  26.508  34.005  0.00  0.00     0.741 A 
ATOM      3  N   UNL d   1     -49.772  26.651  33.882  0.00  0.00    -0.103 N 
ATOM      4  C   UNL d   1     -51.704  25.764  34.074  0.00  0.00     0.185 A 
ATOM      5  C   UNL d   1     -49.269  26.027  33.678  0.00  0.00     0.280 A 
ATOM      6  N   UNL d   1     -51.210  27.008  34.208  0.00  0.00     0.045 NA
ATOM      7  C   UNL d   1     -50.386  25.114  33.717  0.00  0.00     0.087 A 
ATOM      8  N   UNL d   1     -51.906  26.549  34.252  0.00  0.00    -0.114 NA
ATOM      9  C   UNL d   1     -49.583  25.264  33.597  0.00  0.00     0.074 A 
ATOM     10  O   UNL d   1     -48.465  26.168  33.557  0.00  0.00    -0.266 OA
ATOM     11  C   UNL d   1     -49.080  24.635  33.393  0.00  0.00     0.006 A 
ATOM     12  C   UNL d   1     -50.688  24.352  33.634  0.00  0.00     0.018 A 
ATOM     13  C   UNL d   1     -49.382  23.874  33.310  0.00  0.00     0.000 A 
ATOM     14  C   UNL d   1     -50.185  23.733  33.431  0.00  0.00     0.002 A 
ENDROOT
BRANCH   4  15
ATOM     15  C   UNL d   1     -52.223  25.122  34.053  0.00  0.00     0.039 A 
ATOM     16  C   UNL d   1     -52.386  24.707  34.734  0.00  0.00     0.029 A 
ATOM     17  C   UNL d   1     -52.903  24.067  34.715  0.00  0.00     0.116 A 
ATOM     18  C   UNL d   1     -53.259  23.845  33.998  0.00  0.00     0.116 A 
ATOM     19  C   UNL d   1     -53.092  24.268  33.308  0.00  0.00     0.026 A 
ATOM     20  C   UNL d   1     -52.572  24.910  33.330  0.00  0.00     0.005 A 
BRANCH  17  21
ATOM     21  O   UNL d   1     -53.064  23.654  35.400  0.00  0.00    -0.326 OA
ATOM     22  C   UNL d   1     -53.836  23.619  35.696  0.00  0.00     0.181 C 
ENDBRANCH  17  21
BRANCH  18  23
ATOM     23  O   UNL d   1     -53.776  23.205  33.980  0.00  0.00    -0.326 OA
ATOM     24  C   UNL d   1     -54.549  23.310  33.704  0.00  0.00     0.181 C 
ENDBRANCH  18  23
ENDBRANCH   4  15
BRANCH   3  25
ATOM     25  C   UNL d   1     -49.470  27.413  33.964  0.00  0.00     0.101 C 
BRANCH  25  26
ATOM     26  C   UNL d   1     -49.324  27.717  34.718  0.00  0.00     0.020 C 
BRANCH  26  27
ATOM     27  C   UNL d   1     -48.682  28.226  34.849  0.00  0.00     0.002 A 
ATOM     28  C   UNL d   1     -48.738  28.822  35.416  0.00  0.00     0.000 A 
ATOM     29  C   UNL d   1     -48.108  29.318  35.542  0.00  0.00     0.000 A 
ATOM     30  C   UNL d   1     -47.428  29.225  35.110  0.00  0.00     0.000 A 
ATOM     31  C   UNL d   1     -47.364  28.634  34.543  0.00  0.00     0.000 A 
ATOM     32  C   UNL d   1     -48.003  28.133  34.417  0.00  0.00     0.000 A 
ENDBRANCH  26  27
ENDBRANCH  25  26
ENDBRANCH   3  25
TORSDOF 6
ENDMDL
MODEL 2
REMARK VINA RESULT:      89.2      1.418      2.392
REMARK  6 active torsions:
REMARK  status: ('A' for Active; 'I' for Inactive)
REMARK    1  A    between atoms: C_11  and  N_3 
REMARK    2  A    between atoms: C_10  and  C_4 
REMARK    3  A    between atoms: C_18  and  C_11 
REMARK    4  A    between atoms: O_21  and  C_13 
REMARK    5  A    between atoms: O_22  and  C_15 
REMARK    6  A    between atoms: C_23  and  C_18 
ROOT
ATOM      1  N   UNL d   1     -50.300  26.762  34.605  0.00  0.00    -0.122 N 
ATOM      2  C   UNL d   1     -49.656  27.270  34.493  0.00  0.00     0.741 A 
ATOM      3  N   UNL d   1     -49.335  27.686  35.144  0.00  0.00    -0.103 N 
ATOM      4  C   UNL d   1     -50.499  26.429  33.872  0.00  0.00     0.185 A 
ATOM      5  C   UNL d   1     -49.661  27.590  35.898  0.00  0.00     0.280 A 
ATOM      6  N   UNL d   1     -49.453  27.255  33.695  0.00  0.00     0.045 NA
ATOM      7  C   UNL d   1     -50.629  26.664  35.361  0.00  0.00     0.087 A 
ATOM      8  N   UNL d   1     -49.975  26.733  33.306  0.00  0.00    -0.114 NA
ATOM      9  C   UNL d   1     -50.306  27.078  35.997  0.00  0.00     0.074 A 
ATOM     10  O   UNL d   1     -49.344  28.000  36.540  0.00  0.00    -0.266 OA
ATOM     11  C   UNL d   1     -50.636  26.979  36.753  0.00  0.00     0.006 A 
ATOM     12  C   UNL d   1     -51.270  26.159  35.470  0.00  0.00     0.018 A 
ATOM     13  C   UNL d   1     -51.276  26.474  36.863  0.00  0.00     0.000 A 
ATOM     14  C   UNL d   1     -51.593  26.064  36.221  0.00  0.00     0.002 A 
ENDROOT
BRANCH   4  15
ATOM     15  C   UNL d   1     -51.110  25.890  33.730  0.00  0.00     0.039 A 
ATOM     16  C   UNL d   1     -50.939  25.104  33.607  0.00  0.00     0.029 A 
ATOM     17  C   UNL d   1     -51.545  24.566  33.466  0.00  0.00     0.116 A 
ATOM     18  C   UNL d   1     -52.334  24.828  33.448  0.00  0.00     0.116 A 
ATOM     19  C   UNL d   1     -52.504  25.627  33.573  0.00  0.00     0.026 A 
ATOM     20  C   UNL d   1     -51.892  26.165  33.715  0.00  0.00     0.005 A 
BRANCH  17  21
ATOM     21  O   UNL d   1     -51.370  23.779  33.343  0.00  0.00    -0.326 OA
ATOM     22  C   UNL d   1     -50.583  23.523  33.325  0.00  0.00     0.181 C 
ENDBRANCH  17  21
BRANCH  18  23
ATOM     23  O   UNL d   1     -52.940  24.289  33.306  0.00  0.00    -0.326 OA
ATOM     24  C   UNL d   1     -53.726  24.546  33.312  0.00  0.00     0.181 C 
ENDBRANCH  18  23
ENDBRANCH   4  15
BRANCH   3  25
ATOM     25  C   UNL d   1     -48.693  28.192  35.035  0.00  0.00     0.101 C 
BRANCH  25  26
ATOM     26  C   UNL d   1     -48.697  28.939  35.386  0.00  0.00     0.020 C 
BRANCH  26  27
ATOM     27  C   UNL d   1     -48.003  29.393  35.415  0.00  0.00     0.002 A 
ATOM     28  C   UNL d   1     -47.668  29.679  34.717  0.00  0.00     0.000 A 
ATOM     29  C   UNL d   1     -46.990  30.123  34.749  0.00  0.00     0.000 A 
ATOM     30  C   UNL d   1     -46.645  30.283  35.465  0.00  0.00     0.000 A 
ATOM     31  C   UNL d   1     -46.971  30.002  36.164  0.00  0.00     0.000 A 
ATOM     32  C   UNL d   1     -47.659  29.553  36.130  0.00  0.00     0.000 A 
ENDBRANCH  26  27
ENDBRANCH  25  26
ENDBRANCH   3  25
TORSDOF 6
ENDMDL
