MODEL 1
REMARK VINA RESULT:      -4.4      0.000      0.000
REMARK  7 active torsions:
REMARK  status: ('A' for Active; 'I' for Inactive)
REMARK    1  A    between atoms: C_2  and  C_1 
REMARK    2  A    between atoms: C_16  and  N_4 
REMARK    3  A    between atoms: C_14  and  C_21 
REMARK    4  A    between atoms: C_22  and  C_16 
REMARK    5  A    between atoms: C_21  and  C_23 
REMARK    6  A    between atoms: C_25  and  C_22 
REMARK    7  A    between atoms: C_23  and  C_25 
ROOT
ATOM      1  C   UNL d   1     -42.046-122.463 -50.347  0.00  0.00     0.093 A 
ATOM      2  N   UNL d   1     -41.463-122.339 -51.513  0.00  0.00    -0.259 N 
ATOM      3  C   UNL d   1     -41.523-121.599 -51.184  0.00  0.00     0.153 A 
ATOM      4  C   UNL d   1     -41.786-122.869 -50.995  0.00  0.00     0.272 A 
ATOM      5  S   UNL d   1     -41.886-121.678 -50.457  0.00  0.00    -0.053 SA
ATOM      6  S   UNL d   1     -41.254-120.901 -51.543  0.00  0.00    -0.052 SA
ATOM      7  O   UNL d   1     -41.840-123.706 -51.117  0.00  0.00    -0.266 OA
ENDROOT
BRANCH   1   8
ATOM      8  C   UNL d   1     -42.408-122.874 -49.717  0.00  0.00     0.069 A 
ATOM      9  C   UNL d   1     -43.199-123.109 -49.717  0.00  0.00     0.265 A 
ATOM     10  N   UNL d   1     -43.360-123.491 -49.024  0.00  0.00    -0.272 N 
ATOM     11  O   UNL d   1     -43.749-122.978 -50.333  0.00  0.00    -0.267 OA
ATOM     12  C   UNL d   1     -44.103-123.815 -48.811  0.00  0.00     0.102 C 
ATOM     13  C   UNL d   1     -42.673-123.500 -48.577  0.00  0.00     0.067 A 
ATOM     14  C   UNL d   1     -42.075-123.113 -49.012  0.00  0.00     0.021 A 
ATOM     15  C   UNL d   1     -42.505-123.804 -47.842  0.00  0.00     0.018 A 
ATOM     16  C   UNL d   1     -41.318-123.041 -48.692  0.00  0.00     0.002 A 
ATOM     17  C   UNL d   1     -41.124-123.340 -47.949  0.00  0.00     0.000 A 
ATOM     18  C   UNL d   1     -41.739-123.730 -47.520  0.00  0.00     0.002 A 
ENDBRANCH   1   8
BRANCH   2  19
ATOM     19  C   UNL d   1     -41.124-122.511 -52.259  0.00  0.00     0.084 C 
BRANCH  19  20
ATOM     20  C   UNL d   1     -41.575-122.435 -52.926  0.00  0.00     0.019 C 
BRANCH  20  21
ATOM     21  C   UNL d   1     -41.281-122.721 -53.654  0.00  0.00     0.002 C 
BRANCH  21  22
ATOM     22  C   UNL d   1     -41.363-122.268 -54.320  0.00  0.00     0.006 C 
BRANCH  22  23
ATOM     23  C   UNL d   1     -42.066-122.325 -54.769  0.00  0.00     0.070 C 
BRANCH  23  24
ATOM     24  C   UNL d   1     -42.108-121.978 -55.499  0.00  0.00     0.211 C 
ATOM     25  O   UNL d   1     -42.837-121.905 -55.886  0.00  0.00    -0.644 OA
ATOM     26  O   UNL d   1     -41.436-121.690 -55.873  0.00  0.00    -0.644 OA
ENDBRANCH  23  24
ENDBRANCH  22  23
ENDBRANCH  21  22
ENDBRANCH  20  21
ENDBRANCH  19  20
ENDBRANCH   2  19
TORSDOF 7
ENDMDL
