MODEL 1
REMARK VINA RESULT:      27.2      0.000      0.000
REMARK  6 active torsions:
REMARK  status: ('A' for Active; 'I' for Inactive)
REMARK    1  A    between atoms: C_4  and  C_2 
REMARK       I    between atoms: N_13  and  C_4 
REMARK    2  A    between atoms: O_17  and  C_8 
REMARK    3  A    between atoms: O_18  and  C_9 
REMARK    4  A    between atoms: C_19  and  N_13 
REMARK    5  A    between atoms: C_15  and  C_20 
REMARK    6  A    between atoms: C_20  and  C_19 
ROOT
ATOM      1  C   UNL d   1     -56.916 -98.806 -44.635  0.00  0.00     0.102 C 
ENDROOT
BRANCH   1   2
ATOM      2  N   UNL d   1     -57.311 -98.790 -43.911  0.00  0.00    -0.205 NA
ATOM      3  C   UNL d   1     -58.144 -98.772 -43.887  0.00  0.00     0.299 C 
ATOM      4  O   UNL d   1     -58.531 -98.756 -43.154  0.00  0.00    -0.263 OA
BRANCH   3   5
ATOM      5  C   UNL d   1     -58.587 -98.769 -44.596  0.00  0.00     0.161 A 
ATOM      6  N   UNL d   1     -59.408 -98.759 -44.558  0.00  0.00    -0.140 NA
ATOM      7  N   UNL d   1     -59.845 -98.756 -45.248  0.00  0.00    -0.105 NA
ATOM      8  C   UNL d   1     -59.465 -98.763 -45.981  0.00  0.00     0.297 A 
ATOM      9  C   UNL d   1     -58.649 -98.772 -46.023  0.00  0.00     0.066 A 
ATOM     10  O   UNL d   1     -59.922 -98.760 -46.682  0.00  0.00    -0.264 OA
ATOM     11  C   UNL d   1     -58.207 -98.775 -45.329  0.00  0.00     0.031 A 
ENDBRANCH   3   5
ENDBRANCH   1   2
BRANCH   1  12
ATOM     12  C   UNL d   1     -56.094 -98.885 -44.654  0.00  0.00     0.021 C 
BRANCH  12  13
ATOM     13  C   UNL d   1     -55.750 -99.629 -44.604  0.00  0.00     0.004 A 
ATOM     14  C   UNL d   1     -55.408 -99.870 -43.902  0.00  0.00     0.026 A 
ATOM     15  C   UNL d   1     -55.062-100.618 -43.850  0.00  0.00     0.116 A 
ATOM     16  C   UNL d   1     -55.062-101.118 -44.505  0.00  0.00     0.116 A 
ATOM     17  C   UNL d   1     -55.409-100.872 -45.213  0.00  0.00     0.026 A 
ATOM     18  C   UNL d   1     -55.750-100.130 -45.260  0.00  0.00     0.002 A 
BRANCH  15  19
ATOM     19  O   UNL d   1     -54.711-100.865 -43.130  0.00  0.00    -0.326 OA
ATOM     20  C   UNL d   1     -55.007-101.522 -42.728  0.00  0.00     0.181 C 
ENDBRANCH  15  19
BRANCH  16  21
ATOM     21  O   UNL d   1     -54.712-101.875 -44.452  0.00  0.00    -0.326 OA
ATOM     22  C   UNL d   1     -54.942-102.473 -44.973  0.00  0.00     0.181 C 
ENDBRANCH  16  21
ENDBRANCH  12  13
ENDBRANCH   1  12
TORSDOF 6
ENDMDL
MODEL 2
REMARK VINA RESULT:      27.7      1.696      4.444
REMARK  6 active torsions:
REMARK  status: ('A' for Active; 'I' for Inactive)
REMARK    1  A    between atoms: C_4  and  C_2 
REMARK       I    between atoms: N_13  and  C_4 
REMARK    2  A    between atoms: O_17  and  C_8 
REMARK    3  A    between atoms: O_18  and  C_9 
REMARK    4  A    between atoms: C_19  and  N_13 
REMARK    5  A    between atoms: C_15  and  C_20 
REMARK    6  A    between atoms: C_20  and  C_19 
ROOT
ATOM      1  C   UNL d   1     -55.515 -99.475 -44.559  0.00  0.00     0.102 C 
ENDROOT
BRANCH   1   2
ATOM      2  N   UNL d   1     -55.337 -99.975 -45.191  0.00  0.00    -0.205 NA
ATOM      3  C   UNL d   1     -55.085-100.757 -45.049  0.00  0.00     0.299 C 
ATOM      4  O   UNL d   1     -54.908-101.251 -45.691  0.00  0.00    -0.263 OA
BRANCH   3   5
ATOM      5  C   UNL d   1     -55.010-101.042 -44.267  0.00  0.00     0.161 A 
ATOM      6  N   UNL d   1     -55.167-101.833 -44.111  0.00  0.00    -0.140 NA
ATOM      7  N   UNL d   1     -55.095-102.117 -43.347  0.00  0.00    -0.105 NA
ATOM      8  C   UNL d   1     -54.868-101.612 -42.736  0.00  0.00     0.297 A 
ATOM      9  C   UNL d   1     -54.712-100.823 -42.888  0.00  0.00     0.066 A 
ATOM     10  O   UNL d   1     -54.798-101.911 -41.957  0.00  0.00    -0.264 OA
ATOM     11  C   UNL d   1     -54.783-100.537 -43.655  0.00  0.00     0.031 A 
ENDBRANCH   3   5
ENDBRANCH   1   2
BRANCH   1  12
ATOM     12  C   UNL d   1     -55.932 -98.775 -44.692  0.00  0.00     0.021 C 
BRANCH  12  13
ATOM     13  C   UNL d   1     -56.753 -98.770 -44.648  0.00  0.00     0.004 A 
ATOM     14  C   UNL d   1     -57.119 -98.774 -43.918  0.00  0.00     0.026 A 
ATOM     15  C   UNL d   1     -57.943 -98.769 -43.872  0.00  0.00     0.116 A 
ATOM     16  C   UNL d   1     -58.394 -98.760 -44.562  0.00  0.00     0.116 A 
ATOM     17  C   UNL d   1     -58.021 -98.756 -45.299  0.00  0.00     0.026 A 
ATOM     18  C   UNL d   1     -57.204 -98.761 -45.339  0.00  0.00     0.002 A 
BRANCH  15  19
ATOM     19  O   UNL d   1     -58.318 -98.773 -43.122  0.00  0.00    -0.326 OA
ATOM     20  C   UNL d   1     -59.141 -98.811 -43.070  0.00  0.00     0.181 C 
ENDBRANCH  15  19
BRANCH  16  21
ATOM     21  O   UNL d   1     -59.228 -98.755 -44.516  0.00  0.00    -0.326 OA
ATOM     22  C   UNL d   1     -59.678 -99.030 -45.151  0.00  0.00     0.181 C 
ENDBRANCH  16  21
ENDBRANCH  12  13
ENDBRANCH   1  12
TORSDOF 6
ENDMDL
