MODEL 1
REMARK VINA RESULT:      89.1      0.000      0.000
REMARK  8 active torsions:
REMARK  status: ('A' for Active; 'I' for Inactive)
REMARK    1  A    between atoms: C_4  and  C_1 
REMARK    2  A    between atoms: C_10  and  C_2 
REMARK    3  A    between atoms: C_15  and  C_9 
REMARK    4  A    between atoms: O_21  and  C_10 
REMARK    5  A    between atoms: O_22  and  C_15 
REMARK    6  A    between atoms: C_24  and  C_17 
REMARK    7  A    between atoms: C_25  and  O_21 
REMARK    8  A    between atoms: C_26  and  O_22 
ROOT
ATOM      1  C   UNL d   1      58.747  49.186  51.130  0.00  0.00     0.090 A 
ATOM      2  C   UNL d   1      58.006  49.180  50.768  0.00  0.00     0.168 A 
ATOM      3  C   UNL d   1      58.804  49.287  51.946  0.00  0.00     0.201 A 
ATOM      4  C   UNL d   1      58.125  49.381  52.396  0.00  0.00     0.062 A 
ATOM      5  O   UNL d   1      57.324  49.276  51.222  0.00  0.00    -0.301 OA
ATOM      6  C   UNL d   1      57.385  49.376  52.034  0.00  0.00     0.106 A 
ATOM      7  C   UNL d   1      58.195  49.479  53.187  0.00  0.00     0.008 A 
ATOM      8  C   UNL d   1      56.716  49.468  52.463  0.00  0.00     0.067 A 
ATOM      9  C   UNL d   1      56.774  49.569  53.280  0.00  0.00     0.198 A 
ATOM     10  C   UNL d   1      57.514  49.574  53.642  0.00  0.00     0.039 A 
ATOM     11  O   UNL d   1      59.544  49.292  52.309  0.00  0.00    -0.286 OA
ATOM     12  O   UNL d   1      56.059  49.668  53.749  0.00  0.00    -0.286 OA
ENDROOT
BRANCH   1  13
ATOM     13  C   UNL d   1      59.415  49.094  50.700  0.00  0.00     0.105 A 
ATOM     14  O   UNL d   1      59.872  48.437  50.747  0.00  0.00    -0.302 OA
ATOM     15  C   UNL d   1      60.522  48.524  50.228  0.00  0.00     0.163 A 
ATOM     16  C   UNL d   1      60.446  49.264  49.858  0.00  0.00     0.032 A 
ATOM     17  C   UNL d   1      59.749  49.621  50.156  0.00  0.00     0.027 A 
BRANCH  15  18
ATOM     18  C   UNL d   1      61.141  47.958  50.106  0.00  0.00     0.323 C 
ATOM     19  O   UNL d   1      61.747  48.108  49.582  0.00  0.00    -0.257 OA
BRANCH  18  20
ATOM     20  O   UNL d   1      61.135  47.233  50.527  0.00  0.00    -0.270 OA
BRANCH  20  21
ATOM     21  C   UNL d   1      61.357  46.535  50.160  0.00  0.00     0.126 C 
ATOM     22  C   UNL d   1      60.959  45.840  50.297  0.00  0.00     0.029 C 
ENDBRANCH  20  21
ENDBRANCH  18  20
ENDBRANCH  15  18
ENDBRANCH   1  13
BRANCH   2  23
ATOM     23  C   UNL d   1      57.925  49.080  49.945  0.00  0.00     0.323 C 
ATOM     24  O   UNL d   1      58.204  49.677  49.441  0.00  0.00    -0.257 OA
BRANCH  23  25
ATOM     25  O   UNL d   1      57.577  48.405  49.627  0.00  0.00    -0.270 OA
BRANCH  25  26
ATOM     26  C   UNL d   1      57.061  48.474  48.981  0.00  0.00     0.126 C 
ATOM     27  C   UNL d   1      56.491  49.070  48.974  0.00  0.00     0.029 C 
ENDBRANCH  25  26
ENDBRANCH  23  25
ENDBRANCH   2  23
BRANCH  10  28
ATOM     28  C   UNL d   1      57.559  49.679  54.483  0.00  0.00     0.003 C 
ATOM     29  C   UNL d   1      58.286  49.703  54.872  0.00  0.00     0.000 C 
ENDBRANCH  10  28
TORSDOF 8
ENDMDL
