MODEL 1
REMARK VINA RESULT:     -11.0      0.000      0.000
REMARK  3 active torsions:
REMARK  status: ('A' for Active; 'I' for Inactive)
REMARK       I    between atoms: C_3  and  N_1 
REMARK    1  A    between atoms: C_9  and  C_3 
REMARK    2  A    between atoms: C_15  and  C_4 
REMARK    3  A    between atoms: N_5  and  C_8 
ROOT
ATOM      1  N   UNL d   1      53.068  32.910  53.850  0.00  0.00    -0.269 N 
ATOM      2  C   UNL d   1      52.960  34.192  54.256  0.00  0.00     0.036 A 
ATOM      3  C   UNL d   1      52.760  32.379  53.296  0.00  0.00     0.265 C 
ATOM      4  C   UNL d   1      52.772  33.671  53.837  0.00  0.00     0.069 A 
ATOM      5  C   UNL d   1      53.506  34.276  54.887  0.00  0.00     0.086 A 
ATOM      6  N   UNL d   1      53.968  33.821  55.207  0.00  0.00    -0.207 NA
ATOM      7  C   UNL d   1      54.081  33.036  55.009  0.00  0.00     0.297 A 
ATOM      8  C   UNL d   1      53.667  32.613  54.383  0.00  0.00     0.146 A 
ATOM      9  C   UNL d   1      52.503  34.852  54.026  0.00  0.00     0.033 A 
ATOM     10  O   UNL d   1      52.175  32.625  52.756  0.00  0.00    -0.267 OA
ATOM     11  O   UNL d   1      54.643  32.612  55.450  0.00  0.00    -0.264 OA
ATOM     12  C   UNL d   1      53.587  35.008  55.275  0.00  0.00     0.022 A 
ATOM     13  C   UNL d   1      52.581  35.587  54.411  0.00  0.00     0.140 A 
ATOM     14  C   UNL d   1      53.130  35.661  55.041  0.00  0.00     0.031 A 
ATOM     15  F   UNL d   1      52.128  36.224  54.176  0.00  0.00    -0.204 F 
ENDROOT
BRANCH   3  16
ATOM     16  C   UNL d   1      53.030  31.602  53.273  0.00  0.00     0.058 A 
ATOM     17  C   UNL d   1      52.580  30.993  53.601  0.00  0.00     0.028 A 
ATOM     18  C   UNL d   1      52.857  30.231  53.572  0.00  0.00     0.127 A 
ATOM     19  C   UNL d   1      53.582  30.058  53.218  0.00  0.00     0.022 A 
ATOM     20  C   UNL d   1      54.028  30.655  52.893  0.00  0.00     0.002 A 
ATOM     21  C   UNL d   1      53.850  29.278  53.197  0.00  0.00     0.002 C 
ATOM     22  C   UNL d   1      53.751  31.431  52.921  0.00  0.00     0.005 A 
BRANCH  18  23
ATOM     23  N   UNL d   1      52.408  29.622  53.901  0.00  0.00    -0.114 N 
ATOM     24  O   UNL d   1      51.707  29.406  53.550  0.00  0.00    -0.532 OA
ATOM     25  O   UNL d   1      52.673  29.241  54.577  0.00  0.00    -0.532 OA
ENDBRANCH  18  23
ENDBRANCH   3  16
BRANCH   4  26
ATOM     26  C   UNL d   1      52.198  33.835  53.276  0.00  0.00     0.016 A 
ATOM     27  C   UNL d   1      51.398  33.717  53.458  0.00  0.00     0.004 A 
ATOM     28  C   UNL d   1      50.827  33.886  52.886  0.00  0.00     0.030 A 
ATOM     29  C   UNL d   1      51.039  34.161  52.157  0.00  0.00     0.140 A 
ATOM     30  C   UNL d   1      51.838  34.277  51.982  0.00  0.00     0.030 A 
ATOM     31  F   UNL d   1      50.467  34.327  51.592  0.00  0.00    -0.204 F 
ATOM     32  C   UNL d   1      52.416  34.115  52.535  0.00  0.00     0.004 A 
ENDBRANCH   4  26
TORSDOF 3
ENDMDL
MODEL 2
REMARK VINA RESULT:      -9.4      1.980      3.770
REMARK  3 active torsions:
REMARK  status: ('A' for Active; 'I' for Inactive)
REMARK       I    between atoms: C_3  and  N_1 
REMARK    1  A    between atoms: C_9  and  C_3 
REMARK    2  A    between atoms: C_15  and  C_4 
REMARK    3  A    between atoms: N_5  and  C_8 
ROOT
ATOM      1  N   UNL d   1      52.598  33.825  53.777  0.00  0.00    -0.269 N 
ATOM      2  C   UNL d   1      53.774  33.783  54.436  0.00  0.00     0.036 A 
ATOM      3  C   UNL d   1      52.090  33.348  53.331  0.00  0.00     0.265 C 
ATOM      4  C   UNL d   1      53.282  33.475  54.055  0.00  0.00     0.069 A 
ATOM      5  C   UNL d   1      53.885  34.553  54.749  0.00  0.00     0.086 A 
ATOM      6  N   UNL d   1      53.494  35.160  54.722  0.00  0.00    -0.207 NA
ATOM      7  C   UNL d   1      52.777  35.251  54.341  0.00  0.00     0.297 A 
ATOM      8  C   UNL d   1      52.361  34.636  53.904  0.00  0.00     0.146 A 
ATOM      9  C   UNL d   1      54.355  33.201  54.580  0.00  0.00     0.033 A 
ATOM     10  O   UNL d   1      52.281  32.551  53.182  0.00  0.00    -0.267 OA
ATOM     11  O   UNL d   1      52.419  36.000  54.379  0.00  0.00    -0.264 OA
ATOM     12  C   UNL d   1      54.566  34.730  55.196  0.00  0.00     0.022 A 
ATOM     13  C   UNL d   1      55.038  33.372  55.026  0.00  0.00     0.140 A 
ATOM     14  C   UNL d   1      55.140  34.145  55.335  0.00  0.00     0.031 A 
ATOM     15  F   UNL d   1      55.598  32.793  55.159  0.00  0.00    -0.204 F 
ENDROOT
BRANCH   3  16
ATOM     16  C   UNL d   1      51.390  33.658  53.031  0.00  0.00     0.058 A 
ATOM     17  C   UNL d   1      51.325  33.851  52.232  0.00  0.00     0.028 A 
ATOM     18  C   UNL d   1      50.629  34.156  51.948  0.00  0.00     0.127 A 
ATOM     19  C   UNL d   1      49.985  34.276  52.449  0.00  0.00     0.022 A 
ATOM     20  C   UNL d   1      50.044  34.088  53.238  0.00  0.00     0.002 A 
ATOM     21  C   UNL d   1      49.283  34.588  52.145  0.00  0.00     0.002 C 
ATOM     22  C   UNL d   1      50.749  33.778  53.530  0.00  0.00     0.005 A 
BRANCH  18  23
ATOM     23  N   UNL d   1      50.565  34.349  51.148  0.00  0.00    -0.114 N 
ATOM     24  O   UNL d   1      49.836  34.339  50.790  0.00  0.00    -0.532 OA
ATOM     25  O   UNL d   1      51.238  34.548  50.723  0.00  0.00    -0.532 OA
ENDBRANCH  18  23
ENDBRANCH   3  16
BRANCH   4  26
ATOM     26  C   UNL d   1      53.398  32.687  53.866  0.00  0.00     0.016 A 
ATOM     27  C   UNL d   1      53.131  32.095  54.381  0.00  0.00     0.004 A 
ATOM     28  C   UNL d   1      53.254  31.304  54.182  0.00  0.00     0.030 A 
ATOM     29  C   UNL d   1      53.627  31.102  53.496  0.00  0.00     0.140 A 
ATOM     30  C   UNL d   1      53.891  31.696  52.986  0.00  0.00     0.030 A 
ATOM     31  F   UNL d   1      53.746  30.313  53.301  0.00  0.00    -0.204 F 
ATOM     32  C   UNL d   1      53.779  32.484  53.167  0.00  0.00     0.004 A 
ENDBRANCH   4  26
TORSDOF 3
ENDMDL
MODEL 3
REMARK VINA RESULT:      -9.3      1.229      2.566
REMARK  3 active torsions:
REMARK  status: ('A' for Active; 'I' for Inactive)
REMARK       I    between atoms: C_3  and  N_1 
REMARK    1  A    between atoms: C_9  and  C_3 
REMARK    2  A    between atoms: C_15  and  C_4 
REMARK    3  A    between atoms: N_5  and  C_8 
ROOT
ATOM      1  N   UNL d   1      52.969  32.538  53.693  0.00  0.00    -0.269 N 
ATOM      2  C   UNL d   1      52.746  33.863  53.804  0.00  0.00     0.036 A 
ATOM      3  C   UNL d   1      53.519  31.955  53.897  0.00  0.00     0.265 C 
ATOM      4  C   UNL d   1      53.138  33.302  53.923  0.00  0.00     0.069 A 
ATOM      5  C   UNL d   1      52.013  34.002  53.420  0.00  0.00     0.086 A 
ATOM      6  N   UNL d   1      51.542  33.572  53.081  0.00  0.00    -0.207 NA
ATOM      7  C   UNL d   1      51.618  32.764  52.981  0.00  0.00     0.297 A 
ATOM      8  C   UNL d   1      52.275  32.284  53.262  0.00  0.00     0.146 A 
ATOM      9  C   UNL d   1      53.153  34.509  54.145  0.00  0.00     0.033 A 
ATOM     10  O   UNL d   1      54.211  32.156  54.318  0.00  0.00    -0.267 OA
ATOM     11  O   UNL d   1      51.008  32.374  52.572  0.00  0.00    -0.264 OA
ATOM     12  C   UNL d   1      51.700  34.773  53.382  0.00  0.00     0.022 A 
ATOM     13  C   UNL d   1      52.843  35.281  54.109  0.00  0.00     0.140 A 
ATOM     14  C   UNL d   1      52.110  35.410  53.723  0.00  0.00     0.031 A 
ATOM     15  F   UNL d   1      53.252  35.903  54.447  0.00  0.00    -0.204 F 
ENDROOT
BRANCH   3  16
ATOM     16  C   UNL d   1      53.390  31.171  53.686  0.00  0.00     0.058 A 
ATOM     17  C   UNL d   1      53.216  30.606  54.261  0.00  0.00     0.028 A 
ATOM     18  C   UNL d   1      53.090  29.835  54.040  0.00  0.00     0.127 A 
ATOM     19  C   UNL d   1      53.133  29.611  53.248  0.00  0.00     0.022 A 
ATOM     20  C   UNL d   1      53.304  30.164  52.677  0.00  0.00     0.002 A 
ATOM     21  C   UNL d   1      53.003  28.823  53.038  0.00  0.00     0.002 C 
ATOM     22  C   UNL d   1      53.433  30.948  52.897  0.00  0.00     0.005 A 
BRANCH  18  23
ATOM     23  N   UNL d   1      52.916  29.270  54.615  0.00  0.00    -0.114 N 
ATOM     24  O   UNL d   1      52.152  29.188  54.881  0.00  0.00    -0.532 OA
ATOM     25  O   UNL d   1      53.515  28.796  54.913  0.00  0.00    -0.532 OA
ENDBRANCH  18  23
ENDBRANCH   3  16
BRANCH   4  26
ATOM     26  C   UNL d   1      53.837  33.420  54.333  0.00  0.00     0.016 A 
ATOM     27  C   UNL d   1      53.840  33.387  55.161  0.00  0.00     0.004 A 
ATOM     28  C   UNL d   1      54.550  33.507  55.565  0.00  0.00     0.030 A 
ATOM     29  C   UNL d   1      55.235  33.653  55.166  0.00  0.00     0.140 A 
ATOM     30  C   UNL d   1      55.226  33.684  54.340  0.00  0.00     0.030 A 
ATOM     31  F   UNL d   1      55.939  33.772  55.572  0.00  0.00    -0.204 F 
ATOM     32  C   UNL d   1      54.533  33.569  53.924  0.00  0.00     0.004 A 
ENDBRANCH   4  26
TORSDOF 3
ENDMDL
MODEL 4
REMARK VINA RESULT:      -8.3      1.849      3.904
REMARK  3 active torsions:
REMARK  status: ('A' for Active; 'I' for Inactive)
REMARK       I    between atoms: C_3  and  N_1 
REMARK    1  A    between atoms: C_9  and  C_3 
REMARK    2  A    between atoms: C_15  and  C_4 
REMARK    3  A    between atoms: N_5  and  C_8 
ROOT
ATOM      1  N   UNL d   1      52.272  33.672  53.224  0.00  0.00    -0.269 N 
ATOM      2  C   UNL d   1      53.260  33.212  54.018  0.00  0.00     0.036 A 
ATOM      3  C   UNL d   1      51.870  34.368  53.030  0.00  0.00     0.265 C 
ATOM      4  C   UNL d   1      52.863  33.731  53.784  0.00  0.00     0.069 A 
ATOM      5  C   UNL d   1      53.314  32.390  53.858  0.00  0.00     0.086 A 
ATOM      6  N   UNL d   1      52.955  31.946  53.415  0.00  0.00    -0.207 NA
ATOM      7  C   UNL d   1      52.348  32.162  52.911  0.00  0.00     0.297 A 
ATOM      8  C   UNL d   1      52.031  32.958  52.820  0.00  0.00     0.146 A 
ATOM      9  C   UNL d   1      53.778  33.549  54.580  0.00  0.00     0.033 A 
ATOM     10  O   UNL d   1      52.071  35.089  53.398  0.00  0.00    -0.267 OA
ATOM     11  O   UNL d   1      52.010  31.561  52.446  0.00  0.00    -0.264 OA
ATOM     12  C   UNL d   1      53.876  31.922  54.257  0.00  0.00     0.022 A 
ATOM     13  C   UNL d   1      54.341  33.085  54.981  0.00  0.00     0.140 A 
ATOM     14  C   UNL d   1      54.387  32.264  54.815  0.00  0.00     0.031 A 
ATOM     15  F   UNL d   1      54.841  33.428  55.529  0.00  0.00    -0.204 F 
ENDROOT
BRANCH   3  16
ATOM     16  C   UNL d   1      51.266  34.356  52.471  0.00  0.00     0.058 A 
ATOM     17  C   UNL d   1      50.480  34.451  52.701  0.00  0.00     0.028 A 
ATOM     18  C   UNL d   1      49.894  34.437  52.140  0.00  0.00     0.127 A 
ATOM     19  C   UNL d   1      50.075  34.328  51.343  0.00  0.00     0.022 A 
ATOM     20  C   UNL d   1      50.849  34.233  51.111  0.00  0.00     0.002 A 
ATOM     21  C   UNL d   1      49.468  34.315  50.783  0.00  0.00     0.002 C 
ATOM     22  C   UNL d   1      51.447  34.247  51.678  0.00  0.00     0.005 A 
BRANCH  18  23
ATOM     23  N   UNL d   1      49.108  34.533  52.370  0.00  0.00    -0.114 N 
ATOM     24  O   UNL d   1      48.551  33.988  52.137  0.00  0.00    -0.532 OA
ATOM     25  O   UNL d   1      48.895  35.177  52.831  0.00  0.00    -0.532 OA
ENDBRANCH  18  23
ENDBRANCH   3  16
BRANCH   4  26
ATOM     26  C   UNL d   1      53.001  34.474  54.099  0.00  0.00     0.016 A 
ATOM     27  C   UNL d   1      52.619  34.703  54.799  0.00  0.00     0.004 A 
ATOM     28  C   UNL d   1      52.765  35.454  55.109  0.00  0.00     0.030 A 
ATOM     29  C   UNL d   1      53.271  35.963  54.741  0.00  0.00     0.140 A 
ATOM     30  C   UNL d   1      53.649  35.729  54.044  0.00  0.00     0.030 A 
ATOM     31  F   UNL d   1      53.413  36.709  55.054  0.00  0.00    -0.204 F 
ATOM     32  C   UNL d   1      53.517  34.991  53.723  0.00  0.00     0.004 A 
ENDBRANCH   4  26
TORSDOF 3
ENDMDL
