MODEL 1
REMARK VINA RESULT:      -2.4      0.000      0.000
REMARK  1 active torsions:
REMARK  status: ('A' for Active; 'I' for Inactive)
REMARK    1  A    between atoms: C_5  and  C_2 
ROOT
ATOM      1  N   UNL d   1      32.140  22.358 -21.265  0.00  0.00    -0.217 NA
ATOM      2  C   UNL d   1      32.687  21.822 -20.995  0.00  0.00     0.113 A 
ATOM      3  C   UNL d   1      32.156  23.015 -20.760  0.00  0.00     0.215 A 
ATOM      4  S   UNL d   1      32.734  22.861 -20.171  0.00  0.00    -0.045 SA
ATOM      5  C   UNL d   1      33.059  22.129 -20.316  0.00  0.00     0.060 A 
ATOM      6  N   UNL d   1      31.681  23.702 -20.831  0.00  0.00    -0.120 N 
ENDROOT
BRANCH   2   7
ATOM      7  C   UNL d   1      32.875  21.066 -21.325  0.00  0.00     0.118 A 
ATOM      8  O   UNL d   1      32.865  20.842 -22.133  0.00  0.00    -0.304 OA
ATOM      9  C   UNL d   1      33.094  20.037 -22.169  0.00  0.00     0.123 A 
ATOM     10  C   UNL d   1      33.239  19.782 -21.398  0.00  0.00     0.029 A 
ATOM     11  C   UNL d   1      33.106  20.406 -20.886  0.00  0.00     0.028 A 
ENDBRANCH   2   7
TORSDOF 1
ENDMDL
MODEL 2
REMARK VINA RESULT:      -2.2      5.900      6.659
REMARK  1 active torsions:
REMARK  status: ('A' for Active; 'I' for Inactive)
REMARK    1  A    between atoms: C_5  and  C_2 
ROOT
ATOM      1  N   UNL d   1      31.387  16.780 -23.545  0.00  0.00    -0.217 NA
ATOM      2  C   UNL d   1      31.011  16.062 -23.511  0.00  0.00     0.113 A 
ATOM      3  C   UNL d   1      32.202  16.639 -23.596  0.00  0.00     0.215 A 
ATOM      4  S   UNL d   1      32.310  15.808 -23.593  0.00  0.00    -0.045 SA
ATOM      5  C   UNL d   1      31.580  15.453 -23.541  0.00  0.00     0.060 A 
ATOM      6  N   UNL d   1      32.801  17.225 -23.643  0.00  0.00    -0.120 N 
ENDROOT
BRANCH   2   7
ATOM      7  C   UNL d   1      30.179  15.916 -23.455  0.00  0.00     0.118 A 
ATOM      8  O   UNL d   1      29.575  16.188 -23.969  0.00  0.00    -0.304 OA
ATOM      9  C   UNL d   1      28.848  15.893 -23.675  0.00  0.00     0.123 A 
ATOM     10  C   UNL d   1      29.013  15.453 -22.997  0.00  0.00     0.029 A 
ATOM     11  C   UNL d   1      29.820  15.466 -22.864  0.00  0.00     0.028 A 
ENDBRANCH   2   7
TORSDOF 1
ENDMDL
MODEL 3
REMARK VINA RESULT:      -2.1      4.753      5.796
REMARK  1 active torsions:
REMARK  status: ('A' for Active; 'I' for Inactive)
REMARK    1  A    between atoms: C_5  and  C_2 
ROOT
ATOM      1  N   UNL d   1      31.258  16.690 -23.492  0.00  0.00    -0.217 NA
ATOM      2  C   UNL d   1      32.052  16.852 -23.500  0.00  0.00     0.113 A 
ATOM      3  C   UNL d   1      31.165  15.867 -23.525  0.00  0.00     0.215 A 
ATOM      4  S   UNL d   1      31.933  15.532 -23.553  0.00  0.00    -0.045 SA
ATOM      5  C   UNL d   1      32.478  16.137 -23.537  0.00  0.00     0.060 A 
ATOM      6  N   UNL d   1      30.435  15.453 -23.530  0.00  0.00    -0.120 N 
ENDROOT
BRANCH   2   7
ATOM      7  C   UNL d   1      32.424  17.612 -23.475  0.00  0.00     0.118 A 
ATOM      8  O   UNL d   1      32.739  18.006 -22.805  0.00  0.00    -0.304 OA
ATOM      9  C   UNL d   1      33.045  18.739 -23.071  0.00  0.00     0.123 A 
ATOM     10  C   UNL d   1      32.916  18.784 -23.885  0.00  0.00     0.029 A 
ATOM     11  C   UNL d   1      32.540  18.100 -24.129  0.00  0.00     0.028 A 
ENDBRANCH   2   7
TORSDOF 1
ENDMDL
MODEL 4
REMARK VINA RESULT:      -2.1      1.680      2.841
REMARK  1 active torsions:
REMARK  status: ('A' for Active; 'I' for Inactive)
REMARK    1  A    between atoms: C_5  and  C_2 
ROOT
ATOM      1  N   UNL d   1      32.839  20.951 -22.199  0.00  0.00    -0.217 NA
ATOM      2  C   UNL d   1      32.790  21.281 -21.460  0.00  0.00     0.113 A 
ATOM      3  C   UNL d   1      33.109  20.173 -22.114  0.00  0.00     0.215 A 
ATOM      4  S   UNL d   1      33.224  20.039 -21.293  0.00  0.00    -0.045 SA
ATOM      5  C   UNL d   1      33.028  20.719 -20.892  0.00  0.00     0.060 A 
ATOM      6  N   UNL d   1      33.241  19.625 -22.736  0.00  0.00    -0.120 N 
ENDROOT
BRANCH   2   7
ATOM      7  C   UNL d   1      32.543  22.065 -21.259  0.00  0.00     0.118 A 
ATOM      8  O   UNL d   1      32.211  22.329 -20.535  0.00  0.00    -0.304 OA
ATOM      9  C   UNL d   1      32.062  23.149 -20.616  0.00  0.00     0.123 A 
ATOM     10  C   UNL d   1      32.299  23.374 -21.373  0.00  0.00     0.029 A 
ATOM     11  C   UNL d   1      32.591  22.717 -21.763  0.00  0.00     0.028 A 
ENDBRANCH   2   7
TORSDOF 1
ENDMDL
MODEL 5
REMARK VINA RESULT:      -2.1      6.125      6.950
REMARK  1 active torsions:
REMARK  status: ('A' for Active; 'I' for Inactive)
REMARK    1  A    between atoms: C_5  and  C_2 
ROOT
ATOM      1  N   UNL d   1      29.378  16.175 -23.586  0.00  0.00    -0.217 NA
ATOM      2  C   UNL d   1      30.023  16.170 -24.077  0.00  0.00     0.113 A 
ATOM      3  C   UNL d   1      28.776  15.736 -23.952  0.00  0.00     0.215 A 
ATOM      4  S   UNL d   1      29.080  15.464 -24.685  0.00  0.00    -0.045 SA
ATOM      5  C   UNL d   1      29.845  15.730 -24.762  0.00  0.00     0.060 A 
ATOM      6  N   UNL d   1      28.010  15.595 -23.641  0.00  0.00    -0.120 N 
ENDROOT
BRANCH   2   7
ATOM      7  C   UNL d   1      30.773  16.542 -23.947  0.00  0.00     0.118 A 
ATOM      8  O   UNL d   1      31.392  16.284 -23.444  0.00  0.00    -0.304 OA
ATOM      9  C   UNL d   1      32.014  16.842 -23.512  0.00  0.00     0.123 A 
ATOM     10  C   UNL d   1      31.772  17.423 -24.045  0.00  0.00     0.029 A 
ATOM     11  C   UNL d   1      31.020  17.241 -24.309  0.00  0.00     0.028 A 
ENDBRANCH   2   7
TORSDOF 1
ENDMDL
MODEL 6
REMARK VINA RESULT:      -2.1      3.761      4.702
REMARK  1 active torsions:
REMARK  status: ('A' for Active; 'I' for Inactive)
REMARK    1  A    between atoms: C_5  and  C_2 
ROOT
ATOM      1  N   UNL d   1      32.595  18.441 -22.844  0.00  0.00    -0.217 NA
ATOM      2  C   UNL d   1      32.530  18.027 -23.538  0.00  0.00     0.113 A 
ATOM      3  C   UNL d   1      33.038  19.126 -22.994  0.00  0.00     0.215 A 
ATOM      4  S   UNL d   1      33.241  19.114 -23.808  0.00  0.00    -0.045 SA
ATOM      5  C   UNL d   1      32.930  18.440 -24.142  0.00  0.00     0.060 A 
ATOM      6  N   UNL d   1      33.241  19.715 -22.434  0.00  0.00    -0.120 N 
ENDROOT
BRANCH   2   7
ATOM      7  C   UNL d   1      32.130  17.293 -23.666  0.00  0.00     0.118 A 
ATOM      8  O   UNL d   1      32.417  16.519 -23.512  0.00  0.00    -0.304 OA
ATOM      9  C   UNL d   1      31.811  15.984 -23.733  0.00  0.00     0.123 A 
ATOM     10  C   UNL d   1      31.175  16.426 -24.014  0.00  0.00     0.029 A 
ATOM     11  C   UNL d   1      31.368  17.220 -23.974  0.00  0.00     0.028 A 
ENDBRANCH   2   7
TORSDOF 1
ENDMDL
