MODEL 1
REMARK VINA RESULT:      44.7      0.000      0.000
REMARK  7 active torsions:
REMARK  status: ('A' for Active; 'I' for Inactive)
REMARK    1  A    between atoms: S_10  and  C_9 
REMARK    2  A    between atoms: C_15  and  S_10 
REMARK    3  A    between atoms: C_11  and  C_15 
REMARK       I    between atoms: N_16  and  C_11 
REMARK    4  A    between atoms: C_24  and  N_16 
REMARK    5  A    between atoms: C_21  and  C_24 
REMARK    6  A    between atoms: C_25  and  C_21 
REMARK    7  A    between atoms: O_23  and  C_25 
ROOT
ATOM      1  C   UNL d   1     -57.413 -98.760 -44.085  0.00  0.00     0.004 A 
ATOM      2  C   UNL d   1     -57.569 -98.760 -44.886  0.00  0.00     0.000 A 
ATOM      3  C   UNL d   1     -58.027 -98.759 -43.530  0.00  0.00     0.039 A 
ATOM      4  C   UNL d   1     -58.809 -98.758 -43.765  0.00  0.00     0.196 A 
ATOM      5  C   UNL d   1     -58.362 -98.759 -45.135  0.00  0.00     0.003 A 
ATOM      6  C   UNL d   1     -58.992 -98.758 -44.565  0.00  0.00     0.039 A 
ATOM      7  C   UNL d   1     -56.619 -98.761 -43.836  0.00  0.00     0.006 A 
ATOM      8  C   UNL d   1     -56.955 -98.760 -45.441  0.00  0.00     0.001 A 
ATOM      9  C   UNL d   1     -56.006 -98.762 -44.390  0.00  0.00     0.030 A 
ATOM     10  O   UNL d   1     -59.426 -98.757 -43.207  0.00  0.00    -0.287 OA
ATOM     11  C   UNL d   1     -56.190 -98.761 -45.190  0.00  0.00     0.006 A 
ATOM     12  C   UNL d   1     -57.860 -98.759 -42.715  0.00  0.00     0.003 A 
ATOM     13  C   UNL d   1     -58.529 -98.758 -45.949  0.00  0.00     0.000 A 
ATOM     14  C   UNL d   1     -59.769 -98.757 -44.828  0.00  0.00     0.003 A 
ATOM     15  C   UNL d   1     -56.452 -98.761 -43.022  0.00  0.00     0.001 A 
ATOM     16  C   UNL d   1     -57.024 -98.760 -42.461  0.00  0.00     0.000 A 
ATOM     17  C   UNL d   1     -59.956 -98.756 -45.632  0.00  0.00     0.000 A 
ATOM     18  C   UNL d   1     -59.301 -98.757 -46.224  0.00  0.00     0.000 A 
ENDROOT
BRANCH   9  19
ATOM     19  S   UNL d   1     -55.204 -98.763 -44.149  0.00  0.00    -0.081 SA
BRANCH  19  20
ATOM     20  C   UNL d   1     -54.724 -99.421 -44.307  0.00  0.00     0.098 C 
BRANCH  20  21
ATOM     21  C   UNL d   1     -55.040-100.110 -44.549  0.00  0.00     0.286 C 
ATOM     22  O   UNL d   1     -55.446-100.150 -45.262  0.00  0.00    -0.265 OA
ATOM     23  N   UNL d   1     -54.966-100.788 -44.093  0.00  0.00    -0.206 NA
BRANCH  23  24
ATOM     24  C   UNL d   1     -55.289-101.515 -44.329  0.00  0.00     0.104 C 
BRANCH  24  25
ATOM     25  C   UNL d   1     -54.911-102.203 -44.115  0.00  0.00     0.047 C 
BRANCH  25  26
ATOM     26  C   UNL d   1     -55.008-102.484 -43.351  0.00  0.00     0.118 C 
BRANCH  26  27
ATOM     27  O   UNL d   1     -54.959-101.990 -42.717  0.00  0.00    -0.326 OA
ATOM     28  C   UNL d   1     -54.731-102.268 -41.979  0.00  0.00     0.181 C 
ENDBRANCH  26  27
ENDBRANCH  25  26
ENDBRANCH  24  25
ENDBRANCH  23  24
ENDBRANCH  20  21
ENDBRANCH  19  20
ENDBRANCH   9  19
TORSDOF 7
ENDMDL
