MODEL 1
REMARK VINA RESULT:      43.4      0.000      0.000
REMARK  3 active torsions:
REMARK  status: ('A' for Active; 'I' for Inactive)
REMARK    1  A    between atoms: C_4  and  C_1 
REMARK       I    between atoms: N_8  and  C_4 
REMARK    2  A    between atoms: C_15  and  C_11 
REMARK    3  A    between atoms: C_12  and  C_15 
ROOT
ATOM      1  C   UNL d   1     -57.768 -98.767 -44.057  0.00  0.00     0.120 A 
ATOM      2  C   UNL d   1     -57.295 -98.763 -43.376  0.00  0.00     0.305 A 
ATOM      3  O   UNL d   1     -56.460 -98.767 -43.448  0.00  0.00    -0.273 OA
ATOM      4  C   UNL d   1     -57.416 -98.775 -44.818  0.00  0.00     0.012 A 
ATOM      5  C   UNL d   1     -56.111 -98.774 -44.191  0.00  0.00     0.103 A 
ATOM      6  C   UNL d   1     -56.589 -98.778 -44.879  0.00  0.00     0.023 A 
ATOM      7  O   UNL d   1     -57.642 -98.756 -42.629  0.00  0.00    -0.259 OA
ATOM      8  C   UNL d   1     -55.284 -98.778 -44.273  0.00  0.00     0.023 A 
ATOM      9  C   UNL d   1     -56.235 -98.786 -45.630  0.00  0.00     0.002 A 
ATOM     10  C   UNL d   1     -55.410 -98.789 -45.695  0.00  0.00     0.000 A 
ATOM     11  C   UNL d   1     -54.937 -98.785 -45.020  0.00  0.00     0.002 A 
ENDROOT
BRANCH   1  12
ATOM     12  C   UNL d   1     -58.588 -98.763 -43.987  0.00  0.00     0.270 C 
ATOM     13  N   UNL d   1     -59.064 -98.759 -44.659  0.00  0.00    -0.269 N 
ATOM     14  C   UNL d   1     -59.885 -98.755 -44.588  0.00  0.00     0.102 C 
ATOM     15  C   UNL d   1     -58.713 -98.757 -45.405  0.00  0.00     0.102 C 
ATOM     16  O   UNL d   1     -58.939 -98.765 -43.241  0.00  0.00    -0.266 OA
ENDBRANCH   1  12
BRANCH   8  17
ATOM     17  C   UNL d   1     -54.810 -98.774 -43.597  0.00  0.00     0.002 C 
BRANCH  17  18
ATOM     18  C   UNL d   1     -54.767 -99.444 -43.119  0.00  0.00     0.000 C 
ATOM     19  C   UNL d   1     -54.811-100.195 -43.455  0.00  0.00     0.000 C 
ENDBRANCH  17  18
ENDBRANCH   8  17
TORSDOF 3
ENDMDL
MODEL 2
REMARK VINA RESULT:      45.8      1.073      1.876
REMARK  3 active torsions:
REMARK  status: ('A' for Active; 'I' for Inactive)
REMARK    1  A    between atoms: C_4  and  C_1 
REMARK       I    between atoms: N_8  and  C_4 
REMARK    2  A    between atoms: C_15  and  C_11 
REMARK    3  A    between atoms: C_12  and  C_15 
ROOT
ATOM      1  C   UNL d   1     -58.005 -98.826 -43.992  0.00  0.00     0.120 A 
ATOM      2  C   UNL d   1     -57.717 -98.786 -44.768  0.00  0.00     0.305 A 
ATOM      3  O   UNL d   1     -56.891 -98.776 -44.908  0.00  0.00    -0.273 OA
ATOM      4  C   UNL d   1     -57.473 -98.857 -43.344  0.00  0.00     0.012 A 
ATOM      5  C   UNL d   1     -56.367 -98.806 -44.276  0.00  0.00     0.103 A 
ATOM      6  C   UNL d   1     -56.658 -98.847 -43.491  0.00  0.00     0.023 A 
ATOM      7  O   UNL d   1     -58.240 -98.755 -45.404  0.00  0.00    -0.259 OA
ATOM      8  C   UNL d   1     -55.545 -98.797 -44.404  0.00  0.00     0.023 A 
ATOM      9  C   UNL d   1     -56.127 -98.878 -42.853  0.00  0.00     0.002 A 
ATOM     10  C   UNL d   1     -55.312 -98.868 -42.997  0.00  0.00     0.000 A 
ATOM     11  C   UNL d   1     -55.022 -98.828 -43.767  0.00  0.00     0.002 A 
ENDROOT
BRANCH   1  12
ATOM     12  C   UNL d   1     -58.816 -98.836 -43.855  0.00  0.00     0.270 C 
ATOM     13  N   UNL d   1     -59.110 -98.808 -43.086  0.00  0.00    -0.269 N 
ATOM     14  C   UNL d   1     -59.923 -98.817 -42.949  0.00  0.00     0.102 C 
ATOM     15  C   UNL d   1     -58.584 -98.770 -42.452  0.00  0.00     0.102 C 
ATOM     16  O   UNL d   1     -59.342 -98.874 -44.489  0.00  0.00    -0.266 OA
ENDBRANCH   1  12
BRANCH   8  17
ATOM     17  C   UNL d   1     -55.256 -98.757 -45.175  0.00  0.00     0.002 C 
BRANCH  17  18
ATOM     18  C   UNL d   1     -54.991 -99.440 -45.553  0.00  0.00     0.000 C 
ATOM     19  C   UNL d   1     -54.869 -99.440 -46.368  0.00  0.00     0.000 C 
ENDBRANCH  17  18
ENDBRANCH   8  17
TORSDOF 3
ENDMDL
