MODEL 1
REMARK VINA RESULT:      -3.5      0.000      0.000
REMARK  5 active torsions:
REMARK  status: ('A' for Active; 'I' for Inactive)
REMARK    1  A    between atoms: O_8  and  C_2 
REMARK    2  A    between atoms: C_10  and  C_3 
REMARK    3  A    between atoms: C_14  and  O_8 
REMARK    4  A    between atoms: N_9  and  C_10 
REMARK    5  A    between atoms: O_23  and  C_17 
ROOT
ATOM      1  C   UNL d   1      58.588   0.165  30.848  0.00  0.00     0.108 A 
ATOM      2  C   UNL d   1      57.480   0.268  32.087  0.00  0.00     0.164 A 
ATOM      3  C   UNL d   1      59.145   0.116  30.240  0.00  0.00     0.079 A 
ATOM      4  C   UNL d   1      58.830   0.400  31.614  0.00  0.00     0.064 A 
ATOM      5  C   UNL d   1      58.284   0.451  32.227  0.00  0.00     0.222 A 
ATOM      6  O   UNL d   1      57.796  -0.017  30.704  0.00  0.00    -0.303 OA
ATOM      7  C   UNL d   1      57.238   0.034  31.325  0.00  0.00     0.150 A 
ATOM      8  C   UNL d   1      59.633   0.582  31.751  0.00  0.00     0.009 A 
ATOM      9  C   UNL d   1      59.934   0.295  30.374  0.00  0.00     0.199 A 
ATOM     10  O   UNL d   1      58.518   0.682  32.984  0.00  0.00    -0.284 OA
ATOM     11  C   UNL d   1      60.181   0.530  31.138  0.00  0.00     0.042 A 
ATOM     12  O   UNL d   1      60.485   0.248  29.772  0.00  0.00    -0.286 OA
ENDROOT
BRANCH   2  13
ATOM     13  O   UNL d   1      56.932   0.319  32.699  0.00  0.00    -0.300 OA
BRANCH  13  14
ATOM     14  C   UNL d   1      56.407  -0.295  32.825  0.00  0.00     0.122 A 
ATOM     15  C   UNL d   1      55.754  -0.184  33.302  0.00  0.00     0.117 A 
ATOM     16  C   UNL d   1      55.227  -0.800  33.429  0.00  0.00     0.026 A 
ATOM     17  C   UNL d   1      55.362  -1.532  33.071  0.00  0.00     0.002 A 
ATOM     18  C   UNL d   1      56.015  -1.644  32.593  0.00  0.00     0.002 A 
ATOM     19  C   UNL d   1      56.545  -1.024  32.466  0.00  0.00     0.027 A 
BRANCH  15  20
ATOM     20  O   UNL d   1      55.629   0.550  33.654  0.00  0.00    -0.326 OA
ATOM     21  C   UNL d   1      54.959   0.679  34.118  0.00  0.00     0.181 C 
ENDBRANCH  15  20
ENDBRANCH  13  14
ENDBRANCH   2  13
BRANCH   3  22
ATOM     22  C   UNL d   1      58.903  -0.114  29.491  0.00  0.00     0.086 C 
BRANCH  22  23
ATOM     23  N   UNL d   1      59.042  -0.888  29.232  0.00  0.00    -0.300 N 
ATOM     24  C   UNL d   1      59.807  -1.118  29.026  0.00  0.00     0.100 A 
ATOM     25  C   UNL d   1      59.946  -1.887  28.768  0.00  0.00     0.100 A 
ATOM     26  N   UNL d   1      59.321  -2.426  28.717  0.00  0.00    -0.299 N 
ATOM     27  C   UNL d   1      58.558  -2.192  28.924  0.00  0.00     0.100 A 
ATOM     28  C   UNL d   1      59.460  -3.196  28.459  0.00  0.00     0.100 C 
ATOM     29  C   UNL d   1      58.412  -1.416  29.185  0.00  0.00     0.100 A 
ENDBRANCH  22  23
ENDBRANCH   3  22
TORSDOF 5
ENDMDL
MODEL 2
REMARK VINA RESULT:      -0.9      1.168      1.689
REMARK  5 active torsions:
REMARK  status: ('A' for Active; 'I' for Inactive)
REMARK    1  A    between atoms: O_8  and  C_2 
REMARK    2  A    between atoms: C_10  and  C_3 
REMARK    3  A    between atoms: C_14  and  O_8 
REMARK    4  A    between atoms: N_9  and  C_10 
REMARK    5  A    between atoms: O_23  and  C_17 
ROOT
ATOM      1  C   UNL d   1      58.774  -0.414  30.219  0.00  0.00     0.108 A 
ATOM      2  C   UNL d   1      57.487  -0.018  31.199  0.00  0.00     0.164 A 
ATOM      3  C   UNL d   1      59.408  -0.606  29.726  0.00  0.00     0.079 A 
ATOM      4  C   UNL d   1      58.137   0.039  29.919  0.00  0.00     0.064 A 
ATOM      5  C   UNL d   1      57.500   0.235  30.402  0.00  0.00     0.222 A 
ATOM      6  O   UNL d   1      58.765  -0.667  31.005  0.00  0.00    -0.303 OA
ATOM      7  C   UNL d   1      58.120  -0.469  31.498  0.00  0.00     0.150 A 
ATOM      8  C   UNL d   1      58.154   0.290  29.123  0.00  0.00     0.009 A 
ATOM      9  C   UNL d   1      59.425  -0.360  28.944  0.00  0.00     0.199 A 
ATOM     10  O   UNL d   1      56.871   0.681  30.109  0.00  0.00    -0.284 OA
ATOM     11  C   UNL d   1      58.791   0.093  28.639  0.00  0.00     0.042 A 
ATOM     12  O   UNL d   1      60.052  -0.549  28.456  0.00  0.00    -0.286 OA
ENDROOT
BRANCH   2  13
ATOM     13  O   UNL d   1      56.850   0.177  31.683  0.00  0.00    -0.300 OA
BRANCH  13  14
ATOM     14  C   UNL d   1      56.556  -0.375  32.208  0.00  0.00     0.122 A 
ATOM     15  C   UNL d   1      56.594  -0.235  33.012  0.00  0.00     0.117 A 
ATOM     16  C   UNL d   1      56.299  -0.790  33.541  0.00  0.00     0.026 A 
ATOM     17  C   UNL d   1      55.965  -1.489  33.254  0.00  0.00     0.002 A 
ATOM     18  C   UNL d   1      55.928  -1.630  32.450  0.00  0.00     0.002 A 
ATOM     19  C   UNL d   1      56.225  -1.072  31.919  0.00  0.00     0.027 A 
BRANCH  15  20
ATOM     20  O   UNL d   1      56.928   0.465  33.287  0.00  0.00    -0.326 OA
ATOM     21  C   UNL d   1      56.860   0.672  34.083  0.00  0.00     0.181 C 
ENDBRANCH  15  20
ENDBRANCH  13  14
ENDBRANCH   2  13
BRANCH   3  22
ATOM     22  C   UNL d   1      60.029  -1.050  30.024  0.00  0.00     0.086 C 
BRANCH  22  23
ATOM     23  N   UNL d   1      60.162  -1.817  29.742  0.00  0.00    -0.300 N 
ATOM     24  C   UNL d   1      59.521  -2.313  29.589  0.00  0.00     0.100 A 
ATOM     25  C   UNL d   1      59.652  -3.075  29.309  0.00  0.00     0.100 A 
ATOM     26  N   UNL d   1      60.424  -3.342  29.180  0.00  0.00    -0.299 N 
ATOM     27  C   UNL d   1      61.062  -2.843  29.334  0.00  0.00     0.100 A 
ATOM     28  C   UNL d   1      60.555  -4.105  28.899  0.00  0.00     0.100 C 
ATOM     29  C   UNL d   1      60.935  -2.072  29.618  0.00  0.00     0.100 A 
ENDBRANCH  22  23
ENDBRANCH   3  22
TORSDOF 5
ENDMDL
MODEL 3
REMARK VINA RESULT:      -0.7      1.917      5.253
REMARK  5 active torsions:
REMARK  status: ('A' for Active; 'I' for Inactive)
REMARK    1  A    between atoms: O_8  and  C_2 
REMARK    2  A    between atoms: C_10  and  C_3 
REMARK    3  A    between atoms: C_14  and  O_8 
REMARK    4  A    between atoms: N_9  and  C_10 
REMARK    5  A    between atoms: O_23  and  C_17 
ROOT
ATOM      1  C   UNL d   1      57.032  -0.095  31.633  0.00  0.00     0.108 A 
ATOM      2  C   UNL d   1      58.171  -0.178  30.421  0.00  0.00     0.164 A 
ATOM      3  C   UNL d   1      56.465  -0.064  32.233  0.00  0.00     0.079 A 
ATOM      4  C   UNL d   1      57.167  -0.815  31.228  0.00  0.00     0.064 A 
ATOM      5  C   UNL d   1      57.730  -0.858  30.629  0.00  0.00     0.222 A 
ATOM      6  O   UNL d   1      57.464   0.579  31.432  0.00  0.00    -0.303 OA
ATOM      7  C   UNL d   1      58.037   0.539  30.823  0.00  0.00     0.150 A 
ATOM      8  C   UNL d   1      56.726  -1.492  31.438  0.00  0.00     0.009 A 
ATOM      9  C   UNL d   1      56.030  -0.728  32.440  0.00  0.00     0.199 A 
ATOM     10  O   UNL d   1      57.867  -1.565  30.228  0.00  0.00    -0.284 OA
ATOM     11  C   UNL d   1      56.163  -1.450  32.038  0.00  0.00     0.042 A 
ATOM     12  O   UNL d   1      55.470  -0.697  33.033  0.00  0.00    -0.286 OA
ENDROOT
BRANCH   2  13
ATOM     13  O   UNL d   1      58.734  -0.219  29.821  0.00  0.00    -0.300 OA
BRANCH  13  14
ATOM     14  C   UNL d   1      59.511  -0.025  29.983  0.00  0.00     0.122 A 
ATOM     15  C   UNL d   1      60.113  -0.337  29.527  0.00  0.00     0.117 A 
ATOM     16  C   UNL d   1      60.895  -0.143  29.689  0.00  0.00     0.026 A 
ATOM     17  C   UNL d   1      61.066   0.370  30.314  0.00  0.00     0.002 A 
ATOM     18  C   UNL d   1      60.464   0.682  30.769  0.00  0.00     0.002 A 
ATOM     19  C   UNL d   1      59.679   0.486  30.607  0.00  0.00     0.027 A 
BRANCH  15  20
ATOM     20  O   UNL d   1      59.930  -0.847  28.907  0.00  0.00    -0.326 OA
ATOM     21  C   UNL d   1      60.522  -1.303  28.558  0.00  0.00     0.181 C 
ENDBRANCH  15  20
ENDBRANCH  13  14
ENDBRANCH   2  13
BRANCH   3  22
ATOM     22  C   UNL d   1      56.335   0.644  32.626  0.00  0.00     0.086 C 
BRANCH  22  23
ATOM     23  N   UNL d   1      56.222   0.646  33.446  0.00  0.00    -0.300 N 
ATOM     24  C   UNL d   1      56.876   0.655  33.949  0.00  0.00     0.100 A 
ATOM     25  C   UNL d   1      56.765   0.657  34.764  0.00  0.00     0.100 A 
ATOM     26  N   UNL d   1      55.999   0.649  35.078  0.00  0.00    -0.299 N 
ATOM     27  C   UNL d   1      55.348   0.640  34.572  0.00  0.00     0.100 A 
ATOM     28  C   UNL d   1      55.888   0.651  35.893  0.00  0.00     0.100 C 
ATOM     29  C   UNL d   1      55.455   0.638  33.747  0.00  0.00     0.100 A 
ENDBRANCH  22  23
ENDBRANCH   3  22
TORSDOF 5
ENDMDL
