MODEL 1
REMARK VINA RESULT:      -3.7      0.000      0.000
REMARK  4 active torsions:
REMARK  status: ('A' for Active; 'I' for Inactive)
REMARK    1  A    between atoms: C_4  and  C_3 
REMARK    2  A    between atoms: C_5  and  C_4 
REMARK    3  A    between atoms: C_9  and  C_5 
REMARK    4  A    between atoms: C_13  and  C_9 
ROOT
ATOM      1  N   UNL d   1      32.785  18.856 -24.465  0.00  0.00    -0.234 NA
ATOM      2  C   UNL d   1      32.960  19.410 -23.879  0.00  0.00     0.138 A 
ATOM      3  C   UNL d   1      32.854  19.216 -23.083  0.00  0.00     0.029 A 
ATOM      4  C   UNL d   1      32.505  18.108 -24.257  0.00  0.00     0.082 A 
ATOM      5  C   UNL d   1      32.399  17.914 -23.461  0.00  0.00     0.018 A 
ATOM      6  C   UNL d   1      32.581  18.481 -22.927  0.00  0.00     0.004 A 
ATOM      7  C   UNL d   1      32.125  17.180 -23.304  0.00  0.00     0.002 A 
ATOM      8  C   UNL d   1      32.330  17.555 -24.842  0.00  0.00     0.019 A 
ATOM      9 CL   UNL d   1      33.241  20.157 -24.087  0.00  0.00    -0.061 Cl
ATOM     10  C   UNL d   1      31.944  16.614 -23.838  0.00  0.00     0.000 A 
ATOM     11  C   UNL d   1      32.049  16.808 -24.634  0.00  0.00     0.002 A 
ATOM     12  C   UNL d   1      31.679  15.904 -23.675  0.00  0.00     0.000 C 
ENDROOT
BRANCH   3  13
ATOM     13  C   UNL d   1      33.036  19.782 -22.549  0.00  0.00     0.006 C 
BRANCH  13  14
ATOM     14  C   UNL d   1      32.845  20.387 -22.022  0.00  0.00     0.042 C 
BRANCH  14  15
ATOM     15  C   UNL d   1      32.962  20.519 -21.223  0.00  0.00     0.196 C 
ATOM     16  O   UNL d   1      33.212  19.901 -20.735  0.00  0.00    -0.287 OA
BRANCH  15  17
ATOM     17  C   UNL d   1      32.835  21.255 -20.898  0.00  0.00     0.039 A 
ATOM     18  C   UNL d   1      32.307  21.786 -21.242  0.00  0.00     0.003 A 
ATOM     19  C   UNL d   1      32.193  22.526 -20.897  0.00  0.00     0.000 A 
ATOM     20  C   UNL d   1      32.601  22.744 -20.210  0.00  0.00     0.000 A 
ATOM     21  C   UNL d   1      33.125  22.220 -19.867  0.00  0.00     0.000 A 
ATOM     22  C   UNL d   1      33.241  21.473 -20.214  0.00  0.00     0.003 A 
ENDBRANCH  15  17
ENDBRANCH  14  15
ENDBRANCH  13  14
ENDBRANCH   3  13
TORSDOF 4
ENDMDL
MODEL 2
REMARK VINA RESULT:      -3.7      1.519      5.084
REMARK  4 active torsions:
REMARK  status: ('A' for Active; 'I' for Inactive)
REMARK    1  A    between atoms: C_4  and  C_3 
REMARK    2  A    between atoms: C_5  and  C_4 
REMARK    3  A    between atoms: C_9  and  C_5 
REMARK    4  A    between atoms: C_13  and  C_9 
ROOT
ATOM      1  N   UNL d   1      33.102  20.632 -20.670  0.00  0.00    -0.234 NA
ATOM      2  C   UNL d   1      33.090  20.001 -21.202  0.00  0.00     0.138 A 
ATOM      3  C   UNL d   1      32.925  20.138 -22.000  0.00  0.00     0.029 A 
ATOM      4  C   UNL d   1      32.951  21.399 -20.933  0.00  0.00     0.082 A 
ATOM      5  C   UNL d   1      32.786  21.536 -21.731  0.00  0.00     0.018 A 
ATOM      6  C   UNL d   1      32.784  20.896 -22.211  0.00  0.00     0.004 A 
ATOM      7  C   UNL d   1      32.646  22.293 -21.943  0.00  0.00     0.002 A 
ATOM      8  C   UNL d   1      32.964  22.029 -20.402  0.00  0.00     0.019 A 
ATOM      9 CL   UNL d   1      33.241  19.235 -20.938  0.00  0.00    -0.061 Cl
ATOM     10  C   UNL d   1      32.648  22.932 -21.463  0.00  0.00     0.000 A 
ATOM     11  C   UNL d   1      32.813  22.795 -20.666  0.00  0.00     0.002 A 
ATOM     12  C   UNL d   1      32.510  23.664 -21.680  0.00  0.00     0.000 C 
ENDROOT
BRANCH   3  13
ATOM     13  C   UNL d   1      32.922  19.500 -22.479  0.00  0.00     0.006 C 
BRANCH  13  14
ATOM     14  C   UNL d   1      32.551  18.898 -22.905  0.00  0.00     0.042 C 
BRANCH  14  15
ATOM     15  C   UNL d   1      32.643  18.573 -23.650  0.00  0.00     0.196 C 
ATOM     16  O   UNL d   1      33.241  18.849 -24.150  0.00  0.00    -0.287 OA
BRANCH  15  17
ATOM     17  C   UNL d   1      32.152  17.977 -23.910  0.00  0.00     0.039 A 
ATOM     18  C   UNL d   1      32.110  17.258 -23.512  0.00  0.00     0.003 A 
ATOM     19  C   UNL d   1      31.606  16.668 -23.792  0.00  0.00     0.000 A 
ATOM     20  C   UNL d   1      31.141  16.788 -24.466  0.00  0.00     0.000 A 
ATOM     21  C   UNL d   1      31.180  17.500 -24.863  0.00  0.00     0.000 A 
ATOM     22  C   UNL d   1      31.688  18.096 -24.582  0.00  0.00     0.003 A 
ENDBRANCH  15  17
ENDBRANCH  14  15
ENDBRANCH  13  14
ENDBRANCH   3  13
TORSDOF 4
ENDMDL
MODEL 3
REMARK VINA RESULT:      -2.2      1.606      5.323
REMARK  4 active torsions:
REMARK  status: ('A' for Active; 'I' for Inactive)
REMARK    1  A    between atoms: C_4  and  C_3 
REMARK    2  A    between atoms: C_5  and  C_4 
REMARK    3  A    between atoms: C_9  and  C_5 
REMARK    4  A    between atoms: C_13  and  C_9 
ROOT
ATOM      1  N   UNL d   1      32.692  23.110 -20.938  0.00  0.00    -0.234 NA
ATOM      2  C   UNL d   1      32.848  22.488 -21.457  0.00  0.00     0.138 A 
ATOM      3  C   UNL d   1      33.102  21.759 -21.162  0.00  0.00     0.029 A 
ATOM      4  C   UNL d   1      32.789  23.006 -20.126  0.00  0.00     0.082 A 
ATOM      5  C   UNL d   1      33.042  22.277 -19.831  0.00  0.00     0.018 A 
ATOM      6  C   UNL d   1      33.182  21.702 -20.369  0.00  0.00     0.004 A 
ATOM      7  C   UNL d   1      33.122  22.220 -19.038  0.00  0.00     0.002 A 
ATOM      8  C   UNL d   1      32.633  23.628 -19.608  0.00  0.00     0.019 A 
ATOM      9 CL   UNL d   1      32.752  22.593 -22.269  0.00  0.00    -0.061 Cl
ATOM     10  C   UNL d   1      32.983  22.794 -18.501  0.00  0.00     0.000 A 
ATOM     11  C   UNL d   1      32.730  23.523 -18.796  0.00  0.00     0.002 A 
ATOM     12  C   UNL d   1      33.064  22.727 -17.733  0.00  0.00     0.000 C 
ENDROOT
BRANCH   3  13
ATOM     13  C   UNL d   1      33.241  21.185 -21.699  0.00  0.00     0.006 C 
BRANCH  13  14
ATOM     14  C   UNL d   1      33.014  20.555 -22.182  0.00  0.00     0.042 C 
BRANCH  14  15
ATOM     15  C   UNL d   1      33.052  19.740 -22.129  0.00  0.00     0.196 C 
ATOM     16  O   UNL d   1      33.234  19.381 -21.406  0.00  0.00    -0.287 OA
BRANCH  15  17
ATOM     17  C   UNL d   1      32.913  19.271 -22.781  0.00  0.00     0.039 A 
ATOM     18  C   UNL d   1      32.983  19.573 -23.543  0.00  0.00     0.003 A 
ATOM     19  C   UNL d   1      32.838  19.082 -24.190  0.00  0.00     0.000 A 
ATOM     20  C   UNL d   1      32.623  18.289 -24.083  0.00  0.00     0.000 A 
ATOM     21  C   UNL d   1      32.553  17.987 -23.329  0.00  0.00     0.000 A 
ATOM     22  C   UNL d   1      32.699  18.481 -22.676  0.00  0.00     0.003 A 
ENDBRANCH  15  17
ENDBRANCH  14  15
ENDBRANCH  13  14
ENDBRANCH   3  13
TORSDOF 4
ENDMDL
