MODEL 1
REMARK VINA RESULT:      -5.3      0.000      0.000
REMARK  3 active torsions:
REMARK  status: ('A' for Active; 'I' for Inactive)
REMARK    1  A    between atoms: C_10  and  C_4 
REMARK    2  A    between atoms: C_13  and  C_10 
REMARK    3  A    between atoms: C_11  and  C_13 
ROOT
ATOM      1  C   UNL d   1     -41.249-123.346 -51.977  0.00  0.00     0.752 A 
ATOM      2  N   UNL d   1     -41.411-122.539 -52.004  0.00  0.00    -0.056 N 
ATOM      3  N   UNL d   1     -41.162-123.763 -52.682  0.00  0.00    -0.059 NA
ATOM      4  C   UNL d   1     -41.398-122.570 -53.430  0.00  0.00     0.037 A 
ATOM      5  C   UNL d   1     -41.487-122.145 -52.729  0.00  0.00     0.102 A 
ATOM      6  N   UNL d   1     -41.207-123.572 -51.195  0.00  0.00    -0.035 NA
ATOM      7  C   UNL d   1     -41.236-123.379 -53.407  0.00  0.00     0.101 A 
ATOM      8  N   UNL d   1     -41.469-122.270 -51.228  0.00  0.00    -0.127 NA
ATOM      9  C   UNL d   1     -41.343-122.910 -50.719  0.00  0.00     0.239 A 
ATOM     10  C   UNL d   1     -41.648-121.344 -52.749  0.00  0.00     0.021 C 
ATOM     11  C   UNL d   1     -41.147-123.804 -54.108  0.00  0.00     0.021 C 
ENDROOT
BRANCH   4  12
ATOM     12  C   UNL d   1     -41.470-122.193 -54.152  0.00  0.00     0.009 C 
BRANCH  12  13
ATOM     13  C   UNL d   1     -42.185-122.216 -54.563  0.00  0.00     0.070 C 
BRANCH  13  14
ATOM     14  C   UNL d   1     -42.238-121.879 -55.314  0.00  0.00     0.211 C 
ATOM     15  O   UNL d   1     -42.956-121.881 -55.720  0.00  0.00    -0.644 OA
ATOM     16  O   UNL d   1     -41.572-121.540 -55.661  0.00  0.00    -0.644 OA
ENDBRANCH  13  14
ENDBRANCH  12  13
ENDBRANCH   4  12
TORSDOF 3
ENDMDL
MODEL 2
REMARK VINA RESULT:      -4.7      2.591      3.792
REMARK  3 active torsions:
REMARK  status: ('A' for Active; 'I' for Inactive)
REMARK    1  A    between atoms: C_10  and  C_4 
REMARK    2  A    between atoms: C_13  and  C_10 
REMARK    3  A    between atoms: C_11  and  C_13 
ROOT
ATOM      1  C   UNL d   1     -41.167-122.180 -53.150  0.00  0.00     0.752 A 
ATOM      2  N   UNL d   1     -41.164-122.941 -52.834  0.00  0.00    -0.056 N 
ATOM      3  N   UNL d   1     -41.172-121.533 -52.641  0.00  0.00    -0.059 NA
ATOM      4  C   UNL d   1     -41.170-122.406 -51.512  0.00  0.00     0.037 A 
ATOM      5  C   UNL d   1     -41.165-123.060 -52.014  0.00  0.00     0.102 A 
ATOM      6  N   UNL d   1     -41.165-122.242 -53.963  0.00  0.00    -0.035 NA
ATOM      7  C   UNL d   1     -41.173-121.643 -51.825  0.00  0.00     0.101 A 
ATOM      8  N   UNL d   1     -41.160-123.472 -53.462  0.00  0.00    -0.127 NA
ATOM      9  C   UNL d   1     -41.161-123.042 -54.169  0.00  0.00     0.239 A 
ATOM     10  C   UNL d   1     -41.162-123.817 -51.707  0.00  0.00     0.021 C 
ATOM     11  C   UNL d   1     -41.177-120.989 -51.322  0.00  0.00     0.021 C 
ENDROOT
BRANCH   4  12
ATOM     12  C   UNL d   1     -41.171-122.510 -50.700  0.00  0.00     0.009 C 
BRANCH  12  13
ATOM     13  C   UNL d   1     -41.883-122.584 -50.292  0.00  0.00     0.070 C 
BRANCH  13  14
ATOM     14  C   UNL d   1     -41.878-122.742 -49.483  0.00  0.00     0.211 C 
ATOM     15  O   UNL d   1     -41.164-122.818 -49.078  0.00  0.00    -0.644 OA
ATOM     16  O   UNL d   1     -42.590-122.825 -49.075  0.00  0.00    -0.644 OA
ENDBRANCH  13  14
ENDBRANCH  12  13
ENDBRANCH   4  12
TORSDOF 3
ENDMDL
MODEL 3
REMARK VINA RESULT:      -4.1      0.894      1.700
REMARK  3 active torsions:
REMARK  status: ('A' for Active; 'I' for Inactive)
REMARK    1  A    between atoms: C_10  and  C_4 
REMARK    2  A    between atoms: C_13  and  C_10 
REMARK    3  A    between atoms: C_11  and  C_13 
ROOT
ATOM      1  C   UNL d   1     -41.209-122.488 -50.771  0.00  0.00     0.752 A 
ATOM      2  N   UNL d   1     -41.185-123.174 -51.226  0.00  0.00    -0.056 N 
ATOM      3  N   UNL d   1     -41.204-121.755 -51.146  0.00  0.00    -0.059 NA
ATOM      4  C   UNL d   1     -41.152-122.395 -52.421  0.00  0.00     0.037 A 
ATOM      5  C   UNL d   1     -41.157-123.133 -52.053  0.00  0.00     0.102 A 
ATOM      6  N   UNL d   1     -41.234-122.704 -49.985  0.00  0.00    -0.035 NA
ATOM      7  C   UNL d   1     -41.176-121.706 -51.968  0.00  0.00     0.101 A 
ATOM      8  N   UNL d   1     -41.196-123.816 -50.712  0.00  0.00    -0.127 NA
ATOM      9  C   UNL d   1     -41.227-123.529 -49.936  0.00  0.00     0.239 A 
ATOM     10  C   UNL d   1     -41.133-123.817 -52.500  0.00  0.00     0.021 C 
ATOM     11  C   UNL d   1     -41.171-120.968 -52.336  0.00  0.00     0.021 C 
ENDROOT
BRANCH   4  12
ATOM     12  C   UNL d   1     -41.124-122.341 -53.237  0.00  0.00     0.009 C 
BRANCH  12  13
ATOM     13  C   UNL d   1     -41.800-122.138 -53.663  0.00  0.00     0.070 C 
BRANCH  13  14
ATOM     14  C   UNL d   1     -41.833-122.282 -54.474  0.00  0.00     0.211 C 
ATOM     15  O   UNL d   1     -42.531-122.551 -54.820  0.00  0.00    -0.644 OA
ATOM     16  O   UNL d   1     -41.166-122.157 -54.942  0.00  0.00    -0.644 OA
ENDBRANCH  13  14
ENDBRANCH  12  13
ENDBRANCH   4  12
TORSDOF 3
ENDMDL
MODEL 4
REMARK VINA RESULT:      -4.0      2.345      3.227
REMARK  3 active torsions:
REMARK  status: ('A' for Active; 'I' for Inactive)
REMARK    1  A    between atoms: C_10  and  C_4 
REMARK    2  A    between atoms: C_13  and  C_10 
REMARK    3  A    between atoms: C_11  and  C_13 
ROOT
ATOM      1  C   UNL d   1     -41.807-122.636 -54.721  0.00  0.00     0.752 A 
ATOM      2  N   UNL d   1     -41.945-121.910 -54.356  0.00  0.00    -0.056 N 
ATOM      3  N   UNL d   1     -41.533-123.268 -54.271  0.00  0.00    -0.059 NA
ATOM      4  C   UNL d   1     -41.537-122.451 -53.100  0.00  0.00     0.037 A 
ATOM      5  C   UNL d   1     -41.812-121.812 -53.544  0.00  0.00     0.102 A 
ATOM      6  N   UNL d   1     -41.987-122.561 -55.513  0.00  0.00    -0.035 NA
ATOM      7  C   UNL d   1     -41.398-123.179 -53.463  0.00  0.00     0.101 A 
ATOM      8  N   UNL d   1     -42.212-121.387 -54.932  0.00  0.00    -0.127 NA
ATOM      9  C   UNL d   1     -42.240-121.787 -55.656  0.00  0.00     0.239 A 
ATOM     10  C   UNL d   1     -41.951-121.090 -53.187  0.00  0.00     0.021 C 
ATOM     11  C   UNL d   1     -41.124-123.817 -53.019  0.00  0.00     0.021 C 
ENDROOT
BRANCH   4  12
ATOM     12  C   UNL d   1     -41.402-122.367 -52.298  0.00  0.00     0.009 C 
BRANCH  12  13
ATOM     13  C   UNL d   1     -42.008-122.509 -51.757  0.00  0.00     0.070 C 
BRANCH  13  14
ATOM     14  C   UNL d   1     -41.883-122.368 -50.954  0.00  0.00     0.211 C 
ATOM     15  O   UNL d   1     -42.515-122.394 -50.425  0.00  0.00    -0.644 OA
ATOM     16  O   UNL d   1     -41.125-122.201 -50.678  0.00  0.00    -0.644 OA
ENDBRANCH  13  14
ENDBRANCH  12  13
ENDBRANCH   4  12
TORSDOF 3
ENDMDL
MODEL 5
REMARK VINA RESULT:      -3.0      2.070      2.993
REMARK  3 active torsions:
REMARK  status: ('A' for Active; 'I' for Inactive)
REMARK    1  A    between atoms: C_10  and  C_4 
REMARK    2  A    between atoms: C_13  and  C_10 
REMARK    3  A    between atoms: C_11  and  C_13 
ROOT
ATOM      1  C   UNL d   1     -42.064-123.433 -49.071  0.00  0.00     0.752 A 
ATOM      2  N   UNL d   1     -42.565-122.810 -49.268  0.00  0.00    -0.056 N 
ATOM      3  N   UNL d   1     -41.585-123.765 -49.652  0.00  0.00    -0.059 NA
ATOM      4  C   UNL d   1     -42.110-122.855 -50.619  0.00  0.00     0.037 A 
ATOM      5  C   UNL d   1     -42.592-122.517 -50.042  0.00  0.00     0.102 A 
ATOM      6  N   UNL d   1     -42.160-123.597 -48.278  0.00  0.00    -0.035 NA
ATOM      7  C   UNL d   1     -41.606-123.479 -50.425  0.00  0.00     0.101 A 
ATOM      8  N   UNL d   1     -42.972-122.592 -48.587  0.00  0.00    -0.127 NA
ATOM      9  C   UNL d   1     -42.724-123.079 -47.966  0.00  0.00     0.239 A 
ATOM     10  C   UNL d   1     -43.092-121.898 -50.232  0.00  0.00     0.021 C 
ATOM     11  C   UNL d   1     -41.123-123.817 -51.002  0.00  0.00     0.021 C 
ENDROOT
BRANCH   4  12
ATOM     12  C   UNL d   1     -42.126-122.574 -51.387  0.00  0.00     0.009 C 
BRANCH  12  13
ATOM     13  C   UNL d   1     -41.456-122.225 -51.718  0.00  0.00     0.070 C 
BRANCH  13  14
ATOM     14  C   UNL d   1     -41.481-121.933 -52.488  0.00  0.00     0.211 C 
ATOM     15  O   UNL d   1     -41.798-122.392 -53.096  0.00  0.00    -0.644 OA
ATOM     16  O   UNL d   1     -41.190-121.180 -52.653  0.00  0.00    -0.644 OA
ENDBRANCH  13  14
ENDBRANCH  12  13
ENDBRANCH   4  12
TORSDOF 3
ENDMDL
