MODEL 1
REMARK VINA RESULT:      53.7      0.000      0.000
REMARK  10 active torsions:
REMARK  status: ('A' for Active; 'I' for Inactive)
REMARK       I    between atoms: N_8  and  C_1 
REMARK    1  A    between atoms: C_11  and  C_1 
REMARK    2  A    between atoms: C_2  and  C_12 
REMARK       I    between atoms: N_7  and  C_2 
REMARK    3  A    between atoms: C_3  and  C_19 
REMARK    4  A    between atoms: C_4  and  C_20 
REMARK    5  A    between atoms: C_19  and  N_7 
REMARK    6  A    between atoms: C_20  and  N_8 
REMARK    7  A    between atoms: C_23  and  C_11 
REMARK    8  A    between atoms: C_12  and  C_22 
REMARK    9  A    between atoms: S_21  and  C_23 
REMARK   10  A    between atoms: C_22  and  S_21 
ROOT
ATOM      1  S   UNL d   1      60.891  48.313  50.512  0.00  0.00    -0.086 SA
ENDROOT
BRANCH   1   2
ATOM      2  C   UNL d   1      61.055  47.672  49.996  0.00  0.00     0.040 C 
BRANCH   2   3
ATOM      3  C   UNL d   1      61.206  46.913  50.315  0.00  0.00     0.070 C 
BRANCH   3   4
ATOM      4  C   UNL d   1      61.733  46.396  49.901  0.00  0.00     0.280 C 
ATOM      5  N   UNL d   1      61.688  45.546  50.047  0.00  0.00    -0.204 NA
ATOM      6  O   UNL d   1      62.293  46.700  49.356  0.00  0.00    -0.265 OA
BRANCH   5   7
ATOM      7  C   UNL d   1      61.146  45.241  50.577  0.00  0.00     0.127 C 
BRANCH   7   8
ATOM      8  C   UNL d   1      61.296  44.539  50.982  0.00  0.00     0.119 A 
ATOM      9  O   UNL d   1      60.802  44.343  51.650  0.00  0.00    -0.304 OA
ATOM     10  C   UNL d   1      61.091  43.613  51.934  0.00  0.00     0.123 A 
ATOM     11  C   UNL d   1      61.716  43.355  51.491  0.00  0.00     0.029 A 
ATOM     12  C   UNL d   1      61.841  43.941  50.894  0.00  0.00     0.028 A 
ENDBRANCH   7   8
ENDBRANCH   5   7
ENDBRANCH   3   4
ENDBRANCH   2   3
ENDBRANCH   1   2
BRANCH   1  13
ATOM     13  C   UNL d   1      60.720  49.063  50.166  0.00  0.00     0.040 C 
BRANCH  13  14
ATOM     14  C   UNL d   1      60.466  49.708  50.662  0.00  0.00     0.070 C 
BRANCH  14  15
ATOM     15  C   UNL d   1      59.736  49.656  51.036  0.00  0.00     0.280 C 
ATOM     16  N   UNL d   1      59.024  49.565  50.551  0.00  0.00    -0.204 NA
ATOM     17  O   UNL d   1      59.656  49.689  51.868  0.00  0.00    -0.265 OA
BRANCH  16  18
ATOM     18  C   UNL d   1      58.314  49.515  50.932  0.00  0.00     0.127 C 
BRANCH  18  19
ATOM     19  C   UNL d   1      57.612  49.303  50.521  0.00  0.00     0.119 A 
ATOM     20  O   UNL d   1      57.138  48.645  50.671  0.00  0.00    -0.304 OA
ATOM     21  C   UNL d   1      56.488  48.671  50.106  0.00  0.00     0.123 A 
ATOM     22  C   UNL d   1      56.610  49.326  49.664  0.00  0.00     0.029 A 
ATOM     23  C   UNL d   1      57.268  49.705  49.900  0.00  0.00     0.028 A 
ENDBRANCH  18  19
ENDBRANCH  16  18
ENDBRANCH  14  15
ENDBRANCH  13  14
ENDBRANCH   1  13
TORSDOF 10
ENDMDL
MODEL 2
REMARK VINA RESULT:      55.9      0.916      5.895
REMARK  10 active torsions:
REMARK  status: ('A' for Active; 'I' for Inactive)
REMARK       I    between atoms: N_8  and  C_1 
REMARK    1  A    between atoms: C_11  and  C_1 
REMARK    2  A    between atoms: C_2  and  C_12 
REMARK       I    between atoms: N_7  and  C_2 
REMARK    3  A    between atoms: C_3  and  C_19 
REMARK    4  A    between atoms: C_4  and  C_20 
REMARK    5  A    between atoms: C_19  and  N_7 
REMARK    6  A    between atoms: C_20  and  N_8 
REMARK    7  A    between atoms: C_23  and  C_11 
REMARK    8  A    between atoms: C_12  and  C_22 
REMARK    9  A    between atoms: S_21  and  C_23 
REMARK   10  A    between atoms: C_22  and  S_21 
ROOT
ATOM      1  S   UNL d   1      60.930  48.106  50.534  0.00  0.00    -0.086 SA
ENDROOT
BRANCH   1   2
ATOM      2  C   UNL d   1      60.119  48.306  50.616  0.00  0.00     0.040 C 
BRANCH   2   3
ATOM      3  C   UNL d   1      59.887  49.109  50.592  0.00  0.00     0.070 C 
BRANCH   3   4
ATOM      4  C   UNL d   1      59.438  49.421  51.238  0.00  0.00     0.280 C 
ATOM      5  N   UNL d   1      58.631  49.694  51.095  0.00  0.00    -0.204 NA
ATOM      6  O   UNL d   1      59.768  49.468  52.008  0.00  0.00    -0.265 OA
BRANCH   5   7
ATOM      7  C   UNL d   1      58.302  49.653  50.348  0.00  0.00     0.127 C 
BRANCH   7   8
ATOM      8  C   UNL d   1      57.489  49.557  50.247  0.00  0.00     0.119 A 
ATOM      9  O   UNL d   1      57.157  49.708  49.475  0.00  0.00    -0.304 OA
ATOM     10  C   UNL d   1      56.338  49.565  49.554  0.00  0.00     0.123 A 
ATOM     11  C   UNL d   1      56.152  49.342  50.308  0.00  0.00     0.029 A 
ATOM     12  C   UNL d   1      56.879  49.338  50.740  0.00  0.00     0.028 A 
ENDBRANCH   7   8
ENDBRANCH   5   7
ENDBRANCH   3   4
ENDBRANCH   2   3
ENDBRANCH   1   2
BRANCH   1  13
ATOM     13  C   UNL d   1      61.130  47.471  50.017  0.00  0.00     0.040 C 
BRANCH  13  14
ATOM     14  C   UNL d   1      61.642  46.848  50.292  0.00  0.00     0.070 C 
BRANCH  14  15
ATOM     15  C   UNL d   1      61.745  46.183  49.821  0.00  0.00     0.280 C 
ATOM     16  N   UNL d   1      62.074  45.465  50.177  0.00  0.00    -0.204 NA
ATOM     17  O   UNL d   1      61.543  46.173  49.009  0.00  0.00    -0.265 OA
BRANCH  16  18
ATOM     18  C   UNL d   1      62.170  44.819  49.703  0.00  0.00     0.127 C 
BRANCH  18  19
ATOM     19  C   UNL d   1      62.227  44.045  50.026  0.00  0.00     0.119 A 
ATOM     20  O   UNL d   1      62.147  43.840  50.822  0.00  0.00    -0.304 OA
ATOM     21  C   UNL d   1      62.251  42.986  50.871  0.00  0.00     0.123 A 
ATOM     22  C   UNL d   1      62.385  42.740  50.123  0.00  0.00     0.029 A 
ATOM     23  C   UNL d   1      62.373  43.354  49.618  0.00  0.00     0.028 A 
ENDBRANCH  18  19
ENDBRANCH  16  18
ENDBRANCH  14  15
ENDBRANCH  13  14
ENDBRANCH   1  13
TORSDOF 10
ENDMDL
