MODEL 1
REMARK VINA RESULT:     102.5      0.000      0.000
REMARK  4 active torsions:
REMARK  status: ('A' for Active; 'I' for Inactive)
REMARK    1  A    between atoms: N_2  and  S_1 
REMARK    2  A    between atoms: C_3  and  S_1 
REMARK    3  A    between atoms: O_16  and  C_8 
REMARK    4  A    between atoms: O_17  and  C_11 
ROOT
ATOM      1  S   UNL d   1      61.289  46.959  50.496  0.00  0.00     0.271 S 
ATOM      2  O   UNL d   1      60.744  46.528  50.938  0.00  0.00    -0.200 OA
ATOM      3  O   UNL d   1      61.839  47.394  50.049  0.00  0.00    -0.200 OA
ENDROOT
BRANCH   1   4
ATOM      4  N   UNL d   1      61.495  46.277  50.079  0.00  0.00    -0.229 N 
ATOM      5  C   UNL d   1      61.283  45.536  50.373  0.00  0.00     0.092 A 
ATOM      6  C   UNL d   1      61.490  44.855  49.955  0.00  0.00     0.018 A 
ATOM      7  C   UNL d   1      61.277  44.113  50.250  0.00  0.00     0.002 A 
ATOM      8  C   UNL d   1      61.908  44.915  49.245  0.00  0.00     0.003 A 
ATOM      9  C   UNL d   1      61.484  43.432  49.832  0.00  0.00     0.000 A 
ATOM     10  C   UNL d   1      61.902  43.492  49.122  0.00  0.00     0.000 A 
ATOM     11  C   UNL d   1      62.114  44.233  48.828  0.00  0.00     0.000 A 
ATOM     12  C   UNL d   1      62.120  45.656  48.951  0.00  0.00     0.020 A 
ATOM     13  C   UNL d   1      61.913  46.337  49.369  0.00  0.00     0.092 A 
ENDBRANCH   1   4
BRANCH   1  14
ATOM     14  C   UNL d   1      61.089  47.640  50.907  0.00  0.00     0.106 A 
ATOM     15  C   UNL d   1      60.858  48.316  50.490  0.00  0.00     0.039 A 
ATOM     16  C   UNL d   1      60.657  49.001  50.899  0.00  0.00     0.117 A 
ATOM     17  C   UNL d   1      60.683  49.018  51.721  0.00  0.00     0.116 A 
ATOM     18  C   UNL d   1      60.913  48.342  52.139  0.00  0.00     0.027 A 
ATOM     19  C   UNL d   1      61.114  47.661  51.728  0.00  0.00     0.015 A 
BRANCH  16  20
ATOM     20  O   UNL d   1      60.427  49.676  50.481  0.00  0.00    -0.326 OA
ATOM     21  C   UNL d   1      59.679  49.708  50.126  0.00  0.00     0.181 C 
ENDBRANCH  16  20
BRANCH  17  22
ATOM     22  O   UNL d   1      60.480  49.708  52.131  0.00  0.00    -0.326 OA
ATOM     23  C   UNL d   1      60.354  49.682  52.946  0.00  0.00     0.181 C 
ENDBRANCH  17  22
ENDBRANCH   1  14
TORSDOF 4
ENDMDL
