MODEL 1
REMARK VINA RESULT:      12.4      0.000      0.000
REMARK  4 active torsions:
REMARK  status: ('A' for Active; 'I' for Inactive)
REMARK    1  A    between atoms: C_9  and  N_1 
REMARK    2  A    between atoms: C_2  and  N_5 
REMARK    3  A    between atoms: N_5  and  O_12 
REMARK    4  A    between atoms: O_12  and  C_16 
ROOT
ATOM      1  N   UNL d   1      46.368 -17.175  43.873  0.00  0.00    -0.126 NA
ENDROOT
BRANCH   1   2
ATOM      2  C   UNL d   1      46.343 -17.967  43.645  0.00  0.00     0.108 A 
ATOM      3  C   UNL d   1      46.299 -18.160  42.833  0.00  0.00     0.023 A 
ATOM      4  C   UNL d   1      46.274 -18.932  42.612  0.00  0.00     0.044 A 
ATOM      5  C   UNL d   1      46.279 -17.531  42.229  0.00  0.00     0.002 C 
ATOM      6  C   UNL d   1      46.293 -19.537  43.195  0.00  0.00     0.196 A 
ATOM      7  C   UNL d   1      46.336 -19.326  43.978  0.00  0.00     0.044 A 
ATOM      8  O   UNL d   1      46.268 -20.330  42.967  0.00  0.00    -0.287 OA
ATOM      9  C   UNL d   1      46.361 -18.533  44.205  0.00  0.00     0.023 A 
ATOM     10  C   UNL d   1      46.402 -18.361  44.950  0.00  0.00     0.002 C 
ENDBRANCH   1   2
BRANCH   1  11
ATOM     11  O   UNL d   1      45.791 -16.855  44.347  0.00  0.00    -0.211 OA
BRANCH  11  12
ATOM     12  C   UNL d   1      45.717 -16.054  44.434  0.00  0.00     0.125 A 
ATOM     13  C   UNL d   1      45.036 -15.732  44.795  0.00  0.00     0.029 A 
ATOM     14  C   UNL d   1      44.960 -14.915  44.884  0.00  0.00     0.026 A 
ATOM     15  C   UNL d   1      45.564 -14.410  44.611  0.00  0.00     0.127 A 
ATOM     16  C   UNL d   1      46.235 -14.728  44.255  0.00  0.00     0.026 A 
ATOM     17  C   UNL d   1      46.313 -15.562  44.165  0.00  0.00     0.029 A 
BRANCH  15  18
ATOM     18  N   UNL d   1      45.489 -13.604  44.698  0.00  0.00    -0.114 N 
ATOM     19  O   UNL d   1      44.809 -13.166  44.544  0.00  0.00    -0.532 OA
ATOM     20  O   UNL d   1      46.087 -13.118  44.954  0.00  0.00    -0.532 OA
ENDBRANCH  15  18
ENDBRANCH  11  12
ENDBRANCH   1  11
TORSDOF 4
ENDMDL
MODEL 2
REMARK VINA RESULT:      15.0      0.898      4.676
REMARK  4 active torsions:
REMARK  status: ('A' for Active; 'I' for Inactive)
REMARK    1  A    between atoms: C_9  and  N_1 
REMARK    2  A    between atoms: C_2  and  N_5 
REMARK    3  A    between atoms: N_5  and  O_12 
REMARK    4  A    between atoms: O_12  and  C_16 
ROOT
ATOM      1  N   UNL d   1      45.567 -16.074  43.961  0.00  0.00    -0.126 NA
ENDROOT
BRANCH   1   2
ATOM      2  C   UNL d   1      45.512 -15.290  44.211  0.00  0.00     0.108 A 
ATOM      3  C   UNL d   1      44.877 -15.060  44.704  0.00  0.00     0.023 A 
ATOM      4  C   UNL d   1      44.823 -14.296  44.947  0.00  0.00     0.044 A 
ATOM      5  C   UNL d   1      44.278 -15.642  44.955  0.00  0.00     0.002 C 
ATOM      6  C   UNL d   1      45.401 -13.736  44.705  0.00  0.00     0.196 A 
ATOM      7  C   UNL d   1      46.009 -13.982  44.226  0.00  0.00     0.044 A 
ATOM      8  O   UNL d   1      45.346 -12.952  44.955  0.00  0.00    -0.287 OA
ATOM      9  C   UNL d   1      46.064 -14.767  43.976  0.00  0.00     0.023 A 
ATOM     10  C   UNL d   1      46.647 -14.973  43.524  0.00  0.00     0.002 C 
ENDBRANCH   1   2
BRANCH   1  11
ATOM     11  O   UNL d   1      46.228 -16.519  44.119  0.00  0.00    -0.211 OA
BRANCH  11  12
ATOM     12  C   UNL d   1      46.246 -17.312  43.959  0.00  0.00     0.125 A 
ATOM     13  C   UNL d   1      46.245 -17.582  43.168  0.00  0.00     0.029 A 
ATOM     14  C   UNL d   1      46.264 -18.390  43.004  0.00  0.00     0.026 A 
ATOM     15  C   UNL d   1      46.284 -18.940  43.630  0.00  0.00     0.127 A 
ATOM     16  C   UNL d   1      46.285 -18.674  44.410  0.00  0.00     0.026 A 
ATOM     17  C   UNL d   1      46.266 -17.849  44.577  0.00  0.00     0.029 A 
BRANCH  15  18
ATOM     18  N   UNL d   1      46.303 -19.737  43.468  0.00  0.00    -0.114 N 
ATOM     19  O   UNL d   1      46.041 -20.093  42.773  0.00  0.00    -0.532 OA
ATOM     20  O   UNL d   1      46.588 -20.297  43.983  0.00  0.00    -0.532 OA
ENDBRANCH  15  18
ENDBRANCH  11  12
ENDBRANCH   1  11
TORSDOF 4
ENDMDL
