MODEL 1
REMARK VINA RESULT:      74.7      0.000      0.000
REMARK  9 active torsions:
REMARK  status: ('A' for Active; 'I' for Inactive)
REMARK    1  A    between atoms: C_2  and  C_1 
REMARK    2  A    between atoms: C_23  and  C_7 
REMARK    3  A    between atoms: C_12  and  O_16 
REMARK    4  A    between atoms: C_18  and  C_12 
REMARK    5  A    between atoms: O_16  and  C_14 
REMARK    6  A    between atoms: C_30  and  C_17 
REMARK    7  A    between atoms: C_20  and  C_28 
REMARK    8  A    between atoms: O_25  and  C_23 
REMARK    9  A    between atoms: C_28  and  O_25 
ROOT
ATOM      1  C   UNL d   1      14.318  16.338  -4.133  0.00  0.00     0.098 A 
ATOM      2  C   UNL d   1      13.930  15.692  -4.493  0.00  0.00     0.202 A 
ATOM      3  C   UNL d   1      13.867  14.971  -4.097  0.00  0.00     0.062 A 
ATOM      4  C   UNL d   1      14.643  16.251  -3.369  0.00  0.00     0.130 A 
ATOM      5  C   UNL d   1      14.191  14.884  -3.333  0.00  0.00     0.105 A 
ATOM      6  O   UNL d   1      14.583  15.525  -2.961  0.00  0.00    -0.305 OA
ATOM      7  C   UNL d   1      13.485  14.336  -4.450  0.00  0.00     0.007 A 
ATOM      8  C   UNL d   1      13.744  13.528  -3.298  0.00  0.00     0.105 A 
ATOM      9  C   UNL d   1      14.128  14.163  -2.936  0.00  0.00     0.050 A 
ATOM     10  C   UNL d   1      13.423  13.615  -4.054  0.00  0.00     0.023 A 
ATOM     11  O   UNL d   1      13.608  15.778  -5.250  0.00  0.00    -0.286 OA
ENDROOT
BRANCH   1  12
ATOM     12  C   UNL d   1      14.380  17.059  -4.532  0.00  0.00     0.153 A 
ATOM     13  N   UNL d   1      13.785  17.628  -4.589  0.00  0.00    -0.227 NA
ATOM     14  C   UNL d   1      14.081  18.256  -5.034  0.00  0.00     0.099 A 
ATOM     15  C   UNL d   1      13.744  18.969  -5.269  0.00  0.00     0.021 A 
ATOM     16  C   UNL d   1      14.856  18.074  -5.250  0.00  0.00     0.083 A 
ATOM     17  C   UNL d   1      14.181  19.503  -5.722  0.00  0.00     0.002 A 
ATOM     18  C   UNL d   1      14.959  19.313  -5.935  0.00  0.00     0.002 A 
ATOM     19  C   UNL d   1      15.294  18.605  -5.701  0.00  0.00     0.019 A 
ATOM     20  N   UNL d   1      15.036  17.333  -4.937  0.00  0.00    -0.288 N 
ATOM     21  C   UNL d   1      15.756  16.937  -5.020  0.00  0.00     0.101 C 
ENDBRANCH   1  12
BRANCH   4  22
ATOM     22  C   UNL d   1      15.030  16.894  -3.007  0.00  0.00     0.142 C 
BRANCH  22  23
ATOM     23  O   UNL d   1      15.559  16.763  -2.388  0.00  0.00    -0.315 OA
BRANCH  23  24
ATOM     24  C   UNL d   1      15.292  16.426  -1.680  0.00  0.00     0.246 C 
BRANCH  24  25
ATOM     25  C   UNL d   1      15.354  16.857  -0.974  0.00  0.00     0.217 C 
ATOM     26  O   UNL d   1      15.688  17.614  -0.971  0.00  0.00    -0.645 OA
ATOM     27  O   UNL d   1      15.080  16.524  -0.271  0.00  0.00    -0.645 OA
ENDBRANCH  24  25
ENDBRANCH  23  24
ENDBRANCH  22  23
ENDBRANCH   4  22
BRANCH  10  28
ATOM     28  C   UNL d   1      13.037  12.976  -4.415  0.00  0.00     0.002 C 
ATOM     29  C   UNL d   1      13.377  12.606  -5.070  0.00  0.00     0.000 C 
ENDBRANCH  10  28
BRANCH   8  30
ATOM     30  O   UNL d   1      13.681  12.807  -2.901  0.00  0.00    -0.276 OA
BRANCH  30  31
ATOM     31  C   UNL d   1      14.251  12.589  -2.345  0.00  0.00     0.275 C 
ATOM     32  O   UNL d   1      15.053  12.679  -2.517  0.00  0.00    -0.264 OA
BRANCH  31  33
ATOM     33  C   UNL d   1      14.018  12.280  -1.612  0.00  0.00     0.078 C 
ATOM     34  C   UNL d   1      13.781  11.967  -0.878  0.00  0.00     0.010 C 
ATOM     35  C   UNL d   1      14.718  12.555  -1.274  0.00  0.00     0.010 C 
ATOM     36  C   UNL d   1      13.315  12.005  -1.960  0.00  0.00     0.010 C 
ENDBRANCH  31  33
ENDBRANCH  30  31
ENDBRANCH   8  30
TORSDOF 9
ENDMDL
