MODEL 1
REMARK VINA RESULT:      -9.0      0.000      0.000
REMARK  3 active torsions:
REMARK  status: ('A' for Active; 'I' for Inactive)
REMARK    1  A    between atoms: C_2  and  N_1 
REMARK    2  A    between atoms: C_5  and  C_8 
REMARK       I    between atoms: N_6  and  C_5 
REMARK    3  A    between atoms: C_13  and  N_6 
ROOT
ATOM      1  C   UNL d   1      53.553  32.597  53.822  0.00  0.00     0.070 A 
ATOM      2  C   UNL d   1      52.830  32.980  53.688  0.00  0.00     0.022 A 
ATOM      3  C   UNL d   1      52.249  32.613  53.239  0.00  0.00     0.059 A 
ATOM      4  C   UNL d   1      53.695  31.834  53.502  0.00  0.00     0.018 A 
ATOM      5  C   UNL d   1      52.377  31.869  52.922  0.00  0.00     0.005 A 
ATOM      6  C   UNL d   1      53.104  31.475  53.053  0.00  0.00     0.002 A 
ENDROOT
BRANCH   3   7
ATOM      7  C   UNL d   1      51.528  32.991  53.104  0.00  0.00     0.279 C 
ATOM      8  N   UNL d   1      51.504  33.688  52.664  0.00  0.00    -0.208 NA
ATOM      9  O   UNL d   1      50.833  32.675  53.405  0.00  0.00    -0.265 OA
BRANCH   8  10
ATOM     10  C   UNL d   1      50.772  34.073  52.526  0.00  0.00     0.085 A 
ATOM     11  C   UNL d   1      50.403  34.008  51.795  0.00  0.00     0.020 A 
ATOM     12  C   UNL d   1      49.679  34.380  51.639  0.00  0.00     0.008 A 
ATOM     13  C   UNL d   1      49.185  34.414  50.970  0.00  0.00     0.007 A 
ATOM     14  C   UNL d   1      49.323  34.827  52.237  0.00  0.00     0.030 A 
ATOM     15  C   UNL d   1      48.544  34.876  51.169  0.00  0.00     0.035 A 
ATOM     16  S   UNL d   1      48.608  35.137  51.934  0.00  0.00    -0.086 SA
ATOM     17  C   UNL d   1      49.696  34.898  52.988  0.00  0.00     0.008 A 
ATOM     18  C   UNL d   1      50.420  34.518  53.125  0.00  0.00     0.020 A 
ENDBRANCH   8  10
ENDBRANCH   3   7
BRANCH   1  19
ATOM     19  N   UNL d   1      54.141  32.961  54.273  0.00  0.00    -0.242 N 
ATOM     20  C   UNL d   1      54.756  33.440  54.017  0.00  0.00     0.267 A 
ATOM     21  C   UNL d   1      55.208  33.682  54.646  0.00  0.00     0.066 A 
ATOM     22  O   UNL d   1      54.909  33.664  53.189  0.00  0.00    -0.267 OA
ATOM     23  C   UNL d   1      54.878  33.353  55.309  0.00  0.00     0.066 A 
ATOM     24  C   UNL d   1      54.249  32.928  55.084  0.00  0.00     0.267 A 
ATOM     25  O   UNL d   1      53.740  32.484  55.648  0.00  0.00    -0.267 OA
ENDBRANCH   1  19
TORSDOF 3
ENDMDL
MODEL 2
REMARK VINA RESULT:      -8.3      1.259      1.900
REMARK  3 active torsions:
REMARK  status: ('A' for Active; 'I' for Inactive)
REMARK    1  A    between atoms: C_2  and  N_1 
REMARK    2  A    between atoms: C_5  and  C_8 
REMARK       I    between atoms: N_6  and  C_5 
REMARK    3  A    between atoms: C_13  and  N_6 
ROOT
ATOM      1  C   UNL d   1      53.051  31.882  53.321  0.00  0.00     0.070 A 
ATOM      2  C   UNL d   1      52.293  32.199  53.213  0.00  0.00     0.022 A 
ATOM      3  C   UNL d   1      52.195  33.010  53.133  0.00  0.00     0.059 A 
ATOM      4  C   UNL d   1      53.722  32.387  53.349  0.00  0.00     0.018 A 
ATOM      5  C   UNL d   1      52.843  33.511  53.158  0.00  0.00     0.005 A 
ATOM      6  C   UNL d   1      53.612  33.200  53.267  0.00  0.00     0.002 A 
ENDROOT
BRANCH   3   7
ATOM      7  C   UNL d   1      51.442  33.329  53.025  0.00  0.00     0.279 C 
ATOM      8  N   UNL d   1      51.338  33.987  52.539  0.00  0.00    -0.208 NA
ATOM      9  O   UNL d   1      50.794  32.993  53.400  0.00  0.00    -0.265 OA
BRANCH   8  10
ATOM     10  C   UNL d   1      50.573  34.311  52.429  0.00  0.00     0.085 A 
ATOM     11  C   UNL d   1      50.175  34.199  51.720  0.00  0.00     0.020 A 
ATOM     12  C   UNL d   1      49.417  34.511  51.592  0.00  0.00     0.008 A 
ATOM     13  C   UNL d   1      48.890  34.489  50.947  0.00  0.00     0.007 A 
ATOM     14  C   UNL d   1      49.058  34.946  52.197  0.00  0.00     0.030 A 
ATOM     15  C   UNL d   1      48.225  34.906  51.168  0.00  0.00     0.035 A 
ATOM     16  S   UNL d   1      48.306  35.192  51.923  0.00  0.00    -0.086 SA
ATOM     17  C   UNL d   1      49.460  35.064  52.926  0.00  0.00     0.008 A 
ATOM     18  C   UNL d   1      50.217  34.744  53.034  0.00  0.00     0.020 A 
ENDBRANCH   8  10
ENDBRANCH   3   7
BRANCH   1  19
ATOM     19  N   UNL d   1      53.156  31.067  53.403  0.00  0.00    -0.242 N 
ATOM     20  C   UNL d   1      53.134  30.490  52.820  0.00  0.00     0.267 A 
ATOM     21  C   UNL d   1      53.266  29.757  53.143  0.00  0.00     0.066 A 
ATOM     22  O   UNL d   1      52.990  30.633  51.974  0.00  0.00    -0.267 OA
ATOM     23  C   UNL d   1      53.373  29.869  53.938  0.00  0.00     0.066 A 
ATOM     24  C   UNL d   1      53.307  30.644  54.087  0.00  0.00     0.267 A 
ATOM     25  O   UNL d   1      53.389  30.989  54.893  0.00  0.00    -0.267 OA
ENDBRANCH   1  19
TORSDOF 3
ENDMDL
MODEL 3
REMARK VINA RESULT:      -7.7      1.824      2.490
REMARK  3 active torsions:
REMARK  status: ('A' for Active; 'I' for Inactive)
REMARK    1  A    between atoms: C_2  and  N_1 
REMARK    2  A    between atoms: C_5  and  C_8 
REMARK       I    between atoms: N_6  and  C_5 
REMARK    3  A    between atoms: C_13  and  N_6 
ROOT
ATOM      1  C   UNL d   1      52.018  34.238  53.213  0.00  0.00     0.070 A 
ATOM      2  C   UNL d   1      51.223  34.429  53.351  0.00  0.00     0.022 A 
ATOM      3  C   UNL d   1      50.697  34.471  52.722  0.00  0.00     0.059 A 
ATOM      4  C   UNL d   1      52.289  34.086  52.433  0.00  0.00     0.018 A 
ATOM      5  C   UNL d   1      50.951  34.324  51.957  0.00  0.00     0.005 A 
ATOM      6  C   UNL d   1      51.752  34.131  51.809  0.00  0.00     0.002 A 
ENDROOT
BRANCH   3   7
ATOM      7  C   UNL d   1      49.905  34.660  52.855  0.00  0.00     0.279 C 
ATOM      8  N   UNL d   1      49.642  35.434  52.745  0.00  0.00    -0.208 NA
ATOM      9  O   UNL d   1      49.377  34.081  53.098  0.00  0.00    -0.265 OA
BRANCH   8  10
ATOM     10  C   UNL d   1      48.838  35.627  52.880  0.00  0.00     0.085 A 
ATOM     11  C   UNL d   1      48.307  35.650  52.254  0.00  0.00     0.020 A 
ATOM     12  C   UNL d   1      47.508  35.839  52.367  0.00  0.00     0.008 A 
ATOM     13  C   UNL d   1      46.857  35.904  51.852  0.00  0.00     0.007 A 
ATOM     14  C   UNL d   1      47.243  36.008  53.132  0.00  0.00     0.030 A 
ATOM     15  C   UNL d   1      46.212  36.109  52.307  0.00  0.00     0.035 A 
ATOM     16  S   UNL d   1      46.424  36.177  53.087  0.00  0.00    -0.086 SA
ATOM     17  C   UNL d   1      47.781  35.986  53.778  0.00  0.00     0.008 A 
ATOM     18  C   UNL d   1      48.576  35.795  53.644  0.00  0.00     0.020 A 
ENDBRANCH   8  10
ENDBRANCH   3   7
BRANCH   1  19
ATOM     19  N   UNL d   1      52.552  34.194  53.841  0.00  0.00    -0.242 N 
ATOM     20  C   UNL d   1      52.904  34.809  54.256  0.00  0.00     0.267 A 
ATOM     21  C   UNL d   1      53.395  34.518  54.833  0.00  0.00     0.066 A 
ATOM     22  O   UNL d   1      52.774  35.657  54.104  0.00  0.00    -0.267 OA
ATOM     23  C   UNL d   1      53.355  33.710  54.786  0.00  0.00     0.066 A 
ATOM     24  C   UNL d   1      52.857  33.524  54.199  0.00  0.00     0.267 A 
ATOM     25  O   UNL d   1      52.666  32.694  53.974  0.00  0.00    -0.267 OA
ENDBRANCH   1  19
TORSDOF 3
ENDMDL
MODEL 4
REMARK VINA RESULT:      -7.4      2.363      5.605
REMARK  3 active torsions:
REMARK  status: ('A' for Active; 'I' for Inactive)
REMARK    1  A    between atoms: C_2  and  N_1 
REMARK    2  A    between atoms: C_5  and  C_8 
REMARK       I    between atoms: N_6  and  C_5 
REMARK    3  A    between atoms: C_13  and  N_6 
ROOT
ATOM      1  C   UNL d   1      48.238  35.277  52.024  0.00  0.00     0.070 A 
ATOM      2  C   UNL d   1      48.871  34.991  52.477  0.00  0.00     0.022 A 
ATOM      3  C   UNL d   1      49.476  34.570  52.115  0.00  0.00     0.059 A 
ATOM      4  C   UNL d   1      48.212  35.139  51.196  0.00  0.00     0.018 A 
ATOM      5  C   UNL d   1      49.460  34.430  51.308  0.00  0.00     0.005 A 
ATOM      6  C   UNL d   1      48.825  34.716  50.843  0.00  0.00     0.002 A 
ENDROOT
BRANCH   3   7
ATOM      7  C   UNL d   1      50.107  34.283  52.562  0.00  0.00     0.279 C 
ATOM      8  N   UNL d   1      50.882  34.390  52.299  0.00  0.00    -0.208 NA
ATOM      9  O   UNL d   1      49.968  33.891  53.270  0.00  0.00    -0.265 OA
BRANCH   8  10
ATOM     10  C   UNL d   1      51.523  34.099  52.753  0.00  0.00     0.085 A 
ATOM     11  C   UNL d   1      51.804  33.337  52.631  0.00  0.00     0.020 A 
ATOM     12  C   UNL d   1      52.437  33.030  53.070  0.00  0.00     0.008 A 
ATOM     13  C   UNL d   1      52.832  32.298  53.070  0.00  0.00     0.007 A 
ATOM     14  C   UNL d   1      52.792  33.508  53.644  0.00  0.00     0.030 A 
ATOM     15  C   UNL d   1      53.415  32.340  53.638  0.00  0.00     0.035 A 
ATOM     16  S   UNL d   1      53.408  33.066  53.999  0.00  0.00    -0.086 SA
ATOM     17  C   UNL d   1      52.509  34.290  53.775  0.00  0.00     0.008 A 
ATOM     18  C   UNL d   1      51.875  34.578  53.325  0.00  0.00     0.020 A 
ENDBRANCH   8  10
ENDBRANCH   3   7
BRANCH   1  19
ATOM     19  N   UNL d   1      47.627  35.701  52.382  0.00  0.00    -0.242 N 
ATOM     20  C   UNL d   1      46.818  35.584  52.315  0.00  0.00     0.267 A 
ATOM     21  C   UNL d   1      46.414  36.128  52.762  0.00  0.00     0.066 A 
ATOM     22  O   UNL d   1      46.437  34.966  51.834  0.00  0.00    -0.267 OA
ATOM     23  C   UNL d   1      46.972  36.596  53.117  0.00  0.00     0.066 A 
ATOM     24  C   UNL d   1      47.686  36.340  52.890  0.00  0.00     0.267 A 
ATOM     25  O   UNL d   1      48.438  36.709  53.161  0.00  0.00    -0.267 OA
ENDBRANCH   1  19
TORSDOF 3
ENDMDL
MODEL 5
REMARK VINA RESULT:      -7.2      2.353      4.945
REMARK  3 active torsions:
REMARK  status: ('A' for Active; 'I' for Inactive)
REMARK    1  A    between atoms: C_2  and  N_1 
REMARK    2  A    between atoms: C_5  and  C_8 
REMARK       I    between atoms: N_6  and  C_5 
REMARK    3  A    between atoms: C_13  and  N_6 
ROOT
ATOM      1  C   UNL d   1      51.856  34.048  52.893  0.00  0.00     0.070 A 
ATOM      2  C   UNL d   1      52.119  33.268  52.990  0.00  0.00     0.022 A 
ATOM      3  C   UNL d   1      52.857  33.122  53.319  0.00  0.00     0.059 A 
ATOM      4  C   UNL d   1      52.342  34.692  53.129  0.00  0.00     0.018 A 
ATOM      5  C   UNL d   1      53.338  33.742  53.552  0.00  0.00     0.005 A 
ATOM      6  C   UNL d   1      53.080  34.533  53.458  0.00  0.00     0.002 A 
ENDROOT
BRANCH   3   7
ATOM      7  C   UNL d   1      53.122  32.347  53.417  0.00  0.00     0.279 C 
ATOM      8  N   UNL d   1      52.579  31.730  53.480  0.00  0.00    -0.208 NA
ATOM      9  O   UNL d   1      53.927  32.187  53.452  0.00  0.00    -0.265 OA
BRANCH   8  10
ATOM     10  C   UNL d   1      52.848  30.942  53.579  0.00  0.00     0.085 A 
ATOM     11  C   UNL d   1      52.880  30.608  54.329  0.00  0.00     0.020 A 
ATOM     12  C   UNL d   1      53.143  29.831  54.449  0.00  0.00     0.008 A 
ATOM     13  C   UNL d   1      53.234  29.355  55.126  0.00  0.00     0.007 A 
ATOM     14  C   UNL d   1      53.378  29.385  53.793  0.00  0.00     0.030 A 
ATOM     15  C   UNL d   1      53.520  28.634  54.875  0.00  0.00     0.035 A 
ATOM     16  S   UNL d   1      53.614  28.631  54.069  0.00  0.00    -0.086 SA
ATOM     17  C   UNL d   1      53.347  29.721  53.022  0.00  0.00     0.008 A 
ATOM     18  C   UNL d   1      53.081  30.499  52.924  0.00  0.00     0.020 A 
ENDBRANCH   8  10
ENDBRANCH   3   7
BRANCH   1  19
ATOM     19  N   UNL d   1      51.115  34.201  52.563  0.00  0.00    -0.242 N 
ATOM     20  C   UNL d   1      50.921  34.308  51.773  0.00  0.00     0.267 A 
ATOM     21  C   UNL d   1      50.125  34.446  51.693  0.00  0.00     0.066 A 
ATOM     22  O   UNL d   1      51.482  34.278  51.108  0.00  0.00    -0.267 OA
ATOM     23  C   UNL d   1      49.810  34.428  52.439  0.00  0.00     0.066 A 
ATOM     24  C   UNL d   1      50.398  34.283  52.949  0.00  0.00     0.267 A 
ATOM     25  O   UNL d   1      50.277  34.221  53.819  0.00  0.00    -0.267 OA
ENDBRANCH   1  19
TORSDOF 3
ENDMDL
