MODEL 1
REMARK VINA RESULT:      54.2      0.000      0.000
REMARK  1 active torsions:
REMARK  status: ('A' for Active; 'I' for Inactive)
REMARK    1  A    between atoms: N_9  and  C_4 
ROOT
ATOM      1  N   UNL d   1     -57.455 -98.807 -44.059  0.00  0.00    -0.195 N 
ATOM      2  C   UNL d   1     -58.285 -98.804 -44.055  0.00  0.00     0.168 A 
ATOM      3  C   UNL d   1     -58.706 -98.813 -44.756  0.00  0.00     0.073 A 
ATOM      4  C   UNL d   1     -57.052 -98.798 -43.349  0.00  0.00     0.154 A 
ATOM      5  N   UNL d   1     -57.463 -98.827 -45.466  0.00  0.00    -0.143 NA
ATOM      6  C   UNL d   1     -58.293 -98.824 -45.462  0.00  0.00     0.185 A 
ATOM      7  N   UNL d   1     -58.689 -98.793 -43.339  0.00  0.00    -0.227 NA
ATOM      8  C   UNL d   1     -59.527 -98.811 -44.752  0.00  0.00     0.007 A 
ATOM      9  N   UNL d   1     -58.705 -98.833 -46.180  0.00  0.00    -0.225 NA
ATOM     10  C   UNL d   1     -57.447 -98.786 -42.639  0.00  0.00     0.057 A 
ATOM     11  C   UNL d   1     -59.948 -98.819 -45.452  0.00  0.00     0.019 A 
ATOM     12  C   UNL d   1     -58.277 -98.784 -42.634  0.00  0.00     0.086 A 
ATOM     13  C   UNL d   1     -59.535 -98.831 -46.175  0.00  0.00     0.083 A 
ATOM     14  C   UNL d   1     -59.932 -98.799 -44.032  0.00  0.00     0.000 C 
ATOM     15  C   UNL d   1     -58.693 -98.772 -41.889  0.00  0.00     0.021 C 
ATOM     16  C   UNL d   1     -59.948 -98.840 -46.877  0.00  0.00     0.021 C 
ENDROOT
BRANCH   4  17
ATOM     17  N   UNL d   1     -56.196 -98.800 -43.363  0.00  0.00    -0.271 N 
ATOM     18  C   UNL d   1     -55.700 -98.823 -44.056  0.00  0.00     0.184 A 
ATOM     19  N   UNL d   1     -54.895 -98.817 -43.800  0.00  0.00    -0.222 NA
ATOM     20  C   UNL d   1     -54.885 -98.791 -42.940  0.00  0.00     0.120 A 
ATOM     21  C   UNL d   1     -55.692 -98.781 -42.675  0.00  0.00     0.104 A 
ENDBRANCH   4  17
TORSDOF 1
ENDMDL
