MODEL 1
REMARK VINA RESULT:      -8.4      0.000      0.000
REMARK  6 active torsions:
REMARK  status: ('A' for Active; 'I' for Inactive)
REMARK       I    between atoms: C_5  and  N_1 
REMARK    1  A    between atoms: C_10  and  C_5 
REMARK    2  A    between atoms: C_7  and  C_13 
REMARK       I    between atoms: N_8  and  C_7 
REMARK    3  A    between atoms: C_12  and  N_8 
REMARK    4  A    between atoms: C_13  and  C_10 
REMARK    5  A    between atoms: O_20  and  C_14 
REMARK    6  A    between atoms: C_22  and  O_20 
ROOT
ATOM      1  C   UNL d   1      54.151  33.198  54.274  0.00  0.00     0.279 C 
ATOM      2  N   UNL d   1      53.864  33.959  54.344  0.00  0.00    -0.208 NA
ATOM      3  O   UNL d   1      54.881  32.988  54.627  0.00  0.00    -0.265 OA
ENDROOT
BRANCH   1   4
ATOM      4  C   UNL d   1      53.728  32.644  53.861  0.00  0.00     0.068 C 
BRANCH   4   5
ATOM      5  C   UNL d   1      53.938  31.851  53.894  0.00  0.00     0.068 C 
BRANCH   5   6
ATOM      6  C   UNL d   1      53.545  31.296  53.427  0.00  0.00     0.281 C 
ATOM      7  N   UNL d   1      53.410  30.529  53.721  0.00  0.00    -0.195 N 
ATOM      8  N   UNL d   1      53.594  30.164  54.430  0.00  0.00    -0.163 NA
ATOM      9  C   UNL d   1      53.017  29.980  53.250  0.00  0.00     0.088 A 
ATOM     10  C   UNL d   1      53.309  29.372  54.399  0.00  0.00     0.103 A 
ATOM     11  C   UNL d   1      53.367  28.792  54.987  0.00  0.00     0.022 C 
ATOM     12  C   UNL d   1      52.961  29.276  53.673  0.00  0.00     0.040 A 
ATOM     13  C   UNL d   1      52.725  30.103  52.480  0.00  0.00     0.021 C 
ATOM     14  O   UNL d   1      53.286  31.504  52.667  0.00  0.00    -0.265 OA
ENDBRANCH   5   6
ENDBRANCH   4   5
ENDBRANCH   1   4
BRANCH   2  15
ATOM     15  C   UNL d   1      53.144  34.164  53.994  0.00  0.00     0.085 A 
ATOM     16  C   UNL d   1      53.130  34.512  53.238  0.00  0.00     0.021 A 
ATOM     17  C   UNL d   1      52.409  34.718  52.888  0.00  0.00     0.026 A 
ATOM     18  C   UNL d   1      51.717  34.578  53.287  0.00  0.00     0.100 A 
ATOM     19  C   UNL d   1      51.724  34.230  54.042  0.00  0.00     0.026 A 
ATOM     20  C   UNL d   1      52.436  34.024  54.396  0.00  0.00     0.021 A 
BRANCH  18  21
ATOM     21  O   UNL d   1      51.002  34.790  52.922  0.00  0.00    -0.305 OA
BRANCH  21  22
ATOM     22  C   UNL d   1      50.484  34.216  52.657  0.00  0.00     0.123 C 
ATOM     23  C   UNL d   1      49.773  34.429  52.309  0.00  0.00     0.029 C 
ENDBRANCH  21  22
ENDBRANCH  18  21
ENDBRANCH   2  15
TORSDOF 6
ENDMDL
MODEL 2
REMARK VINA RESULT:      -7.8      1.524      4.440
REMARK  6 active torsions:
REMARK  status: ('A' for Active; 'I' for Inactive)
REMARK       I    between atoms: C_5  and  N_1 
REMARK    1  A    between atoms: C_10  and  C_5 
REMARK    2  A    between atoms: C_7  and  C_13 
REMARK       I    between atoms: N_8  and  C_7 
REMARK    3  A    between atoms: C_12  and  N_8 
REMARK    4  A    between atoms: C_13  and  C_10 
REMARK    5  A    between atoms: O_20  and  C_14 
REMARK    6  A    between atoms: C_22  and  O_20 
ROOT
ATOM      1  C   UNL d   1      53.230  34.790  54.182  0.00  0.00     0.279 C 
ATOM      2  N   UNL d   1      53.838  34.350  54.504  0.00  0.00    -0.208 NA
ATOM      3  O   UNL d   1      53.171  35.610  54.344  0.00  0.00    -0.265 OA
ENDROOT
BRANCH   1   4
ATOM      4  C   UNL d   1      52.683  34.431  53.705  0.00  0.00     0.068 C 
BRANCH   4   5
ATOM      5  C   UNL d   1      51.984  34.818  53.511  0.00  0.00     0.068 C 
BRANCH   5   6
ATOM      6  C   UNL d   1      51.507  34.534  52.900  0.00  0.00     0.281 C 
ATOM      7  N   UNL d   1      50.694  34.714  52.894  0.00  0.00    -0.195 N 
ATOM      8  N   UNL d   1      50.215  35.144  53.397  0.00  0.00    -0.163 NA
ATOM      9  C   UNL d   1      50.224  34.428  52.281  0.00  0.00     0.088 A 
ATOM     10  C   UNL d   1      49.430  35.127  53.092  0.00  0.00     0.103 A 
ATOM     11  C   UNL d   1      48.756  35.484  53.412  0.00  0.00     0.022 C 
ATOM     12  C   UNL d   1      49.452  34.686  52.411  0.00  0.00     0.040 A 
ATOM     13  C   UNL d   1      50.472  33.961  51.638  0.00  0.00     0.021 C 
ATOM     14  O   UNL d   1      51.839  34.073  52.296  0.00  0.00    -0.265 OA
ENDBRANCH   5   6
ENDBRANCH   4   5
ENDBRANCH   1   4
BRANCH   2  15
ATOM     15  C   UNL d   1      53.894  33.541  54.344  0.00  0.00     0.085 A 
ATOM     16  C   UNL d   1      53.527  32.989  54.847  0.00  0.00     0.021 A 
ATOM     17  C   UNL d   1      53.583  32.179  54.687  0.00  0.00     0.026 A 
ATOM     18  C   UNL d   1      53.998  31.928  54.036  0.00  0.00     0.100 A 
ATOM     19  C   UNL d   1      54.367  32.475  53.530  0.00  0.00     0.026 A 
ATOM     20  C   UNL d   1      54.315  33.281  53.684  0.00  0.00     0.021 A 
BRANCH  18  21
ATOM     21  O   UNL d   1      54.045  31.112  53.889  0.00  0.00    -0.305 OA
BRANCH  21  22
ATOM     22  C   UNL d   1      53.428  30.719  53.528  0.00  0.00     0.123 C 
ATOM     23  C   UNL d   1      53.437  29.901  53.467  0.00  0.00     0.029 C 
ENDBRANCH  21  22
ENDBRANCH  18  21
ENDBRANCH   2  15
TORSDOF 6
ENDMDL
MODEL 3
REMARK VINA RESULT:      -6.4      1.701      4.660
REMARK  6 active torsions:
REMARK  status: ('A' for Active; 'I' for Inactive)
REMARK       I    between atoms: C_5  and  N_1 
REMARK    1  A    between atoms: C_10  and  C_5 
REMARK    2  A    between atoms: C_7  and  C_13 
REMARK       I    between atoms: N_8  and  C_7 
REMARK    3  A    between atoms: C_12  and  N_8 
REMARK    4  A    between atoms: C_13  and  C_10 
REMARK    5  A    between atoms: O_20  and  C_14 
REMARK    6  A    between atoms: C_22  and  O_20 
ROOT
ATOM      1  C   UNL d   1      52.638  32.173  52.548  0.00  0.00     0.279 C 
ATOM      2  N   UNL d   1      52.340  31.426  52.409  0.00  0.00    -0.208 NA
ATOM      3  O   UNL d   1      52.393  32.820  52.077  0.00  0.00    -0.265 OA
ENDROOT
BRANCH   1   4
ATOM      4  C   UNL d   1      53.174  32.287  53.145  0.00  0.00     0.068 C 
BRANCH   4   5
ATOM      5  C   UNL d   1      53.532  33.020  53.247  0.00  0.00     0.068 C 
BRANCH   5   6
ATOM      6  C   UNL d   1      53.929  33.195  53.949  0.00  0.00     0.281 C 
ATOM      7  N   UNL d   1      53.753  33.898  54.359  0.00  0.00    -0.195 N 
ATOM      8  N   UNL d   1      53.231  34.510  54.215  0.00  0.00    -0.163 NA
ATOM      9  C   UNL d   1      54.153  34.067  55.058  0.00  0.00     0.088 A 
ATOM     10  C   UNL d   1      53.307  35.073  54.837  0.00  0.00     0.103 A 
ATOM     11  C   UNL d   1      52.892  35.783  54.930  0.00  0.00     0.022 C 
ATOM     12  C   UNL d   1      53.873  34.787  55.344  0.00  0.00     0.040 A 
ATOM     13  C   UNL d   1      54.738  33.601  55.423  0.00  0.00     0.021 C 
ATOM     14  O   UNL d   1      54.501  32.672  54.242  0.00  0.00    -0.265 OA
ENDBRANCH   5   6
ENDBRANCH   4   5
ENDBRANCH   1   4
BRANCH   2  15
ATOM     15  C   UNL d   1      52.583  30.789  52.875  0.00  0.00     0.085 A 
ATOM     16  C   UNL d   1      53.288  30.384  52.695  0.00  0.00     0.021 A 
ATOM     17  C   UNL d   1      53.532  29.746  53.161  0.00  0.00     0.026 A 
ATOM     18  C   UNL d   1      53.080  29.518  53.795  0.00  0.00     0.100 A 
ATOM     19  C   UNL d   1      52.375  29.918  53.981  0.00  0.00     0.026 A 
ATOM     20  C   UNL d   1      52.127  30.553  53.521  0.00  0.00     0.021 A 
BRANCH  18  21
ATOM     21  O   UNL d   1      53.338  28.876  54.254  0.00  0.00    -0.305 OA
BRANCH  21  22
ATOM     22  C   UNL d   1      53.278  28.895  55.068  0.00  0.00     0.123 C 
ATOM     23  C   UNL d   1      53.605  28.296  55.522  0.00  0.00     0.029 C 
ENDBRANCH  21  22
ENDBRANCH  18  21
ENDBRANCH   2  15
TORSDOF 6
ENDMDL
MODEL 4
REMARK VINA RESULT:      -6.3      2.746      5.782
REMARK  6 active torsions:
REMARK  status: ('A' for Active; 'I' for Inactive)
REMARK       I    between atoms: C_5  and  N_1 
REMARK    1  A    between atoms: C_10  and  C_5 
REMARK    2  A    between atoms: C_7  and  C_13 
REMARK       I    between atoms: N_8  and  C_7 
REMARK    3  A    between atoms: C_12  and  N_8 
REMARK    4  A    between atoms: C_13  and  C_10 
REMARK    5  A    between atoms: O_20  and  C_14 
REMARK    6  A    between atoms: C_22  and  O_20 
ROOT
ATOM      1  C   UNL d   1      50.588  34.256  51.737  0.00  0.00     0.279 C 
ATOM      2  N   UNL d   1      51.357  33.983  51.760  0.00  0.00    -0.208 NA
ATOM      3  O   UNL d   1      50.166  34.265  51.014  0.00  0.00    -0.265 OA
ENDROOT
BRANCH   1   4
ATOM      4  C   UNL d   1      50.233  34.518  52.416  0.00  0.00     0.068 C 
BRANCH   4   5
ATOM      5  C   UNL d   1      49.421  34.642  52.439  0.00  0.00     0.068 C 
BRANCH   5   6
ATOM      6  C   UNL d   1      49.102  35.218  52.936  0.00  0.00     0.281 C 
ATOM      7  N   UNL d   1      48.375  35.575  52.741  0.00  0.00    -0.195 N 
ATOM      8  N   UNL d   1      47.857  35.477  52.116  0.00  0.00    -0.163 NA
ATOM      9  C   UNL d   1      48.062  36.149  53.240  0.00  0.00     0.088 A 
ATOM     10  C   UNL d   1      47.208  36.002  52.228  0.00  0.00     0.103 A 
ATOM     11  C   UNL d   1      46.548  36.100  51.739  0.00  0.00     0.022 C 
ATOM     12  C   UNL d   1      47.348  36.405  52.919  0.00  0.00     0.040 A 
ATOM     13  C   UNL d   1      48.398  36.431  53.948  0.00  0.00     0.021 C 
ATOM     14  O   UNL d   1      49.506  35.440  53.625  0.00  0.00    -0.265 OA
ENDBRANCH   5   6
ENDBRANCH   4   5
ENDBRANCH   1   4
BRANCH   2  15
ATOM     15  C   UNL d   1      51.772  33.974  52.475  0.00  0.00     0.085 A 
ATOM     16  C   UNL d   1      52.241  34.626  52.695  0.00  0.00     0.021 A 
ATOM     17  C   UNL d   1      52.657  34.618  53.410  0.00  0.00     0.026 A 
ATOM     18  C   UNL d   1      52.604  33.970  53.895  0.00  0.00     0.100 A 
ATOM     19  C   UNL d   1      52.138  33.315  53.682  0.00  0.00     0.026 A 
ATOM     20  C   UNL d   1      51.722  33.317  52.973  0.00  0.00     0.021 A 
BRANCH  18  21
ATOM     21  O   UNL d   1      53.027  33.977  54.609  0.00  0.00    -0.305 OA
BRANCH  21  22
ATOM     22  C   UNL d   1      53.754  33.609  54.666  0.00  0.00     0.123 C 
ATOM     23  C   UNL d   1      54.177  33.634  55.367  0.00  0.00     0.029 C 
ENDBRANCH  21  22
ENDBRANCH  18  21
ENDBRANCH   2  15
TORSDOF 6
ENDMDL
