MODEL 1
REMARK VINA RESULT:      -5.6      0.000      0.000
REMARK  2 active torsions:
REMARK  status: ('A' for Active; 'I' for Inactive)
REMARK    1  A    between atoms: C_6  and  C_1 
REMARK    2  A    between atoms: C_11  and  C_6 
ROOT
ATOM      1  C   UNL d   1      56.187  -0.402  32.810  0.00  0.00     0.059 A 
ATOM      2  C   UNL d   1      56.117  -1.218  32.738  0.00  0.00     0.085 A 
ATOM      3  N   UNL d   1      56.538  -1.488  32.076  0.00  0.00    -0.245 NA
ATOM      4  C   UNL d   1      56.668  -0.144  32.176  0.00  0.00     0.022 A 
ATOM      5  C   UNL d   1      56.886  -0.806  31.723  0.00  0.00     0.082 A 
ATOM      6  C   UNL d   1      55.677  -1.655  33.274  0.00  0.00     0.021 C 
ATOM      7  C   UNL d   1      56.931   0.607  31.960  0.00  0.00     0.002 A 
ATOM      8  C   UNL d   1      57.366  -0.717  31.054  0.00  0.00     0.019 A 
ATOM      9  C   UNL d   1      57.415   0.682  31.281  0.00  0.00     0.000 A 
ATOM     10  C   UNL d   1      57.621   0.040  30.850  0.00  0.00     0.002 A 
ENDROOT
BRANCH   1  11
ATOM     11  C   UNL d   1      55.843   0.067  33.403  0.00  0.00     0.208 C 
ATOM     12  O   UNL d   1      56.274   0.304  34.058  0.00  0.00    -0.286 OA
BRANCH  11  13
ATOM     13  C   UNL d   1      55.068   0.295  33.331  0.00  0.00     0.110 C 
ATOM     14 CL   UNL d   1      54.713   0.681  33.944  0.00  0.00    -0.078 Cl
ENDBRANCH  11  13
ENDBRANCH   1  11
TORSDOF 2
ENDMDL
MODEL 2
REMARK VINA RESULT:      -4.0      1.812      2.946
REMARK  2 active torsions:
REMARK  status: ('A' for Active; 'I' for Inactive)
REMARK    1  A    between atoms: C_6  and  C_1 
REMARK    2  A    between atoms: C_11  and  C_6 
ROOT
ATOM      1  C   UNL d   1      57.081   0.269  32.457  0.00  0.00     0.059 A 
ATOM      2  C   UNL d   1      57.675   0.554  32.951  0.00  0.00     0.085 A 
ATOM      3  N   UNL d   1      57.382   0.674  33.718  0.00  0.00    -0.245 NA
ATOM      4  C   UNL d   1      56.389   0.207  32.923  0.00  0.00     0.022 A 
ATOM      5  C   UNL d   1      56.568   0.454  33.697  0.00  0.00     0.082 A 
ATOM      6  C   UNL d   1      58.434   0.682  32.670  0.00  0.00     0.021 C 
ATOM      7  C   UNL d   1      55.626  -0.042  32.738  0.00  0.00     0.002 A 
ATOM      8  C   UNL d   1      55.984   0.452  34.284  0.00  0.00     0.019 A 
ATOM      9  C   UNL d   1      55.046  -0.040  33.341  0.00  0.00     0.000 A 
ATOM     10  C   UNL d   1      55.225   0.199  34.084  0.00  0.00     0.002 A 
ENDROOT
BRANCH   1  11
ATOM     11  C   UNL d   1      57.162   0.083  31.652  0.00  0.00     0.208 C 
ATOM     12  O   UNL d   1      57.148  -0.694  31.395  0.00  0.00    -0.286 OA
BRANCH  11  13
ATOM     13  C   UNL d   1      57.257   0.681  31.112  0.00  0.00     0.110 C 
ATOM     14 CL   UNL d   1      57.368   0.495  30.335  0.00  0.00    -0.078 Cl
ENDBRANCH  11  13
ENDBRANCH   1  11
TORSDOF 2
ENDMDL
MODEL 3
REMARK VINA RESULT:      -3.8      1.331      1.775
REMARK  2 active torsions:
REMARK  status: ('A' for Active; 'I' for Inactive)
REMARK    1  A    between atoms: C_6  and  C_1 
REMARK    2  A    between atoms: C_11  and  C_6 
ROOT
ATOM      1  C   UNL d   1      56.935  -0.023  32.533  0.00  0.00     0.059 A 
ATOM      2  C   UNL d   1      57.390   0.364  33.098  0.00  0.00     0.085 A 
ATOM      3  N   UNL d   1      58.075   0.680  32.753  0.00  0.00    -0.245 NA
ATOM      4  C   UNL d   1      57.343   0.047  31.805  0.00  0.00     0.022 A 
ATOM      5  C   UNL d   1      58.042   0.478  31.935  0.00  0.00     0.082 A 
ATOM      6  C   UNL d   1      57.150   0.403  33.881  0.00  0.00     0.021 C 
ATOM      7  C   UNL d   1      57.163  -0.226  31.049  0.00  0.00     0.002 A 
ATOM      8  C   UNL d   1      58.561   0.635  31.309  0.00  0.00     0.019 A 
ATOM      9  C   UNL d   1      57.696  -0.060  30.426  0.00  0.00     0.000 A 
ATOM     10  C   UNL d   1      58.367   0.355  30.557  0.00  0.00     0.002 A 
ENDROOT
BRANCH   1  11
ATOM     11  C   UNL d   1      56.212  -0.408  32.667  0.00  0.00     0.208 C 
ATOM     12  O   UNL d   1      55.501  -0.005  32.608  0.00  0.00    -0.286 OA
BRANCH  11  13
ATOM     13  C   UNL d   1      56.209  -1.196  32.861  0.00  0.00     0.110 C 
ATOM     14 CL   UNL d   1      55.503  -1.576  32.955  0.00  0.00    -0.078 Cl
ENDBRANCH  11  13
ENDBRANCH   1  11
TORSDOF 2
ENDMDL
MODEL 4
REMARK VINA RESULT:      -3.5      8.875      9.703
REMARK  2 active torsions:
REMARK  status: ('A' for Active; 'I' for Inactive)
REMARK    1  A    between atoms: C_6  and  C_1 
REMARK    2  A    between atoms: C_11  and  C_6 
ROOT
ATOM      1  C   UNL d   1      59.935  -8.974  34.766  0.00  0.00     0.059 A 
ATOM      2  C   UNL d   1      60.731  -9.178  34.809  0.00  0.00     0.085 A 
ATOM      3  N   UNL d   1      61.133  -8.671  35.328  0.00  0.00    -0.245 NA
ATOM      4  C   UNL d   1      59.827  -8.317  35.273  0.00  0.00     0.022 A 
ATOM      5  C   UNL d   1      60.559  -8.127  35.620  0.00  0.00     0.082 A 
ATOM      6  C   UNL d   1      61.031  -9.806  34.376  0.00  0.00     0.021 C 
ATOM      7  C   UNL d   1      59.158  -7.874  35.458  0.00  0.00     0.002 A 
ATOM      8  C   UNL d   1      60.621  -7.495  36.151  0.00  0.00     0.019 A 
ATOM      9  C   UNL d   1      59.234  -7.237  35.997  0.00  0.00     0.000 A 
ATOM     10  C   UNL d   1      59.942  -7.060  36.327  0.00  0.00     0.002 A 
ENDROOT
BRANCH   1  11
ATOM     11  C   UNL d   1      59.357  -9.353  34.306  0.00  0.00     0.208 C 
ATOM     12  O   UNL d   1      58.778  -9.817  34.652  0.00  0.00    -0.286 OA
BRANCH  11  13
ATOM     13  C   UNL d   1      59.367  -9.261  33.499  0.00  0.00     0.110 C 
ATOM     14 CL   UNL d   1      58.784  -9.602  33.058  0.00  0.00    -0.078 Cl
ENDBRANCH  11  13
ENDBRANCH   1  11
TORSDOF 2
ENDMDL
MODEL 5
REMARK VINA RESULT:      -3.3      2.595      3.636
REMARK  2 active torsions:
REMARK  status: ('A' for Active; 'I' for Inactive)
REMARK    1  A    between atoms: C_6  and  C_1 
REMARK    2  A    between atoms: C_11  and  C_6 
ROOT
ATOM      1  C   UNL d   1      58.185  -0.398  30.162  0.00  0.00     0.059 A 
ATOM      2  C   UNL d   1      58.086  -1.212  30.095  0.00  0.00     0.085 A 
ATOM      3  N   UNL d   1      57.550  -1.488  30.666  0.00  0.00    -0.245 NA
ATOM      4  C   UNL d   1      57.698  -0.148  30.795  0.00  0.00     0.022 A 
ATOM      5  C   UNL d   1      57.307  -0.812  31.108  0.00  0.00     0.082 A 
ATOM      6  C   UNL d   1      58.486  -1.642  29.523  0.00  0.00     0.021 C 
ATOM      7  C   UNL d   1      57.566   0.597  31.121  0.00  0.00     0.002 A 
ATOM      8  C   UNL d   1      56.784  -0.730  31.745  0.00  0.00     0.019 A 
ATOM      9  C   UNL d   1      57.035   0.665  31.765  0.00  0.00     0.000 A 
ATOM     10  C   UNL d   1      56.662   0.022  32.060  0.00  0.00     0.002 A 
ENDROOT
BRANCH   1  11
ATOM     11  C   UNL d   1      58.676   0.075  29.689  0.00  0.00     0.208 C 
ATOM     12  O   UNL d   1      58.385   0.449  29.021  0.00  0.00    -0.286 OA
BRANCH  11  13
ATOM     13  C   UNL d   1      59.456   0.167  29.892  0.00  0.00     0.110 C 
ATOM     14 CL   UNL d   1      59.920   0.661  29.453  0.00  0.00    -0.078 Cl
ENDBRANCH  11  13
ENDBRANCH   1  11
TORSDOF 2
ENDMDL
MODEL 6
REMARK VINA RESULT:      -2.8      3.682      4.870
REMARK  2 active torsions:
REMARK  status: ('A' for Active; 'I' for Inactive)
REMARK    1  A    between atoms: C_6  and  C_1 
REMARK    2  A    between atoms: C_11  and  C_6 
ROOT
ATOM      1  C   UNL d   1      59.263  -0.821  29.209  0.00  0.00     0.059 A 
ATOM      2  C   UNL d   1      60.032  -0.542  29.120  0.00  0.00     0.085 A 
ATOM      3  N   UNL d   1      60.554  -1.171  28.978  0.00  0.00    -0.245 NA
ATOM      4  C   UNL d   1      59.296  -1.652  29.121  0.00  0.00     0.022 A 
ATOM      5  C   UNL d   1      60.085  -1.873  28.980  0.00  0.00     0.082 A 
ATOM      6  C   UNL d   1      60.202   0.258  29.173  0.00  0.00     0.021 C 
ATOM      7  C   UNL d   1      58.708  -2.229  29.153  0.00  0.00     0.002 A 
ATOM      8  C   UNL d   1      60.287  -2.668  28.871  0.00  0.00     0.019 A 
ATOM      9  C   UNL d   1      58.926  -3.029  29.041  0.00  0.00     0.000 A 
ATOM     10  C   UNL d   1      59.687  -3.234  28.905  0.00  0.00     0.002 A 
ENDROOT
BRANCH   1  11
ATOM     11  C   UNL d   1      58.590  -0.358  29.357  0.00  0.00     0.208 C 
ATOM     12  O   UNL d   1      58.108  -0.106  28.745  0.00  0.00    -0.286 OA
BRANCH  11  13
ATOM     13  C   UNL d   1      58.407  -0.152  30.120  0.00  0.00     0.110 C 
ATOM     14 CL   UNL d   1      57.730   0.261  30.264  0.00  0.00    -0.078 Cl
ENDBRANCH  11  13
ENDBRANCH   1  11
TORSDOF 2
ENDMDL
