MODEL 1
REMARK VINA RESULT:     135.6      0.000      0.000
REMARK  6 active torsions:
REMARK  status: ('A' for Active; 'I' for Inactive)
REMARK    1  A    between atoms: C_2  and  S_1 
REMARK    2  A    between atoms: C_13  and  S_1 
REMARK    3  A    between atoms: C_5  and  C_3 
REMARK    4  A    between atoms: C_19  and  C_5 
REMARK    5  A    between atoms: O_25  and  C_22 
REMARK    6  A    between atoms: C_30  and  O_25 
ROOT
ATOM      1  C   UNL d   1      59.839  48.447  50.791  0.00  0.00     0.094 A 
ATOM      2  C   UNL d   1      60.214  49.073  51.188  0.00  0.00     0.069 A 
ATOM      3  C   UNL d   1      59.023  48.453  50.688  0.00  0.00     0.031 A 
ATOM      4  C   UNL d   1      58.573  49.082  50.978  0.00  0.00     0.084 A 
ATOM      5  C   UNL d   1      58.654  47.830  50.294  0.00  0.00     0.029 A 
ATOM      6  N   UNL d   1      58.941  49.704  51.371  0.00  0.00    -0.244 NA
ATOM      7  C   UNL d   1      59.765  49.702  51.478  0.00  0.00     0.103 A 
ATOM      8  C   UNL d   1      57.756  49.088  50.874  0.00  0.00     0.046 A 
ATOM      9  C   UNL d   1      57.838  47.836  50.191  0.00  0.00     0.123 A 
ATOM     10  C   UNL d   1      57.389  48.466  50.481  0.00  0.00     0.124 A 
ATOM     11  O   UNL d   1      57.469  47.214  49.797  0.00  0.00    -0.301 OA
ATOM     12  O   UNL d   1      56.572  48.471  50.377  0.00  0.00    -0.301 OA
ATOM     13  C   UNL d   1      56.200  47.847  49.982  0.00  0.00     0.149 A 
ATOM     14  C   UNL d   1      56.649  47.218  49.692  0.00  0.00     0.149 A 
ENDROOT
BRANCH   1  15
ATOM     15  S   UNL d   1      60.277  47.813  50.497  0.00  0.00     0.210 S 
ATOM     16  O   UNL d   1      60.042  47.341  51.131  0.00  0.00    -0.217 OA
ATOM     17  O   UNL d   1      60.512  48.286  49.863  0.00  0.00    -0.217 OA
BRANCH  15  18
ATOM     18  C   UNL d   1      60.720  47.186  50.194  0.00  0.00     0.088 A 
ATOM     19  C   UNL d   1      60.702  46.452  50.576  0.00  0.00     0.013 A 
ATOM     20  C   UNL d   1      61.147  45.822  50.271  0.00  0.00     0.025 A 
ATOM     21  C   UNL d   1      61.601  45.928  49.593  0.00  0.00     0.100 A 
ATOM     22  C   UNL d   1      61.621  46.659  49.209  0.00  0.00     0.025 A 
ATOM     23  C   UNL d   1      61.174  47.293  49.516  0.00  0.00     0.013 A 
BRANCH  21  24
ATOM     24  O   UNL d   1      62.051  45.299  49.281  0.00  0.00    -0.305 OA
BRANCH  24  25
ATOM     25  C   UNL d   1      62.324  44.695  49.770  0.00  0.00     0.123 C 
ATOM     26  C   UNL d   1      62.316  43.917  49.502  0.00  0.00     0.029 C 
ENDBRANCH  24  25
ENDBRANCH  21  24
ENDBRANCH  15  18
ENDBRANCH   1  15
BRANCH   2  27
ATOM     27  C   UNL d   1      61.034  49.069  51.293  0.00  0.00     0.198 C 
ATOM     28  O   UNL d   1      61.534  48.855  50.673  0.00  0.00    -0.286 OA
BRANCH  27  29
ATOM     29  C   UNL d   1      61.354  49.281  52.023  0.00  0.00     0.039 A 
ATOM     30  C   UNL d   1      60.876  49.306  52.701  0.00  0.00     0.003 A 
ATOM     31  C   UNL d   1      61.195  49.518  53.433  0.00  0.00     0.000 A 
ATOM     32  C   UNL d   1      61.996  49.707  53.498  0.00  0.00     0.000 A 
ATOM     33  C   UNL d   1      62.478  49.681  52.817  0.00  0.00     0.000 A 
ATOM     34  C   UNL d   1      62.163  49.471  52.086  0.00  0.00     0.003 A 
ENDBRANCH  27  29
ENDBRANCH   2  27
TORSDOF 6
ENDMDL
