MODEL 1
REMARK VINA RESULT:      -9.1      0.000      0.000
REMARK  4 active torsions:
REMARK  status: ('A' for Active; 'I' for Inactive)
REMARK    1  A    between atoms: C_9  and  C_2 
REMARK    2  A    between atoms: N_11  and  C_9 
REMARK    3  A    between atoms: C_14  and  N_11 
REMARK    4  A    between atoms: C_17  and  C_14 
ROOT
ATOM      1  C   UNL d   1      53.383  33.234  53.920  0.00  0.00     0.106 A 
ATOM      2  C   UNL d   1      52.184  33.681  53.285  0.00  0.00     0.025 A 
ATOM      3  C   UNL d   1      52.800  33.809  53.815  0.00  0.00     0.025 A 
ATOM      4  O   UNL d   1      53.349  32.531  53.494  0.00  0.00    -0.273 OA
ATOM      5  C   UNL d   1      53.999  33.364  54.451  0.00  0.00     0.062 A 
ATOM      6  C   UNL d   1      52.729  32.397  52.958  0.00  0.00     0.300 A 
ATOM      7  C   UNL d   1      52.147  32.972  52.853  0.00  0.00     0.070 A 
ATOM      8  C   UNL d   1      52.834  34.514  54.241  0.00  0.00     0.005 A 
ATOM      9  C   UNL d   1      54.029  34.070  54.876  0.00  0.00     0.198 A 
ATOM     10  O   UNL d   1      52.699  31.686  52.530  0.00  0.00    -0.259 OA
ATOM     11  C   UNL d   1      53.450  34.642  54.772  0.00  0.00     0.042 A 
ATOM     12  O   UNL d   1      54.647  34.201  55.410  0.00  0.00    -0.286 OA
ATOM     13  C   UNL d   1      54.581  32.789  54.556  0.00  0.00     0.005 C 
ENDROOT
BRANCH   2  14
ATOM     14  C   UNL d   1      51.608  34.251  53.181  0.00  0.00     0.081 C 
BRANCH  14  15
ATOM     15  N   UNL d   1      51.059  34.173  52.563  0.00  0.00    -0.301 N 
ATOM     16  C   UNL d   1      51.304  34.310  51.787  0.00  0.00     0.100 C 
BRANCH  15  17
ATOM     17  C   UNL d   1      50.276  33.961  52.723  0.00  0.00     0.080 C 
BRANCH  17  18
ATOM     18  C   UNL d   1      49.661  34.470  52.522  0.00  0.00     0.018 A 
ATOM     19  C   UNL d   1      49.334  34.435  51.784  0.00  0.00     0.002 A 
ATOM     20  C   UNL d   1      48.716  34.942  51.572  0.00  0.00     0.000 A 
ATOM     21  C   UNL d   1      48.427  35.497  52.129  0.00  0.00     0.000 A 
ATOM     22  C   UNL d   1      48.773  35.520  52.881  0.00  0.00     0.000 A 
ATOM     23  C   UNL d   1      49.382  35.013  53.076  0.00  0.00     0.002 A 
ENDBRANCH  17  18
ENDBRANCH  15  17
ENDBRANCH  14  15
ENDBRANCH   2  14
TORSDOF 4
ENDMDL
MODEL 2
REMARK VINA RESULT:      -8.9      2.314      4.397
REMARK  4 active torsions:
REMARK  status: ('A' for Active; 'I' for Inactive)
REMARK    1  A    between atoms: C_9  and  C_2 
REMARK    2  A    between atoms: N_11  and  C_9 
REMARK    3  A    between atoms: C_14  and  N_11 
REMARK    4  A    between atoms: C_17  and  C_14 
ROOT
ATOM      1  C   UNL d   1      53.501  34.460  54.389  0.00  0.00     0.106 A 
ATOM      2  C   UNL d   1      53.817  33.099  54.093  0.00  0.00     0.025 A 
ATOM      3  C   UNL d   1      53.318  33.748  54.013  0.00  0.00     0.025 A 
ATOM      4  O   UNL d   1      54.183  34.521  54.844  0.00  0.00    -0.273 OA
ATOM      5  C   UNL d   1      53.001  35.109  54.308  0.00  0.00     0.062 A 
ATOM      6  C   UNL d   1      54.690  33.868  54.928  0.00  0.00     0.300 A 
ATOM      7  C   UNL d   1      54.507  33.157  54.552  0.00  0.00     0.070 A 
ATOM      8  C   UNL d   1      52.634  33.686  53.557  0.00  0.00     0.005 A 
ATOM      9  C   UNL d   1      52.317  35.043  53.851  0.00  0.00     0.198 A 
ATOM     10  O   UNL d   1      55.378  33.935  55.389  0.00  0.00    -0.259 OA
ATOM     11  C   UNL d   1      52.135  34.336  53.477  0.00  0.00     0.042 A 
ATOM     12  O   UNL d   1      51.814  35.695  53.769  0.00  0.00    -0.286 OA
ATOM     13  C   UNL d   1      53.184  35.820  54.684  0.00  0.00     0.005 C 
ENDROOT
BRANCH   2  14
ATOM     14  C   UNL d   1      53.635  32.394  53.721  0.00  0.00     0.081 C 
BRANCH  14  15
ATOM     15  N   UNL d   1      53.780  31.674  54.108  0.00  0.00    -0.301 N 
ATOM     16  C   UNL d   1      53.670  31.627  54.924  0.00  0.00     0.100 C 
BRANCH  15  17
ATOM     17  C   UNL d   1      54.033  31.013  53.681  0.00  0.00     0.080 C 
BRANCH  17  18
ATOM     18  C   UNL d   1      53.554  30.346  53.632  0.00  0.00     0.018 A 
ATOM     19  C   UNL d   1      53.622  29.759  54.184  0.00  0.00     0.002 A 
ATOM     20  C   UNL d   1      53.145  29.085  54.145  0.00  0.00     0.000 A 
ATOM     21  C   UNL d   1      52.586  29.010  53.526  0.00  0.00     0.000 A 
ATOM     22  C   UNL d   1      52.527  29.619  52.968  0.00  0.00     0.000 A 
ATOM     23  C   UNL d   1      53.005  30.279  53.020  0.00  0.00     0.002 A 
ENDBRANCH  17  18
ENDBRANCH  15  17
ENDBRANCH  14  15
ENDBRANCH   2  14
TORSDOF 4
ENDMDL
MODEL 3
REMARK VINA RESULT:      -8.8      1.488      2.718
REMARK  4 active torsions:
REMARK  status: ('A' for Active; 'I' for Inactive)
REMARK    1  A    between atoms: C_9  and  C_2 
REMARK    2  A    between atoms: N_11  and  C_9 
REMARK    3  A    between atoms: C_14  and  N_11 
REMARK    4  A    between atoms: C_17  and  C_14 
ROOT
ATOM      1  C   UNL d   1      53.565  31.123  53.458  0.00  0.00     0.106 A 
ATOM      2  C   UNL d   1      52.868  32.341  53.193  0.00  0.00     0.025 A 
ATOM      3  C   UNL d   1      52.868  31.521  53.267  0.00  0.00     0.025 A 
ATOM      4  O   UNL d   1      54.261  31.544  53.576  0.00  0.00    -0.273 OA
ATOM      5  C   UNL d   1      53.563  30.302  53.532  0.00  0.00     0.062 A 
ATOM      6  C   UNL d   1      54.267  32.371  53.503  0.00  0.00     0.300 A 
ATOM      7  C   UNL d   1      53.570  32.770  53.312  0.00  0.00     0.070 A 
ATOM      8  C   UNL d   1      52.170  31.100  53.149  0.00  0.00     0.005 A 
ATOM      9  C   UNL d   1      52.862  29.884  53.413  0.00  0.00     0.198 A 
ATOM     10  O   UNL d   1      54.973  32.793  53.623  0.00  0.00    -0.259 OA
ATOM     11  C   UNL d   1      52.170  30.280  53.222  0.00  0.00     0.042 A 
ATOM     12  O   UNL d   1      52.859  29.060  53.486  0.00  0.00    -0.286 OA
ATOM     13  C   UNL d   1      54.259  29.904  53.723  0.00  0.00     0.005 C 
ENDROOT
BRANCH   2  14
ATOM     14  C   UNL d   1      52.179  32.736  53.004  0.00  0.00     0.081 C 
BRANCH  14  15
ATOM     15  N   UNL d   1      52.100  33.541  53.192  0.00  0.00    -0.301 N 
ATOM     16  C   UNL d   1      52.230  33.787  53.969  0.00  0.00     0.100 C 
BRANCH  15  17
ATOM     17  C   UNL d   1      51.893  34.089  52.608  0.00  0.00     0.080 C 
BRANCH  17  18
ATOM     18  C   UNL d   1      51.101  34.266  52.472  0.00  0.00     0.018 A 
ATOM     19  C   UNL d   1      50.638  34.537  53.076  0.00  0.00     0.002 A 
ATOM     20  C   UNL d   1      49.842  34.718  52.950  0.00  0.00     0.000 A 
ATOM     21  C   UNL d   1      49.512  34.620  52.186  0.00  0.00     0.000 A 
ATOM     22  C   UNL d   1      49.999  34.343  51.577  0.00  0.00     0.000 A 
ATOM     23  C   UNL d   1      50.783  34.168  51.717  0.00  0.00     0.002 A 
ENDBRANCH  17  18
ENDBRANCH  15  17
ENDBRANCH  14  15
ENDBRANCH   2  14
TORSDOF 4
ENDMDL
MODEL 4
REMARK VINA RESULT:      -8.5      2.335      4.444
REMARK  4 active torsions:
REMARK  status: ('A' for Active; 'I' for Inactive)
REMARK    1  A    between atoms: C_9  and  C_2 
REMARK    2  A    between atoms: N_11  and  C_9 
REMARK    3  A    between atoms: C_14  and  N_11 
REMARK    4  A    between atoms: C_17  and  C_14 
ROOT
ATOM      1  C   UNL d   1      53.056  33.695  53.830  0.00  0.00     0.106 A 
ATOM      2  C   UNL d   1      53.191  32.295  53.579  0.00  0.00     0.025 A 
ATOM      3  C   UNL d   1      53.397  32.965  54.010  0.00  0.00     0.025 A 
ATOM      4  O   UNL d   1      52.509  33.754  53.219  0.00  0.00    -0.273 OA
ATOM      5  C   UNL d   1      53.264  34.364  54.262  0.00  0.00     0.062 A 
ATOM      6  C   UNL d   1      52.298  33.080  52.781  0.00  0.00     0.300 A 
ATOM      7  C   UNL d   1      52.639  32.351  52.961  0.00  0.00     0.070 A 
ATOM      8  C   UNL d   1      53.946  32.906  54.623  0.00  0.00     0.005 A 
ATOM      9  C   UNL d   1      53.813  34.301  54.874  0.00  0.00     0.198 A 
ATOM     10  O   UNL d   1      51.745  33.144  52.164  0.00  0.00    -0.259 OA
ATOM     11  C   UNL d   1      54.152  33.576  55.054  0.00  0.00     0.042 A 
ATOM     12  O   UNL d   1      54.022  34.973  55.309  0.00  0.00    -0.286 OA
ATOM     13  C   UNL d   1      52.923  35.094  54.081  0.00  0.00     0.005 C 
ENDROOT
BRANCH   2  14
ATOM     14  C   UNL d   1      53.529  31.573  53.758  0.00  0.00     0.081 C 
BRANCH  14  15
ATOM     15  N   UNL d   1      53.223  30.880  53.417  0.00  0.00    -0.301 N 
ATOM     16  C   UNL d   1      53.420  30.694  52.638  0.00  0.00     0.100 C 
BRANCH  15  17
ATOM     17  C   UNL d   1      52.728  30.382  53.855  0.00  0.00     0.080 C 
BRANCH  17  18
ATOM     18  C   UNL d   1      53.033  29.703  54.206  0.00  0.00     0.018 A 
ATOM     19  C   UNL d   1      53.402  29.145  53.752  0.00  0.00     0.002 A 
ATOM     20  C   UNL d   1      53.711  28.459  54.094  0.00  0.00     0.000 A 
ATOM     21  C   UNL d   1      53.640  28.342  54.921  0.00  0.00     0.000 A 
ATOM     22  C   UNL d   1      53.260  28.923  55.373  0.00  0.00     0.000 A 
ATOM     23  C   UNL d   1      52.959  29.595  55.020  0.00  0.00     0.002 A 
ENDBRANCH  17  18
ENDBRANCH  15  17
ENDBRANCH  14  15
ENDBRANCH   2  14
TORSDOF 4
ENDMDL
MODEL 5
REMARK VINA RESULT:      -7.1      2.327      4.902
REMARK  4 active torsions:
REMARK  status: ('A' for Active; 'I' for Inactive)
REMARK    1  A    between atoms: C_9  and  C_2 
REMARK    2  A    between atoms: N_11  and  C_9 
REMARK    3  A    between atoms: C_14  and  N_11 
REMARK    4  A    between atoms: C_17  and  C_14 
ROOT
ATOM      1  C   UNL d   1      48.306  35.414  52.401  0.00  0.00     0.106 A 
ATOM      2  C   UNL d   1      49.579  34.832  52.683  0.00  0.00     0.025 A 
ATOM      3  C   UNL d   1      48.943  35.300  52.913  0.00  0.00     0.025 A 
ATOM      4  O   UNL d   1      48.306  35.059  51.659  0.00  0.00    -0.273 OA
ATOM      5  C   UNL d   1      47.670  35.883  52.632  0.00  0.00     0.062 A 
ATOM      6  C   UNL d   1      48.945  34.585  51.422  0.00  0.00     0.300 A 
ATOM      7  C   UNL d   1      49.582  34.472  51.934  0.00  0.00     0.070 A 
ATOM      8  C   UNL d   1      48.944  35.656  53.656  0.00  0.00     0.005 A 
ATOM      9  C   UNL d   1      47.674  36.238  53.377  0.00  0.00     0.198 A 
ATOM     10  O   UNL d   1      48.941  34.229  50.672  0.00  0.00    -0.259 OA
ATOM     11  C   UNL d   1      48.307  36.125  53.886  0.00  0.00     0.042 A 
ATOM     12  O   UNL d   1      47.036  36.709  53.611  0.00  0.00    -0.286 OA
ATOM     13  C   UNL d   1      47.033  35.997  52.120  0.00  0.00     0.005 C 
ENDROOT
BRANCH   2  14
ATOM     14  C   UNL d   1      50.210  34.719  53.190  0.00  0.00     0.081 C 
BRANCH  14  15
ATOM     15  N   UNL d   1      50.790  34.154  53.006  0.00  0.00    -0.301 N 
ATOM     16  C   UNL d   1      50.601  33.353  53.053  0.00  0.00     0.100 C 
BRANCH  15  17
ATOM     17  C   UNL d   1      51.549  34.393  52.780  0.00  0.00     0.080 C 
BRANCH  17  18
ATOM     18  C   UNL d   1      52.192  34.244  53.271  0.00  0.00     0.018 A 
ATOM     19  C   UNL d   1      52.473  33.491  53.350  0.00  0.00     0.002 A 
ATOM     20  C   UNL d   1      53.118  33.330  53.841  0.00  0.00     0.000 A 
ATOM     21  C   UNL d   1      53.485  33.956  54.260  0.00  0.00     0.000 A 
ATOM     22  C   UNL d   1      53.186  34.723  54.168  0.00  0.00     0.000 A 
ATOM     23  C   UNL d   1      52.547  34.866  53.680  0.00  0.00     0.002 A 
ENDBRANCH  17  18
ENDBRANCH  15  17
ENDBRANCH  14  15
ENDBRANCH   2  14
TORSDOF 4
ENDMDL
