MODEL 1
REMARK VINA RESULT:      36.8      0.000      0.000
REMARK  3 active torsions:
REMARK  status: ('A' for Active; 'I' for Inactive)
REMARK    1  A    between atoms: C_11  and  N_1 
REMARK    2  A    between atoms: C_3  and  C_6 
REMARK    3  A    between atoms: C_6  and  N_5 
ROOT
ATOM      1  N   UNL d   1      13.299  12.169  -3.637  0.00  0.00    -0.301 N 
ATOM      2  N   UNL d   1      13.616  12.126  -2.006  0.00  0.00    -0.300 N 
ATOM      3  C   UNL d   1      14.000  12.517  -3.331  0.00  0.00     0.100 A 
ATOM      4  C   UNL d   1      12.770  11.807  -3.117  0.00  0.00     0.100 A 
ATOM      5  C   UNL d   1      12.915  11.779  -2.312  0.00  0.00     0.100 A 
ATOM      6  C   UNL d   1      14.156  12.493  -2.513  0.00  0.00     0.100 A 
ENDROOT
BRANCH   2   7
ATOM      7  C   UNL d   1      13.771  12.103  -1.188  0.00  0.00     0.080 C 
BRANCH   7   8
ATOM      8  C   UNL d   1      14.512  12.326  -0.901  0.00  0.00     0.019 A 
ATOM      9  C   UNL d   1      14.630  13.103  -0.607  0.00  0.00     0.022 A 
ATOM     10  C   UNL d   1      15.370  13.326  -0.321  0.00  0.00     0.120 A 
ATOM     11  C   UNL d   1      14.006  13.634  -0.609  0.00  0.00     0.003 A 
ATOM     12  N   UNL d   1      15.496  14.082  -0.032  0.00  0.00    -0.241 NA
ATOM     13  C   UNL d   1      16.002  12.774  -0.323  0.00  0.00     0.213 A 
ATOM     14  C   UNL d   1      14.864  14.635  -0.029  0.00  0.00     0.099 A 
ATOM     15  C   UNL d   1      14.124  14.413  -0.316  0.00  0.00     0.021 A 
ATOM     16  C   UNL d   1      15.882  12.002  -0.615  0.00  0.00     0.044 A 
ATOM     17  O   UNL d   1      16.742  12.996  -0.037  0.00  0.00    -0.285 OA
ATOM     18  C   UNL d   1      15.142  11.780  -0.902  0.00  0.00     0.005 A 
ENDBRANCH   7   8
ENDBRANCH   2   7
BRANCH   1  19
ATOM     19  C   UNL d   1      13.340  12.302  -4.461  0.00  0.00     0.064 A 
ATOM     20  C   UNL d   1      13.452  11.801  -5.094  0.00  0.00     0.018 A 
ATOM     21  C   UNL d   1      13.463  12.132  -5.879  0.00  0.00     0.002 A 
ATOM     22  C   UNL d   1      13.366  12.918  -5.997  0.00  0.00     0.000 A 
ATOM     23  C   UNL d   1      13.252  13.420  -5.344  0.00  0.00     0.002 A 
ATOM     24  C   UNL d   1      13.239  13.111  -4.582  0.00  0.00     0.018 A 
ENDBRANCH   1  19
TORSDOF 3
ENDMDL
