MODEL 1
REMARK VINA RESULT:      23.9      0.000      0.000
REMARK  3 active torsions:
REMARK  status: ('A' for Active; 'I' for Inactive)
REMARK    1  A    between atoms: C_2  and  S_1 
REMARK    2  A    between atoms: N_3  and  S_1 
REMARK    3  A    between atoms: O_17  and  C_7 
ROOT
ATOM      1  S   UNL d   1      59.093  49.684  51.023  0.00  0.00     0.273 S 
ATOM      2  O   UNL d   1      59.380  49.661  50.234  0.00  0.00    -0.200 OA
ATOM      3  O   UNL d   1      58.814  49.707  51.807  0.00  0.00    -0.200 OA
ENDROOT
BRANCH   1   4
ATOM      4  C   UNL d   1      59.890  49.684  51.314  0.00  0.00     0.127 A 
ATOM      5  C   UNL d   1      60.013  49.694  52.121  0.00  0.00     0.026 A 
ATOM      6  C   UNL d   1      60.782  49.694  52.426  0.00  0.00     0.059 A 
ATOM      7 CL   UNL d   1      60.902  49.704  53.249  0.00  0.00    -0.082 Cl
ATOM      8  C   UNL d   1      61.439  49.686  51.909  0.00  0.00     0.013 A 
ATOM      9  C   UNL d   1      61.295  49.676  51.079  0.00  0.00     0.026 A 
ATOM     10  C   UNL d   1      60.523  49.676  50.790  0.00  0.00     0.106 A 
BRANCH  10  11
ATOM     11  O   UNL d   1      60.403  49.666  49.967  0.00  0.00    -0.327 OA
ATOM     12  C   UNL d   1      61.053  49.678  49.456  0.00  0.00     0.181 C 
ENDBRANCH  10  11
ENDBRANCH   1   4
BRANCH   1  13
ATOM     13  N   UNL d   1      58.314  49.684  50.752  0.00  0.00    -0.226 N 
ATOM     14  C   UNL d   1      58.139  49.670  49.950  0.00  0.00     0.111 A 
ATOM     15  C   UNL d   1      57.360  49.670  49.679  0.00  0.00     0.100 A 
ATOM     16  N   UNL d   1      56.737  49.684  50.218  0.00  0.00    -0.299 N 
ATOM     17  C   UNL d   1      56.908  49.698  51.023  0.00  0.00     0.100 A 
ATOM     18  C   UNL d   1      56.165  49.684  49.990  0.00  0.00     0.100 C 
ATOM     19  C   UNL d   1      57.688  49.698  51.291  0.00  0.00     0.111 A 
ENDBRANCH   1  13
TORSDOF 3
ENDMDL
