MODEL 1
REMARK VINA RESULT:      -9.5      0.000      0.000
REMARK  2 active torsions:
REMARK  status: ('A' for Active; 'I' for Inactive)
REMARK    1  A    between atoms: N_7  and  C_3 
REMARK    2  A    between atoms: C_11  and  N_8 
ROOT
ATOM      1  N   UNL d   1      52.153  33.519  53.189  0.00  0.00    -0.286 N 
ATOM      2  N   UNL d   1      50.721  34.167  52.701  0.00  0.00    -0.301 N 
ATOM      3  C   UNL d   1      52.144  34.097  52.599  0.00  0.00     0.101 A 
ATOM      4  C   UNL d   1      51.456  33.268  53.532  0.00  0.00     0.101 A 
ATOM      5  C   UNL d   1      51.424  34.419  52.357  0.00  0.00     0.100 A 
ATOM      6  C   UNL d   1      50.735  33.590  53.290  0.00  0.00     0.100 A 
ENDROOT
BRANCH   1   7
ATOM      7  C   UNL d   1      52.869  33.198  53.430  0.00  0.00     0.154 A 
ATOM      8  C   UNL d   1      53.317  33.583  53.991  0.00  0.00     0.091 A 
ATOM      9  C   UNL d   1      54.034  33.262  54.232  0.00  0.00     0.170 A 
ATOM     10  C   UNL d   1      53.194  34.288  54.404  0.00  0.00     0.127 A 
ATOM     11  N   UNL d   1      54.358  33.770  54.798  0.00  0.00    -0.209 N 
ATOM     12  N   UNL d   1      54.297  32.558  53.912  0.00  0.00    -0.205 NA
ATOM     13  C   UNL d   1      55.078  33.657  55.188  0.00  0.00     0.123 C 
ATOM     14  N   UNL d   1      53.841  34.400  54.903  0.00  0.00    -0.162 NA
ATOM     15  C   UNL d   1      53.845  32.175  53.350  0.00  0.00     0.202 A 
ATOM     16  N   UNL d   1      53.126  32.498  53.108  0.00  0.00    -0.206 NA
ENDBRANCH   1   7
BRANCH   2  17
ATOM     17  C   UNL d   1      50.003  34.492  52.456  0.00  0.00     0.065 A 
ATOM     18  C   UNL d   1      49.732  34.349  51.695  0.00  0.00     0.030 A 
ATOM     19  C   UNL d   1      49.016  34.668  51.439  0.00  0.00     0.070 A 
ATOM     20 CL   UNL d   1      48.748  34.520  50.672  0.00  0.00    -0.081 Cl
ATOM     21  C   UNL d   1      48.570  35.138  51.958  0.00  0.00     0.068 A 
ATOM     22  C   UNL d   1      48.844  35.283  52.727  0.00  0.00     0.014 A 
ATOM     23 CL   UNL d   1      47.852  35.461  51.709  0.00  0.00    -0.082 Cl
ATOM     24  C   UNL d   1      49.562  34.960  52.975  0.00  0.00     0.018 A 
ENDBRANCH   2  17
TORSDOF 2
ENDMDL
MODEL 2
REMARK VINA RESULT:      -8.6      0.765      1.597
REMARK  2 active torsions:
REMARK  status: ('A' for Active; 'I' for Inactive)
REMARK    1  A    between atoms: N_7  and  C_3 
REMARK    2  A    between atoms: C_11  and  N_8 
ROOT
ATOM      1  N   UNL d   1      52.018  33.370  53.174  0.00  0.00    -0.286 N 
ATOM      2  N   UNL d   1      50.632  34.120  52.698  0.00  0.00    -0.301 N 
ATOM      3  C   UNL d   1      52.009  33.810  52.475  0.00  0.00     0.101 A 
ATOM      4  C   UNL d   1      51.343  33.306  53.630  0.00  0.00     0.101 A 
ATOM      5  C   UNL d   1      51.312  34.184  52.240  0.00  0.00     0.100 A 
ATOM      6  C   UNL d   1      50.647  33.680  53.395  0.00  0.00     0.100 A 
ENDROOT
BRANCH   1   7
ATOM      7  C   UNL d   1      52.711  32.997  53.409  0.00  0.00     0.154 A 
ATOM      8  C   UNL d   1      52.814  32.203  53.259  0.00  0.00     0.091 A 
ATOM      9  C   UNL d   1      53.507  31.830  53.494  0.00  0.00     0.170 A 
ATOM     10  C   UNL d   1      52.328  31.646  52.890  0.00  0.00     0.127 A 
ATOM     11  N   UNL d   1      53.452  31.036  53.270  0.00  0.00    -0.209 N 
ATOM     12  N   UNL d   1      54.092  32.253  53.877  0.00  0.00    -0.205 NA
ATOM     13  C   UNL d   1      54.031  30.460  53.400  0.00  0.00     0.123 C 
ATOM     14  N   UNL d   1      52.728  30.924  52.898  0.00  0.00    -0.162 NA
ATOM     15  C   UNL d   1      53.984  33.049  54.025  0.00  0.00     0.202 A 
ATOM     16  N   UNL d   1      53.289  33.423  53.789  0.00  0.00    -0.206 NA
ENDBRANCH   1   7
BRANCH   2  17
ATOM     17  C   UNL d   1      49.938  34.497  52.458  0.00  0.00     0.065 A 
ATOM     18  C   UNL d   1      49.629  34.343  51.714  0.00  0.00     0.030 A 
ATOM     19  C   UNL d   1      48.936  34.713  51.464  0.00  0.00     0.070 A 
ATOM     20 CL   UNL d   1      48.630  34.554  50.713  0.00  0.00    -0.081 Cl
ATOM     21  C   UNL d   1      48.551  35.244  51.972  0.00  0.00     0.068 A 
ATOM     22  C   UNL d   1      48.863  35.399  52.725  0.00  0.00     0.014 A 
ATOM     23 CL   UNL d   1      47.857  35.618  51.729  0.00  0.00    -0.082 Cl
ATOM     24  C   UNL d   1      49.557  35.025  52.967  0.00  0.00     0.018 A 
ENDBRANCH   2  17
TORSDOF 2
ENDMDL
MODEL 3
REMARK VINA RESULT:      -8.6      2.348      4.947
REMARK  2 active torsions:
REMARK  status: ('A' for Active; 'I' for Inactive)
REMARK    1  A    between atoms: N_7  and  C_3 
REMARK    2  A    between atoms: C_11  and  N_8 
ROOT
ATOM      1  N   UNL d   1      50.595  34.256  52.611  0.00  0.00    -0.286 N 
ATOM      2  N   UNL d   1      51.969  33.847  53.419  0.00  0.00    -0.301 N 
ATOM      3  C   UNL d   1      51.284  34.697  52.498  0.00  0.00     0.101 A 
ATOM      4  C   UNL d   1      50.592  33.619  53.122  0.00  0.00     0.101 A 
ATOM      5  C   UNL d   1      51.971  34.488  52.905  0.00  0.00     0.100 A 
ATOM      6  C   UNL d   1      51.278  33.411  53.529  0.00  0.00     0.100 A 
ENDROOT
BRANCH   1   7
ATOM      7  C   UNL d   1      49.911  34.463  52.207  0.00  0.00     0.154 A 
ATOM      8  C   UNL d   1      49.365  34.954  52.559  0.00  0.00     0.091 A 
ATOM      9  C   UNL d   1      48.681  35.161  52.154  0.00  0.00     0.170 A 
ATOM     10  C   UNL d   1      49.352  35.320  53.300  0.00  0.00     0.127 A 
ATOM     11  N   UNL d   1      48.239  35.658  52.646  0.00  0.00    -0.209 N 
ATOM     12  N   UNL d   1      48.547  34.876  51.401  0.00  0.00    -0.205 NA
ATOM     13  C   UNL d   1      47.509  35.996  52.456  0.00  0.00     0.123 C 
ATOM     14  N   UNL d   1      48.653  35.755  53.350  0.00  0.00    -0.162 NA
ATOM     15  C   UNL d   1      49.097  34.384  51.051  0.00  0.00     0.202 A 
ATOM     16  N   UNL d   1      49.783  34.176  51.457  0.00  0.00    -0.206 NA
ENDBRANCH   1   7
BRANCH   2  17
ATOM     17  C   UNL d   1      52.659  33.642  53.824  0.00  0.00     0.065 A 
ATOM     18  C   UNL d   1      53.090  32.986  53.585  0.00  0.00     0.030 A 
ATOM     19  C   UNL d   1      53.780  32.772  53.982  0.00  0.00     0.070 A 
ATOM     20 CL   UNL d   1      54.209  32.111  53.736  0.00  0.00    -0.081 Cl
ATOM     21  C   UNL d   1      54.037  33.226  54.628  0.00  0.00     0.068 A 
ATOM     22  C   UNL d   1      53.601  33.889  54.869  0.00  0.00     0.014 A 
ATOM     23 CL   UNL d   1      54.727  33.017  55.030  0.00  0.00    -0.082 Cl
ATOM     24  C   UNL d   1      52.912  34.097  54.467  0.00  0.00     0.018 A 
ENDBRANCH   2  17
TORSDOF 2
ENDMDL
