MODEL 1
REMARK VINA RESULT:      20.1      0.000      0.000
REMARK  3 active torsions:
REMARK  status: ('A' for Active; 'I' for Inactive)
REMARK    1  A    between atoms: C_6  and  C_1 
REMARK    2  A    between atoms: C_7  and  C_5 
REMARK    3  A    between atoms: C_15  and  C_14 
ROOT
ATOM      1  C   UNL d   1     -53.102  24.009  33.774  0.00  0.00     0.169 A 
ATOM      2  C   UNL d   1     -53.135  24.769  33.971  0.00  0.00     0.048 A 
ATOM      3  N   UNL d   1     -51.839  24.181  33.330  0.00  0.00    -0.148 NA
ATOM      4  N   UNL d   1     -52.447  23.710  33.449  0.00  0.00    -0.142 NA
ATOM      5  C   UNL d   1     -51.868  24.946  33.527  0.00  0.00     0.105 A 
ENDROOT
BRANCH   5   6
ATOM      6  C   UNL d   1     -51.345  25.571  33.478  0.00  0.00     0.019 A 
ATOM      7  C   UNL d   1     -51.638  26.341  33.377  0.00  0.00     0.002 A 
ATOM      8  C   UNL d   1     -51.119  26.971  33.327  0.00  0.00     0.000 A 
ATOM      9  C   UNL d   1     -50.306  26.846  33.377  0.00  0.00     0.000 A 
ATOM     10  C   UNL d   1     -50.012  26.074  33.478  0.00  0.00     0.000 A 
ATOM     11  C   UNL d   1     -50.539  25.441  33.528  0.00  0.00     0.002 A 
BRANCH   9  12
ATOM     12  C   UNL d   1     -49.768  27.498  33.325  0.00  0.00     0.000 C 
ATOM     13  C   UNL d   1     -50.062  28.289  33.319  0.00  0.00     0.000 C 
ENDBRANCH   9  12
ENDBRANCH   5   6
BRANCH   1  14
ATOM     14  C   UNL d   1     -53.724  23.553  33.902  0.00  0.00     0.231 C 
ATOM     15  O   UNL d   1     -54.231  23.409  33.313  0.00  0.00    -0.643 OA
ATOM     16  O   UNL d   1     -53.848  23.237  34.614  0.00  0.00    -0.643 OA
ENDBRANCH   1  14
TORSDOF 3
ENDMDL
