MODEL 1
REMARK VINA RESULT:      11.3      0.000      0.000
REMARK  4 active torsions:
REMARK  status: ('A' for Active; 'I' for Inactive)
REMARK    1  A    between atoms: C_5  and  C_1 
REMARK    2  A    between atoms: C_9  and  C_6 
REMARK    3  A    between atoms: C_10  and  C_9 
REMARK    4  A    between atoms: C_11  and  C_10 
ROOT
ATOM      1  C   UNL d   1     -52.342  24.613  33.384  0.00  0.00     0.169 A 
ATOM      2  N   UNL d   1     -52.649  25.376  33.393  0.00  0.00    -0.142 NA
ATOM      3  C   UNL d   1     -51.518  24.672  33.350  0.00  0.00     0.048 A 
ATOM      4  N   UNL d   1     -52.024  25.912  33.366  0.00  0.00    -0.148 NA
ATOM      5  C   UNL d   1     -51.322  25.473  33.339  0.00  0.00     0.105 A 
ENDROOT
BRANCH   5   6
ATOM      6  C   UNL d   1     -50.552  25.795  33.306  0.00  0.00     0.021 C 
BRANCH   6   7
ATOM      7  C   UNL d   1     -50.426  26.587  33.481  0.00  0.00     0.002 C 
BRANCH   7   8
ATOM      8  C   UNL d   1     -49.696  26.934  33.326  0.00  0.00     0.000 C 
ATOM      9  C   UNL d   1     -49.360  27.446  33.881  0.00  0.00     0.000 C 
ENDBRANCH   7   8
ENDBRANCH   6   7
ENDBRANCH   5   6
BRANCH   1  10
ATOM     10  C   UNL d   1     -52.777  23.914  33.404  0.00  0.00     0.231 C 
ATOM     11  O   UNL d   1     -52.388  23.189  33.335  0.00  0.00    -0.643 OA
ATOM     12  O   UNL d   1     -53.598  23.936  33.494  0.00  0.00    -0.643 OA
ENDBRANCH   1  10
TORSDOF 4
ENDMDL
MODEL 2
REMARK VINA RESULT:      14.0      2.059      3.444
REMARK  4 active torsions:
REMARK  status: ('A' for Active; 'I' for Inactive)
REMARK    1  A    between atoms: C_5  and  C_1 
REMARK    2  A    between atoms: C_9  and  C_6 
REMARK    3  A    between atoms: C_10  and  C_9 
REMARK    4  A    between atoms: C_11  and  C_10 
ROOT
ATOM      1  C   UNL d   1     -51.372  26.404  33.574  0.00  0.00     0.169 A 
ATOM      2  N   UNL d   1     -50.701  25.969  33.766  0.00  0.00    -0.142 NA
ATOM      3  C   UNL d   1     -51.973  25.871  33.378  0.00  0.00     0.048 A 
ATOM      4  N   UNL d   1     -50.878  25.167  33.691  0.00  0.00    -0.148 NA
ATOM      5  C   UNL d   1     -51.668  25.108  33.450  0.00  0.00     0.105 A 
ENDROOT
BRANCH   5   6
ATOM      6  C   UNL d   1     -52.077  24.395  33.307  0.00  0.00     0.021 C 
BRANCH   6   7
ATOM      7  C   UNL d   1     -52.899  24.380  33.313  0.00  0.00     0.002 C 
BRANCH   7   8
ATOM      8  C   UNL d   1     -53.299  23.661  33.336  0.00  0.00     0.000 C 
ATOM      9  C   UNL d   1     -54.057  23.625  33.664  0.00  0.00     0.000 C 
ENDBRANCH   7   8
ENDBRANCH   6   7
ENDBRANCH   5   6
BRANCH   1  10
ATOM     10  C   UNL d   1     -51.435  27.225  33.576  0.00  0.00     0.231 C 
ATOM     11  O   UNL d   1     -52.128  27.581  33.849  0.00  0.00    -0.643 OA
ATOM     12  O   UNL d   1     -50.809  27.692  33.307  0.00  0.00    -0.643 OA
ENDBRANCH   1  10
TORSDOF 4
ENDMDL
