MODEL 1
REMARK VINA RESULT:      -1.3      0.000      0.000
REMARK  3 active torsions:
REMARK  status: ('A' for Active; 'I' for Inactive)
REMARK    1  A    between atoms: C_4  and  C_1 
REMARK    2  A    between atoms: C_5  and  C_6 
REMARK       I    between atoms: C_6  and  N_7 
REMARK    3  A    between atoms: N_7  and  C_8 
ROOT
ATOM      1  C   UNL d   1     -41.495-122.925 -52.809  0.00  0.00     0.042 A 
ATOM      2  C   UNL d   1     -41.510-122.301 -53.344  0.00  0.00     0.087 A 
ATOM      3  C   UNL d   1     -41.300-123.691 -53.064  0.00  0.00     0.004 A 
ATOM      4  C   UNL d   1     -41.332-122.435 -54.135  0.00  0.00     0.019 A 
ATOM      5  C   UNL d   1     -41.123-123.817 -53.860  0.00  0.00     0.000 A 
ATOM      6  C   UNL d   1     -41.139-123.187 -54.393  0.00  0.00     0.002 A 
ENDROOT
BRANCH   1   7
ATOM      7  C   UNL d   1     -41.673-122.799 -52.013  0.00  0.00     0.112 A 
ATOM      8  N   UNL d   1     -42.341-122.493 -51.660  0.00  0.00    -0.238 NA
ATOM      9  C   UNL d   1     -42.215-122.494 -50.844  0.00  0.00     0.088 A 
ATOM     10  C   UNL d   1     -42.692-122.252 -50.208  0.00  0.00     0.020 A 
ATOM     11  C   UNL d   1     -41.467-122.803 -50.702  0.00  0.00     0.049 A 
ATOM     12  C   UNL d   1     -42.415-122.320 -49.437  0.00  0.00     0.002 A 
ATOM     13  C   UNL d   1     -41.662-122.630 -49.292  0.00  0.00     0.001 A 
ATOM     14  C   UNL d   1     -41.186-122.873 -49.928  0.00  0.00     0.008 A 
ATOM     15  S   UNL d   1     -41.134-122.990 -51.428  0.00  0.00    -0.066 SA
ENDBRANCH   1   7
BRANCH   2  16
ATOM     16  N   UNL d   1     -41.705-121.541 -53.081  0.00  0.00    -0.206 NA
ATOM     17  C   UNL d   1     -42.137-121.028 -53.579  0.00  0.00     0.304 C 
ATOM     18  O   UNL d   1     -42.331-120.272 -53.318  0.00  0.00    -0.263 OA
BRANCH  17  19
ATOM     19  C   UNL d   1     -42.369-121.274 -54.331  0.00  0.00     0.182 A 
ATOM     20  O   UNL d   1     -41.856-121.194 -54.973  0.00  0.00    -0.296 OA
ATOM     21  C   UNL d   1     -42.090-121.440 -55.725  0.00  0.00     0.150 A 
ATOM     22  C   UNL d   1     -42.836-121.767 -55.836  0.00  0.00     0.149 A 
ATOM     23  O   UNL d   1     -43.351-121.847 -55.194  0.00  0.00    -0.299 OA
ATOM     24  C   UNL d   1     -43.116-121.601 -54.442  0.00  0.00     0.152 A 
ENDBRANCH  17  19
ENDBRANCH   2  16
TORSDOF 3
ENDMDL
MODEL 2
REMARK VINA RESULT:      -1.2      1.969      4.413
REMARK  3 active torsions:
REMARK  status: ('A' for Active; 'I' for Inactive)
REMARK    1  A    between atoms: C_4  and  C_1 
REMARK    2  A    between atoms: C_5  and  C_6 
REMARK       I    between atoms: C_6  and  N_7 
REMARK    3  A    between atoms: N_7  and  C_8 
ROOT
ATOM      1  C   UNL d   1     -41.581-121.545 -51.998  0.00  0.00     0.042 A 
ATOM      2  C   UNL d   1     -42.020-121.889 -51.395  0.00  0.00     0.087 A 
ATOM      3  C   UNL d   1     -41.127-120.866 -51.851  0.00  0.00     0.004 A 
ATOM      4  C   UNL d   1     -42.011-121.561 -50.642  0.00  0.00     0.019 A 
ATOM      5  C   UNL d   1     -41.123-120.542 -51.092  0.00  0.00     0.000 A 
ATOM      6  C   UNL d   1     -41.566-120.891 -50.490  0.00  0.00     0.002 A 
ENDROOT
BRANCH   1   7
ATOM      7  C   UNL d   1     -41.585-121.869 -52.757  0.00  0.00     0.112 A 
ATOM      8  N   UNL d   1     -41.144-122.476 -53.078  0.00  0.00    -0.238 NA
ATOM      9  C   UNL d   1     -41.379-122.567 -53.865  0.00  0.00     0.088 A 
ATOM     10  C   UNL d   1     -41.131-123.088 -54.462  0.00  0.00     0.020 A 
ATOM     11  C   UNL d   1     -41.965-122.012 -54.020  0.00  0.00     0.049 A 
ATOM     12  C   UNL d   1     -41.471-123.050 -55.209  0.00  0.00     0.002 A 
ATOM     13  C   UNL d   1     -42.061-122.493 -55.369  0.00  0.00     0.001 A 
ATOM     14  C   UNL d   1     -42.309-121.971 -54.771  0.00  0.00     0.008 A 
ATOM     15  S   UNL d   1     -42.090-121.582 -53.334  0.00  0.00    -0.066 SA
ENDBRANCH   1   7
BRANCH   2  16
ATOM     16  N   UNL d   1     -42.470-122.567 -51.551  0.00  0.00    -0.206 NA
ATOM     17  C   UNL d   1     -42.570-123.144 -50.957  0.00  0.00     0.304 C 
ATOM     18  O   UNL d   1     -43.017-123.817 -51.112  0.00  0.00    -0.263 OA
BRANCH  17  19
ATOM     19  C   UNL d   1     -42.223-123.044 -50.215  0.00  0.00     0.182 A 
ATOM     20  O   UNL d   1     -41.471-123.348 -50.064  0.00  0.00    -0.296 OA
ATOM     21  C   UNL d   1     -41.124-123.248 -49.321  0.00  0.00     0.150 A 
ATOM     22  C   UNL d   1     -41.530-122.845 -48.730  0.00  0.00     0.149 A 
ATOM     23  O   UNL d   1     -42.283-122.541 -48.882  0.00  0.00    -0.299 OA
ATOM     24  C   UNL d   1     -42.629-122.641 -49.624  0.00  0.00     0.152 A 
ENDBRANCH  17  19
ENDBRANCH   2  16
TORSDOF 3
ENDMDL
MODEL 3
REMARK VINA RESULT:       1.5      1.496      3.949
REMARK  3 active torsions:
REMARK  status: ('A' for Active; 'I' for Inactive)
REMARK    1  A    between atoms: C_4  and  C_1 
REMARK    2  A    between atoms: C_5  and  C_6 
REMARK       I    between atoms: C_6  and  N_7 
REMARK    3  A    between atoms: N_7  and  C_8 
ROOT
ATOM      1  C   UNL d   1     -41.526-122.750 -52.765  0.00  0.00     0.042 A 
ATOM      2  C   UNL d   1     -41.520-122.232 -52.128  0.00  0.00     0.087 A 
ATOM      3  C   UNL d   1     -41.331-123.550 -52.657  0.00  0.00     0.004 A 
ATOM      4  C   UNL d   1     -41.322-122.506 -51.379  0.00  0.00     0.019 A 
ATOM      5  C   UNL d   1     -41.133-123.817 -51.902  0.00  0.00     0.000 A 
ATOM      6  C   UNL d   1     -41.129-123.293 -51.265  0.00  0.00     0.002 A 
ENDROOT
BRANCH   1   7
ATOM      7  C   UNL d   1     -41.724-122.483 -53.521  0.00  0.00     0.112 A 
ATOM      8  N   UNL d   1     -42.448-122.423 -53.890  0.00  0.00    -0.238 NA
ATOM      9  C   UNL d   1     -42.319-122.118 -54.647  0.00  0.00     0.088 A 
ATOM     10  C   UNL d   1     -42.839-121.938 -55.269  0.00  0.00     0.020 A 
ATOM     11  C   UNL d   1     -41.512-121.994 -54.736  0.00  0.00     0.049 A 
ATOM     12  C   UNL d   1     -42.546-121.635 -55.974  0.00  0.00     0.002 A 
ATOM     13  C   UNL d   1     -41.734-121.509 -56.067  0.00  0.00     0.001 A 
ATOM     14  C   UNL d   1     -41.214-121.689 -55.445  0.00  0.00     0.008 A 
ATOM     15  S   UNL d   1     -41.146-122.220 -54.038  0.00  0.00    -0.066 SA
ENDBRANCH   1   7
BRANCH   2  16
ATOM     16  N   UNL d   1     -41.716-121.436 -52.245  0.00  0.00    -0.206 NA
ATOM     17  C   UNL d   1     -42.170-121.032 -51.672  0.00  0.00     0.304 C 
ATOM     18  O   UNL d   1     -42.364-120.241 -51.789  0.00  0.00    -0.263 OA
BRANCH  17  19
ATOM     19  C   UNL d   1     -42.425-121.421 -50.991  0.00  0.00     0.182 A 
ATOM     20  O   UNL d   1     -43.194-121.719 -50.946  0.00  0.00    -0.296 OA
ATOM     21  C   UNL d   1     -43.449-122.108 -50.264  0.00  0.00     0.150 A 
ATOM     22  C   UNL d   1     -42.936-122.199 -49.628  0.00  0.00     0.149 A 
ATOM     23  O   UNL d   1     -42.167-121.900 -49.673  0.00  0.00    -0.299 OA
ATOM     24  C   UNL d   1     -41.912-121.512 -50.355  0.00  0.00     0.152 A 
ENDBRANCH  17  19
ENDBRANCH   2  16
TORSDOF 3
ENDMDL
