MODEL 1
REMARK VINA RESULT:      -4.9      0.000      0.000
REMARK  2 active torsions:
REMARK  status: ('A' for Active; 'I' for Inactive)
REMARK    1  A    between atoms: C_2  and  N_1 
REMARK    2  A    between atoms: O_12  and  C_10 
ROOT
ATOM      1  C   UNL d   1      56.704  -0.123  32.410  0.00  0.00     0.072 A 
ATOM      2  C   UNL d   1      56.177   0.419  32.734  0.00  0.00     0.042 A 
ATOM      3  C   UNL d   1      55.507   0.137  33.122  0.00  0.00     0.096 A 
ATOM      4  C   UNL d   1      56.559  -0.934  32.474  0.00  0.00     0.018 A 
ATOM      5  C   UNL d   1      55.906  -1.213  32.851  0.00  0.00     0.004 A 
ATOM      6  C   UNL d   1      55.358  -0.670  33.188  0.00  0.00     0.024 A 
ENDROOT
BRANCH   1   7
ATOM      7  N   UNL d   1      57.376   0.158  32.021  0.00  0.00    -0.242 N 
ATOM      8  C   UNL d   1      58.042   0.474  32.365  0.00  0.00     0.267 A 
ATOM      9  C   UNL d   1      58.576   0.682  31.771  0.00  0.00     0.066 A 
ATOM     10  O   UNL d   1      58.164   0.572  33.176  0.00  0.00    -0.267 OA
ATOM     11  C   UNL d   1      58.226   0.487  31.043  0.00  0.00     0.066 A 
ATOM     12  C   UNL d   1      57.479   0.160  31.191  0.00  0.00     0.267 A 
ATOM     13  O   UNL d   1      56.948  -0.107  30.627  0.00  0.00    -0.267 OA
ENDBRANCH   1   7
BRANCH   3  14
ATOM     14  O   UNL d   1      54.968   0.682  33.453  0.00  0.00    -0.328 OA
ATOM     15  C   UNL d   1      54.834   0.660  34.254  0.00  0.00     0.181 C 
ENDBRANCH   3  14
TORSDOF 2
ENDMDL
MODEL 2
REMARK VINA RESULT:      -4.4      0.983      3.160
REMARK  2 active torsions:
REMARK  status: ('A' for Active; 'I' for Inactive)
REMARK    1  A    between atoms: C_2  and  N_1 
REMARK    2  A    between atoms: O_12  and  C_10 
ROOT
ATOM      1  C   UNL d   1      56.911  -0.110  32.266  0.00  0.00     0.072 A 
ATOM      2  C   UNL d   1      56.962  -0.129  31.445  0.00  0.00     0.042 A 
ATOM      3  C   UNL d   1      57.586   0.263  31.077  0.00  0.00     0.096 A 
ATOM      4  C   UNL d   1      57.479   0.296  32.709  0.00  0.00     0.018 A 
ATOM      5  C   UNL d   1      58.090   0.680  32.353  0.00  0.00     0.004 A 
ATOM      6  C   UNL d   1      58.154   0.668  31.513  0.00  0.00     0.024 A 
ENDROOT
BRANCH   1   7
ATOM      7  N   UNL d   1      56.286  -0.502  32.637  0.00  0.00    -0.242 N 
ATOM      8  C   UNL d   1      56.155  -1.305  32.652  0.00  0.00     0.267 A 
ATOM      9  C   UNL d   1      55.468  -1.454  33.084  0.00  0.00     0.066 A 
ATOM     10  O   UNL d   1      56.630  -1.877  32.294  0.00  0.00    -0.267 OA
ATOM     11  C   UNL d   1      55.171  -0.722  33.340  0.00  0.00     0.066 A 
ATOM     12  C   UNL d   1      55.676  -0.124  33.066  0.00  0.00     0.267 A 
ATOM     13  O   UNL d   1      55.587   0.680  33.193  0.00  0.00    -0.267 OA
ENDBRANCH   1   7
BRANCH   3  14
ATOM     14  O   UNL d   1      57.643   0.247  30.244  0.00  0.00    -0.328 OA
ATOM     15  C   UNL d   1      58.378   0.192  29.905  0.00  0.00     0.181 C 
ENDBRANCH   3  14
TORSDOF 2
ENDMDL
MODEL 3
REMARK VINA RESULT:      -4.0      0.985      1.814
REMARK  2 active torsions:
REMARK  status: ('A' for Active; 'I' for Inactive)
REMARK    1  A    between atoms: C_2  and  N_1 
REMARK    2  A    between atoms: O_12  and  C_10 
ROOT
ATOM      1  C   UNL d   1      57.006   0.095  31.966  0.00  0.00     0.072 A 
ATOM      2  C   UNL d   1      56.884  -0.691  32.176  0.00  0.00     0.042 A 
ATOM      3  C   UNL d   1      56.226  -0.881  32.634  0.00  0.00     0.096 A 
ATOM      4  C   UNL d   1      56.475   0.679  32.213  0.00  0.00     0.018 A 
ATOM      5  C   UNL d   1      55.833   0.497  32.660  0.00  0.00     0.004 A 
ATOM      6  C   UNL d   1      55.695  -0.304  32.882  0.00  0.00     0.024 A 
ENDROOT
BRANCH   1   7
ATOM      7  N   UNL d   1      57.665   0.288  31.507  0.00  0.00    -0.242 N 
ATOM      8  C   UNL d   1      57.721   0.254  30.697  0.00  0.00     0.267 A 
ATOM      9  C   UNL d   1      58.477   0.496  30.472  0.00  0.00     0.066 A 
ATOM     10  O   UNL d   1      57.120   0.018  30.182  0.00  0.00    -0.267 OA
ATOM     11  C   UNL d   1      58.896   0.682  31.165  0.00  0.00     0.066 A 
ATOM     12  C   UNL d   1      58.396   0.555  31.815  0.00  0.00     0.267 A 
ATOM     13  O   UNL d   1      58.588   0.671  32.602  0.00  0.00    -0.267 OA
ENDBRANCH   1   7
BRANCH   3  14
ATOM     14  O   UNL d   1      56.097  -1.677  32.850  0.00  0.00    -0.328 OA
ATOM     15  C   UNL d   1      55.477  -1.851  33.345  0.00  0.00     0.181 C 
ENDBRANCH   3  14
TORSDOF 2
ENDMDL
MODEL 4
REMARK VINA RESULT:      -3.8      9.053      9.965
REMARK  2 active torsions:
REMARK  status: ('A' for Active; 'I' for Inactive)
REMARK    1  A    between atoms: C_2  and  N_1 
REMARK    2  A    between atoms: O_12  and  C_10 
ROOT
ATOM      1  C   UNL d   1      60.342  -8.501  35.355  0.00  0.00     0.072 A 
ATOM      2  C   UNL d   1      60.222  -8.626  34.552  0.00  0.00     0.042 A 
ATOM      3  C   UNL d   1      60.564  -9.286  34.198  0.00  0.00     0.096 A 
ATOM      4  C   UNL d   1      60.798  -9.032  35.796  0.00  0.00     0.018 A 
ATOM      5  C   UNL d   1      61.133  -9.677  35.454  0.00  0.00     0.004 A 
ATOM      6  C   UNL d   1      61.018  -9.818  34.632  0.00  0.00     0.024 A 
ENDROOT
BRANCH   1   7
ATOM      7  N   UNL d   1      60.000  -7.839  35.712  0.00  0.00    -0.242 N 
ATOM      8  C   UNL d   1      59.256  -7.789  36.035  0.00  0.00     0.267 A 
ATOM      9  C   UNL d   1      59.143  -7.027  36.330  0.00  0.00     0.066 A 
ATOM     10  O   UNL d   1      58.702  -8.401  36.064  0.00  0.00    -0.267 OA
ATOM     11  C   UNL d   1      59.840  -6.598  36.183  0.00  0.00     0.066 A 
ATOM     12  C   UNL d   1      60.378  -7.097  35.798  0.00  0.00     0.267 A 
ATOM     13  O   UNL d   1      61.133  -6.897  35.553  0.00  0.00    -0.267 OA
ENDBRANCH   1   7
BRANCH   3  14
ATOM     14  O   UNL d   1      60.446  -9.419  33.382  0.00  0.00    -0.328 OA
ATOM     15  C   UNL d   1      61.095  -9.467  32.897  0.00  0.00     0.181 C 
ENDBRANCH   3  14
TORSDOF 2
ENDMDL
MODEL 5
REMARK VINA RESULT:      -3.3      1.120      3.121
REMARK  2 active torsions:
REMARK  status: ('A' for Active; 'I' for Inactive)
REMARK    1  A    between atoms: C_2  and  N_1 
REMARK    2  A    between atoms: O_12  and  C_10 
ROOT
ATOM      1  C   UNL d   1      56.846  -0.023  32.136  0.00  0.00     0.072 A 
ATOM      2  C   UNL d   1      57.040  -0.763  31.834  0.00  0.00     0.042 A 
ATOM      3  C   UNL d   1      57.337  -0.812  31.067  0.00  0.00     0.096 A 
ATOM      4  C   UNL d   1      56.950   0.656  31.676  0.00  0.00     0.018 A 
ATOM      5  C   UNL d   1      57.240   0.611  30.927  0.00  0.00     0.004 A 
ATOM      6  C   UNL d   1      57.443  -0.140  30.604  0.00  0.00     0.024 A 
ENDROOT
BRANCH   1   7
ATOM      7  N   UNL d   1      56.548   0.028  32.905  0.00  0.00    -0.242 N 
ATOM      8  C   UNL d   1      55.819  -0.225  33.163  0.00  0.00     0.267 A 
ATOM      9  C   UNL d   1      55.752  -0.065  33.969  0.00  0.00     0.066 A 
ATOM     10  O   UNL d   1      55.241  -0.583  32.695  0.00  0.00    -0.267 OA
ATOM     11  C   UNL d   1      56.460   0.296  34.212  0.00  0.00     0.066 A 
ATOM     12  C   UNL d   1      56.961   0.358  33.554  0.00  0.00     0.267 A 
ATOM     13  O   UNL d   1      57.714   0.680  33.548  0.00  0.00    -0.267 OA
ENDBRANCH   1   7
BRANCH   3  14
ATOM     14  O   UNL d   1      57.535  -1.561  30.754  0.00  0.00    -0.328 OA
ATOM     15  C   UNL d   1      58.096  -1.602  30.168  0.00  0.00     0.181 C 
ENDBRANCH   3  14
TORSDOF 2
ENDMDL
MODEL 6
REMARK VINA RESULT:      -3.3      1.616      2.690
REMARK  2 active torsions:
REMARK  status: ('A' for Active; 'I' for Inactive)
REMARK    1  A    between atoms: C_2  and  N_1 
REMARK    2  A    between atoms: O_12  and  C_10 
ROOT
ATOM      1  C   UNL d   1      57.954   0.069  30.737  0.00  0.00     0.072 A 
ATOM      2  C   UNL d   1      57.442  -0.549  30.913  0.00  0.00     0.042 A 
ATOM      3  C   UNL d   1      57.064  -0.556  31.644  0.00  0.00     0.096 A 
ATOM      4  C   UNL d   1      58.085   0.672  31.289  0.00  0.00     0.018 A 
ATOM      5  C   UNL d   1      57.717   0.669  32.004  0.00  0.00     0.004 A 
ATOM      6  C   UNL d   1      57.190   0.041  32.197  0.00  0.00     0.024 A 
ENDROOT
BRANCH   1   7
ATOM      7  N   UNL d   1      58.335   0.078  30.004  0.00  0.00    -0.242 N 
ATOM      8  C   UNL d   1      58.032   0.355  29.302  0.00  0.00     0.267 A 
ATOM      9  C   UNL d   1      58.599   0.256  28.710  0.00  0.00     0.066 A 
ATOM     10  O   UNL d   1      57.282   0.682  29.196  0.00  0.00    -0.267 OA
ATOM     11  C   UNL d   1      59.267  -0.092  29.061  0.00  0.00     0.066 A 
ATOM     12  C   UNL d   1      59.110  -0.206  29.867  0.00  0.00     0.267 A 
ATOM     13  O   UNL d   1      59.620  -0.534  30.418  0.00  0.00    -0.267 OA
ENDBRANCH   1   7
BRANCH   3  14
ATOM     14  O   UNL d   1      56.543  -1.181  31.828  0.00  0.00    -0.328 OA
ATOM     15  C   UNL d   1      56.164  -1.175  32.546  0.00  0.00     0.181 C 
ENDBRANCH   3  14
TORSDOF 2
ENDMDL
MODEL 7
REMARK VINA RESULT:      -2.8      3.140      4.555
REMARK  2 active torsions:
REMARK  status: ('A' for Active; 'I' for Inactive)
REMARK    1  A    between atoms: C_2  and  N_1 
REMARK    2  A    between atoms: O_12  and  C_10 
ROOT
ATOM      1  C   UNL d   1      59.093  -1.131  29.149  0.00  0.00     0.072 A 
ATOM      2  C   UNL d   1      58.923  -0.802  29.883  0.00  0.00     0.042 A 
ATOM      3  C   UNL d   1      58.532  -0.078  29.912  0.00  0.00     0.096 A 
ATOM      4  C   UNL d   1      58.873  -0.738  28.455  0.00  0.00     0.018 A 
ATOM      5  C   UNL d   1      58.491  -0.031  28.480  0.00  0.00     0.004 A 
ATOM      6  C   UNL d   1      58.311   0.318  29.225  0.00  0.00     0.024 A 
ENDROOT
BRANCH   1   7
ATOM      7  N   UNL d   1      59.485  -1.857  29.118  0.00  0.00    -0.242 N 
ATOM      8  C   UNL d   1      59.145  -2.595  29.135  0.00  0.00     0.267 A 
ATOM      9  C   UNL d   1      59.742  -3.164  29.091  0.00  0.00     0.066 A 
ATOM     10  O   UNL d   1      58.336  -2.752  29.187  0.00  0.00    -0.267 OA
ATOM     11  C   UNL d   1      60.467  -2.761  29.046  0.00  0.00     0.066 A 
ATOM     12  C   UNL d   1      60.315  -1.946  29.062  0.00  0.00     0.267 A 
ATOM     13  O   UNL d   1      60.875  -1.349  29.030  0.00  0.00    -0.267 OA
ENDBRANCH   1   7
BRANCH   3  14
ATOM     14  O   UNL d   1      58.356   0.261  30.655  0.00  0.00    -0.328 OA
ATOM     15  C   UNL d   1      57.579   0.390  30.850  0.00  0.00     0.181 C 
ENDBRANCH   3  14
TORSDOF 2
ENDMDL
MODEL 8
REMARK VINA RESULT:      -2.4      1.748      3.893
REMARK  2 active torsions:
REMARK  status: ('A' for Active; 'I' for Inactive)
REMARK    1  A    between atoms: C_2  and  N_1 
REMARK    2  A    between atoms: O_12  and  C_10 
ROOT
ATOM      1  C   UNL d   1      58.216   0.091  30.341  0.00  0.00     0.072 A 
ATOM      2  C   UNL d   1      58.330  -0.699  30.144  0.00  0.00     0.042 A 
ATOM      3  C   UNL d   1      58.533  -0.888  29.369  0.00  0.00     0.096 A 
ATOM      4  C   UNL d   1      58.305   0.681  29.768  0.00  0.00     0.018 A 
ATOM      5  C   UNL d   1      58.503   0.499  29.010  0.00  0.00     0.004 A 
ATOM      6  C   UNL d   1      58.623  -0.306  28.794  0.00  0.00     0.024 A 
ENDROOT
BRANCH   1   7
ATOM      7  N   UNL d   1      58.013   0.284  31.118  0.00  0.00    -0.242 N 
ATOM      8  C   UNL d   1      57.272   0.244  31.452  0.00  0.00     0.267 A 
ATOM      9  C   UNL d   1      57.321   0.487  32.239  0.00  0.00     0.066 A 
ATOM     10  O   UNL d   1      56.584  -0.001  31.068  0.00  0.00    -0.267 OA
ATOM     11  C   UNL d   1      58.115   0.682  32.390  0.00  0.00     0.066 A 
ATOM     12  C   UNL d   1      58.552   0.558  31.696  0.00  0.00     0.267 A 
ATOM     13  O   UNL d   1      59.356   0.682  31.602  0.00  0.00    -0.267 OA
ENDBRANCH   1   7
BRANCH   3  14
ATOM     14  O   UNL d   1      58.651  -1.689  29.163  0.00  0.00    -0.328 OA
ATOM     15  C   UNL d   1      59.376  -1.916  28.878  0.00  0.00     0.181 C 
ENDBRANCH   3  14
TORSDOF 2
ENDMDL
MODEL 9
REMARK VINA RESULT:      -2.4      3.494      5.166
REMARK  2 active torsions:
REMARK  status: ('A' for Active; 'I' for Inactive)
REMARK    1  A    between atoms: C_2  and  N_1 
REMARK    2  A    between atoms: O_12  and  C_10 
ROOT
ATOM      1  C   UNL d   1      59.080  -1.765  29.140  0.00  0.00     0.072 A 
ATOM      2  C   UNL d   1      59.845  -1.964  29.366  0.00  0.00     0.042 A 
ATOM      3  C   UNL d   1      60.151  -2.691  29.132  0.00  0.00     0.096 A 
ATOM      4  C   UNL d   1      58.630  -2.289  28.685  0.00  0.00     0.018 A 
ATOM      5  C   UNL d   1      58.926  -3.000  28.455  0.00  0.00     0.004 A 
ATOM      6  C   UNL d   1      59.708  -3.217  28.680  0.00  0.00     0.024 A 
ENDROOT
BRANCH   1   7
ATOM      7  N   UNL d   1      58.771  -1.035  29.373  0.00  0.00    -0.242 N 
ATOM      8  C   UNL d   1      58.958  -0.306  29.066  0.00  0.00     0.267 A 
ATOM      9  C   UNL d   1      58.520   0.270  29.462  0.00  0.00     0.066 A 
ATOM     10  O   UNL d   1      59.496  -0.164  28.456  0.00  0.00    -0.267 OA
ATOM     11  C   UNL d   1      58.052  -0.118  30.029  0.00  0.00     0.066 A 
ATOM     12  C   UNL d   1      58.203  -0.932  29.979  0.00  0.00     0.267 A 
ATOM     13  O   UNL d   1      57.860  -1.516  30.439  0.00  0.00    -0.267 OA
ENDBRANCH   1   7
BRANCH   3  14
ATOM     14  O   UNL d   1      60.927  -2.899  29.358  0.00  0.00    -0.328 OA
ATOM     15  C   UNL d   1      61.125  -3.686  29.398  0.00  0.00     0.181 C 
ENDBRANCH   3  14
TORSDOF 2
ENDMDL
