MODEL 1
REMARK VINA RESULT:      -4.8      0.000      0.000
REMARK  8 active torsions:
REMARK  status: ('A' for Active; 'I' for Inactive)
REMARK    1  A    between atoms: C_6  and  N_1 
REMARK    2  A    between atoms: C_15  and  N_2 
REMARK    3  A    between atoms: C_8  and  C_3 
REMARK    4  A    between atoms: O_23  and  C_5 
REMARK    5  A    between atoms: C_7  and  O_9 
REMARK    6  A    between atoms: O_9  and  C_21 
REMARK    7  A    between atoms: C_20  and  C_15 
REMARK    8  A    between atoms: C_21  and  C_20 
ROOT
ATOM      1  C   UNL d   1     -43.765  12.703  21.816  0.00  0.00     0.238 C 
ATOM      2  O   UNL d   1     -43.410  12.136  22.300  0.00  0.00    -0.283 OA
ENDROOT
BRANCH   1   3
ATOM      3  C   UNL d   1     -43.423  12.903  21.092  0.00  0.00     0.125 C 
BRANCH   3   4
ATOM      4  N   UNL d   1     -42.716  13.342  21.067  0.00  0.00    -0.297 N 
ATOM      5  C   UNL d   1     -41.995  12.932  21.046  0.00  0.00     0.100 A 
ATOM      6  C   UNL d   1     -41.287  13.355  21.022  0.00  0.00     0.100 A 
ATOM      7  N   UNL d   1     -41.302  14.182  21.019  0.00  0.00    -0.301 N 
ATOM      8  C   UNL d   1     -42.024  14.588  21.040  0.00  0.00     0.100 A 
ATOM      9  C   UNL d   1     -42.741  14.160  21.065  0.00  0.00     0.100 A 
BRANCH   7  10
ATOM     10  C   UNL d   1     -40.594  14.604  20.995  0.00  0.00     0.064 A 
ATOM     11  C   UNL d   1     -40.518  15.257  20.497  0.00  0.00     0.020 A 
ATOM     12  C   UNL d   1     -39.808  15.683  20.471  0.00  0.00     0.031 A 
ATOM     13  C   UNL d   1     -39.179  15.448  20.947  0.00  0.00     0.140 A 
ATOM     14  C   UNL d   1     -39.255  14.791  21.447  0.00  0.00     0.031 A 
ATOM     15  F   UNL d   1     -38.470  15.871  20.922  0.00  0.00    -0.204 F 
ATOM     16  C   UNL d   1     -39.964  14.376  21.466  0.00  0.00     0.020 A 
ENDBRANCH   7  10
ENDBRANCH   3   4
ENDBRANCH   1   3
BRANCH   1  17
ATOM     17  C   UNL d   1     -44.474  13.079  22.057  0.00  0.00     0.166 C 
BRANCH  17  18
ATOM     18  O   UNL d   1     -45.050  12.652  22.490  0.00  0.00    -0.300 OA
BRANCH  18  19
ATOM     19  C   UNL d   1     -45.813  12.966  22.639  0.00  0.00     0.122 A 
ATOM     20  C   UNL d   1     -46.322  12.580  23.148  0.00  0.00     0.117 A 
ATOM     21  C   UNL d   1     -47.068  12.886  23.294  0.00  0.00     0.029 A 
ATOM     22  C   UNL d   1     -47.305  13.587  22.927  0.00  0.00     0.041 A 
ATOM     23  C   UNL d   1     -46.796  13.973  22.418  0.00  0.00     0.005 A 
ATOM     24  C   UNL d   1     -46.039  13.665  22.268  0.00  0.00     0.027 A 
BRANCH  20  25
ATOM     25  O   UNL d   1     -46.085  11.883  23.512  0.00  0.00    -0.326 OA
ATOM     26  C   UNL d   1     -46.642  11.303  23.697  0.00  0.00     0.181 C 
ENDBRANCH  20  25
BRANCH  22  27
ATOM     27  C   UNL d   1     -48.054  13.896  23.073  0.00  0.00     0.196 C 
ATOM     28  O   UNL d   1     -48.609  13.453  23.493  0.00  0.00    -0.287 OA
ATOM     29  C   UNL d   1     -48.249  14.647  22.799  0.00  0.00     0.045 C 
ENDBRANCH  22  27
ENDBRANCH  18  19
ENDBRANCH  17  18
ENDBRANCH   1  17
TORSDOF 8
ENDMDL
MODEL 2
REMARK VINA RESULT:      -4.6      0.758      1.026
REMARK  8 active torsions:
REMARK  status: ('A' for Active; 'I' for Inactive)
REMARK    1  A    between atoms: C_6  and  N_1 
REMARK    2  A    between atoms: C_15  and  N_2 
REMARK    3  A    between atoms: C_8  and  C_3 
REMARK    4  A    between atoms: O_23  and  C_5 
REMARK    5  A    between atoms: C_7  and  O_9 
REMARK    6  A    between atoms: O_9  and  C_21 
REMARK    7  A    between atoms: C_20  and  C_15 
REMARK    8  A    between atoms: C_21  and  C_20 
ROOT
ATOM      1  C   UNL d   1     -44.461  12.777  22.040  0.00  0.00     0.238 C 
ATOM      2  O   UNL d   1     -44.188  12.232  22.596  0.00  0.00    -0.283 OA
ENDROOT
BRANCH   1   3
ATOM      3  C   UNL d   1     -44.090  12.843  21.306  0.00  0.00     0.125 C 
BRANCH   3   4
ATOM      4  N   UNL d   1     -43.322  13.160  21.249  0.00  0.00    -0.297 N 
ATOM      5  C   UNL d   1     -42.678  12.638  21.238  0.00  0.00     0.100 A 
ATOM      6  C   UNL d   1     -41.911  12.940  21.183  0.00  0.00     0.100 A 
ATOM      7  N   UNL d   1     -41.793  13.757  21.139  0.00  0.00    -0.301 N 
ATOM      8  C   UNL d   1     -42.441  14.276  21.150  0.00  0.00     0.100 A 
ATOM      9  C   UNL d   1     -43.216  13.970  21.206  0.00  0.00     0.100 A 
BRANCH   7  10
ATOM     10  C   UNL d   1     -41.027  14.058  21.083  0.00  0.00     0.064 A 
ATOM     11  C   UNL d   1     -40.467  13.872  21.658  0.00  0.00     0.020 A 
ATOM     12  C   UNL d   1     -39.697  14.173  21.605  0.00  0.00     0.031 A 
ATOM     13  C   UNL d   1     -39.496  14.660  20.973  0.00  0.00     0.140 A 
ATOM     14  C   UNL d   1     -40.060  14.847  20.394  0.00  0.00     0.031 A 
ATOM     15  F   UNL d   1     -38.730  14.961  20.917  0.00  0.00    -0.204 F 
ATOM     16  C   UNL d   1     -40.821  14.544  20.457  0.00  0.00     0.020 A 
ENDBRANCH   7  10
ENDBRANCH   3   4
ENDBRANCH   1   3
BRANCH   1  17
ATOM     17  C   UNL d   1     -45.116  13.268  22.218  0.00  0.00     0.166 C 
BRANCH  17  18
ATOM     18  O   UNL d   1     -45.791  12.948  22.598  0.00  0.00    -0.300 OA
BRANCH  18  19
ATOM     19  C   UNL d   1     -46.505  13.381  22.669  0.00  0.00     0.122 A 
ATOM     20  C   UNL d   1     -47.210  12.990  22.804  0.00  0.00     0.117 A 
ATOM     21  C   UNL d   1     -47.908  13.412  22.873  0.00  0.00     0.029 A 
ATOM     22  C   UNL d   1     -47.900  14.236  22.808  0.00  0.00     0.041 A 
ATOM     23  C   UNL d   1     -47.195  14.627  22.673  0.00  0.00     0.005 A 
ATOM     24  C   UNL d   1     -46.486  14.201  22.602  0.00  0.00     0.027 A 
BRANCH  20  25
ATOM     25  O   UNL d   1     -47.216  12.171  22.869  0.00  0.00    -0.326 OA
ATOM     26  C   UNL d   1     -47.898  11.782  23.120  0.00  0.00     0.181 C 
ENDBRANCH  20  25
BRANCH  22  27
ATOM     27  C   UNL d   1     -48.601  14.662  22.877  0.00  0.00     0.196 C 
ATOM     28  O   UNL d   1     -48.960  14.749  23.615  0.00  0.00    -0.287 OA
ATOM     29  C   UNL d   1     -48.943  15.002  22.211  0.00  0.00     0.045 C 
ENDBRANCH  22  27
ENDBRANCH  18  19
ENDBRANCH  17  18
ENDBRANCH   1  17
TORSDOF 8
ENDMDL
MODEL 3
REMARK VINA RESULT:      -4.3      2.715      6.619
REMARK  8 active torsions:
REMARK  status: ('A' for Active; 'I' for Inactive)
REMARK    1  A    between atoms: C_6  and  N_1 
REMARK    2  A    between atoms: C_15  and  N_2 
REMARK    3  A    between atoms: C_8  and  C_3 
REMARK    4  A    between atoms: O_23  and  C_5 
REMARK    5  A    between atoms: C_7  and  O_9 
REMARK    6  A    between atoms: O_9  and  C_21 
REMARK    7  A    between atoms: C_20  and  C_15 
REMARK    8  A    between atoms: C_21  and  C_20 
ROOT
ATOM      1  C   UNL d   1     -43.124  12.823  21.202  0.00  0.00     0.238 C 
ATOM      2  O   UNL d   1     -43.413  12.590  20.465  0.00  0.00    -0.283 OA
ENDROOT
BRANCH   1   3
ATOM      3  C   UNL d   1     -43.442  12.505  21.894  0.00  0.00     0.125 C 
BRANCH   3   4
ATOM      4  N   UNL d   1     -44.230  12.667  22.107  0.00  0.00    -0.297 N 
ATOM      5  C   UNL d   1     -44.636  12.117  22.577  0.00  0.00     0.100 A 
ATOM      6  C   UNL d   1     -45.418  12.267  22.795  0.00  0.00     0.100 A 
ATOM      7  N   UNL d   1     -45.789  12.962  22.544  0.00  0.00    -0.301 N 
ATOM      8  C   UNL d   1     -45.380  13.509  22.074  0.00  0.00     0.100 A 
ATOM      9  C   UNL d   1     -44.589  13.358  21.854  0.00  0.00     0.100 A 
BRANCH   7  10
ATOM     10  C   UNL d   1     -46.571  13.111  22.763  0.00  0.00     0.064 A 
ATOM     11  C   UNL d   1     -47.069  12.487  22.966  0.00  0.00     0.020 A 
ATOM     12  C   UNL d   1     -47.854  12.634  23.186  0.00  0.00     0.031 A 
ATOM     13  C   UNL d   1     -48.132  13.408  23.199  0.00  0.00     0.140 A 
ATOM     14  C   UNL d   1     -47.630  14.036  22.994  0.00  0.00     0.031 A 
ATOM     15  F   UNL d   1     -48.914  13.557  23.418  0.00  0.00    -0.204 F 
ATOM     16  C   UNL d   1     -46.853  13.879  22.778  0.00  0.00     0.020 A 
ENDBRANCH   7  10
ENDBRANCH   3   4
ENDBRANCH   1   3
BRANCH   1  17
ATOM     17  C   UNL d   1     -42.504  13.386  21.253  0.00  0.00     0.166 C 
BRANCH  17  18
ATOM     18  O   UNL d   1     -41.960  13.470  20.621  0.00  0.00    -0.300 OA
BRANCH  18  19
ATOM     19  C   UNL d   1     -41.258  13.921  20.700  0.00  0.00     0.122 A 
ATOM     20  C   UNL d   1     -40.877  14.206  20.036  0.00  0.00     0.117 A 
ATOM     21  C   UNL d   1     -40.191  14.647  20.112  0.00  0.00     0.029 A 
ATOM     22  C   UNL d   1     -39.884  14.805  20.863  0.00  0.00     0.041 A 
ATOM     23  C   UNL d   1     -40.265  14.520  21.527  0.00  0.00     0.005 A 
ATOM     24  C   UNL d   1     -40.960  14.073  21.453  0.00  0.00     0.027 A 
BRANCH  20  25
ATOM     25  O   UNL d   1     -41.184  14.048  19.291  0.00  0.00    -0.326 OA
ATOM     26  C   UNL d   1     -40.699  14.098  18.625  0.00  0.00     0.181 C 
ENDBRANCH  20  25
BRANCH  22  27
ATOM     27  C   UNL d   1     -39.195  15.248  20.941  0.00  0.00     0.196 C 
ATOM     28  O   UNL d   1     -38.508  15.017  20.547  0.00  0.00    -0.287 OA
ATOM     29  C   UNL d   1     -39.191  15.921  21.414  0.00  0.00     0.045 C 
ENDBRANCH  22  27
ENDBRANCH  18  19
ENDBRANCH  17  18
ENDBRANCH   1  17
TORSDOF 8
ENDMDL
MODEL 4
REMARK VINA RESULT:      -3.9      2.796      6.582
REMARK  8 active torsions:
REMARK  status: ('A' for Active; 'I' for Inactive)
REMARK    1  A    between atoms: C_6  and  N_1 
REMARK    2  A    between atoms: C_15  and  N_2 
REMARK    3  A    between atoms: C_8  and  C_3 
REMARK    4  A    between atoms: O_23  and  C_5 
REMARK    5  A    between atoms: C_7  and  O_9 
REMARK    6  A    between atoms: O_9  and  C_21 
REMARK    7  A    between atoms: C_20  and  C_15 
REMARK    8  A    between atoms: C_21  and  C_20 
ROOT
ATOM      1  C   UNL d   1     -42.340  13.151  21.453  0.00  0.00     0.238 C 
ATOM      2  O   UNL d   1     -42.042  13.255  22.215  0.00  0.00    -0.283 OA
ENDROOT
BRANCH   1   3
ATOM      3  C   UNL d   1     -42.917  12.579  21.306  0.00  0.00     0.125 C 
BRANCH   3   4
ATOM      4  N   UNL d   1     -43.669  12.642  21.658  0.00  0.00    -0.297 N 
ATOM      5  C   UNL d   1     -44.170  13.257  21.418  0.00  0.00     0.100 A 
ATOM      6  C   UNL d   1     -44.919  13.330  21.759  0.00  0.00     0.100 A 
ATOM      7  N   UNL d   1     -45.161  12.789  22.336  0.00  0.00    -0.301 N 
ATOM      8  C   UNL d   1     -44.657  12.175  22.574  0.00  0.00     0.100 A 
ATOM      9  C   UNL d   1     -43.900  12.102  22.228  0.00  0.00     0.100 A 
BRANCH   7  10
ATOM     10  C   UNL d   1     -45.909  12.862  22.677  0.00  0.00     0.064 A 
ATOM     11  C   UNL d   1     -46.227  12.240  23.114  0.00  0.00     0.020 A 
ATOM     12  C   UNL d   1     -46.977  12.311  23.457  0.00  0.00     0.031 A 
ATOM     13  C   UNL d   1     -47.403  13.008  23.357  0.00  0.00     0.140 A 
ATOM     14  C   UNL d   1     -47.083  13.634  22.917  0.00  0.00     0.031 A 
ATOM     15  F   UNL d   1     -48.151  13.081  23.698  0.00  0.00    -0.204 F 
ATOM     16  C   UNL d   1     -46.338  13.554  22.581  0.00  0.00     0.020 A 
ENDBRANCH   7  10
ENDBRANCH   3   4
ENDBRANCH   1   3
BRANCH   1  17
ATOM     17  C   UNL d   1     -42.058  13.625  20.822  0.00  0.00     0.166 C 
BRANCH  17  18
ATOM     18  O   UNL d   1     -41.356  14.073  20.914  0.00  0.00    -0.300 OA
BRANCH  18  19
ATOM     19  C   UNL d   1     -41.000  14.473  20.269  0.00  0.00     0.122 A 
ATOM     20  C   UNL d   1     -40.679  15.217  20.376  0.00  0.00     0.117 A 
ATOM     21  C   UNL d   1     -40.331  15.610  19.747  0.00  0.00     0.029 A 
ATOM     22  C   UNL d   1     -40.304  15.252  19.003  0.00  0.00     0.041 A 
ATOM     23  C   UNL d   1     -40.625  14.508  18.896  0.00  0.00     0.005 A 
ATOM     24  C   UNL d   1     -40.978  14.108  19.532  0.00  0.00     0.027 A 
BRANCH  20  25
ATOM     25  O   UNL d   1     -40.707  15.571  21.116  0.00  0.00    -0.326 OA
ATOM     26  C   UNL d   1     -40.027  15.912  21.437  0.00  0.00     0.181 C 
ENDBRANCH  20  25
BRANCH  22  27
ATOM     27  C   UNL d   1     -39.954  15.644  18.369  0.00  0.00     0.196 C 
ATOM     28  O   UNL d   1     -39.137  15.759  18.354  0.00  0.00    -0.287 OA
ATOM     29  C   UNL d   1     -40.420  15.922  17.750  0.00  0.00     0.045 C 
ENDBRANCH  22  27
ENDBRANCH  18  19
ENDBRANCH  17  18
ENDBRANCH   1  17
TORSDOF 8
ENDMDL
MODEL 5
REMARK VINA RESULT:      -3.1      3.015      6.720
REMARK  8 active torsions:
REMARK  status: ('A' for Active; 'I' for Inactive)
REMARK    1  A    between atoms: C_6  and  N_1 
REMARK    2  A    between atoms: C_15  and  N_2 
REMARK    3  A    between atoms: C_8  and  C_3 
REMARK    4  A    between atoms: O_23  and  C_5 
REMARK    5  A    between atoms: C_7  and  O_9 
REMARK    6  A    between atoms: O_9  and  C_21 
REMARK    7  A    between atoms: C_20  and  C_15 
REMARK    8  A    between atoms: C_21  and  C_20 
ROOT
ATOM      1  C   UNL d   1     -45.684  12.957  22.112  0.00  0.00     0.238 C 
ATOM      2  O   UNL d   1     -46.081  12.555  21.510  0.00  0.00    -0.283 OA
ENDROOT
BRANCH   1   3
ATOM      3  C   UNL d   1     -46.047  13.074  22.843  0.00  0.00     0.125 C 
BRANCH   3   4
ATOM      4  N   UNL d   1     -46.764  13.494  22.894  0.00  0.00    -0.297 N 
ATOM      5  C   UNL d   1     -47.472  13.066  22.946  0.00  0.00     0.100 A 
ATOM      6  C   UNL d   1     -48.190  13.471  22.997  0.00  0.00     0.100 A 
ATOM      7  N   UNL d   1     -48.196  14.298  22.996  0.00  0.00    -0.301 N 
ATOM      8  C   UNL d   1     -47.485  14.722  22.945  0.00  0.00     0.100 A 
ATOM      9  C   UNL d   1     -46.760  14.312  22.893  0.00  0.00     0.100 A 
BRANCH   7  10
ATOM     10  C   UNL d   1     -48.913  14.702  23.048  0.00  0.00     0.064 A 
ATOM     11  C   UNL d   1     -49.063  15.343  22.551  0.00  0.00     0.020 A 
ATOM     12  C   UNL d   1     -49.782  15.750  22.600  0.00  0.00     0.031 A 
ATOM     13  C   UNL d   1     -50.346  15.510  23.150  0.00  0.00     0.140 A 
ATOM     14  C   UNL d   1     -50.195  14.865  23.649  0.00  0.00     0.031 A 
ATOM     15  F   UNL d   1     -51.064  15.914  23.201  0.00  0.00    -0.204 F 
ATOM     16  C   UNL d   1     -49.478  14.468  23.592  0.00  0.00     0.020 A 
ENDBRANCH   7  10
ENDBRANCH   3   4
ENDBRANCH   1   3
BRANCH   1  17
ATOM     17  C   UNL d   1     -44.909  13.249  21.983  0.00  0.00     0.166 C 
BRANCH  17  18
ATOM     18  O   UNL d   1     -44.299  12.730  21.737  0.00  0.00    -0.300 OA
BRANCH  18  19
ATOM     19  C   UNL d   1     -43.530  13.008  21.553  0.00  0.00     0.122 A 
ATOM     20  C   UNL d   1     -42.885  12.512  21.630  0.00  0.00     0.117 A 
ATOM     21  C   UNL d   1     -42.133  12.782  21.451  0.00  0.00     0.029 A 
ATOM     22  C   UNL d   1     -42.026  13.559  21.191  0.00  0.00     0.041 A 
ATOM     23  C   UNL d   1     -42.670  14.055  21.113  0.00  0.00     0.005 A 
ATOM     24  C   UNL d   1     -43.434  13.784  21.294  0.00  0.00     0.027 A 
BRANCH  20  25
ATOM     25  O   UNL d   1     -42.994  11.739  21.889  0.00  0.00    -0.326 OA
ATOM     26  C   UNL d   1     -42.692  11.502  22.619  0.00  0.00     0.181 C 
ENDBRANCH  20  25
BRANCH  22  27
ATOM     27  C   UNL d   1     -41.271  13.832  21.010  0.00  0.00     0.196 C 
ATOM     28  O   UNL d   1     -40.675  13.808  21.580  0.00  0.00    -0.287 OA
ATOM     29  C   UNL d   1     -41.111  14.131  20.260  0.00  0.00     0.045 C 
ENDBRANCH  22  27
ENDBRANCH  18  19
ENDBRANCH  17  18
ENDBRANCH   1  17
TORSDOF 8
ENDMDL
