MODEL 1
REMARK VINA RESULT:      -2.6      0.000      0.000
REMARK  3 active torsions:
REMARK  status: ('A' for Active; 'I' for Inactive)
REMARK    1  A    between atoms: C_7  and  C_3 
REMARK    2  A    between atoms: C_10  and  C_5 
REMARK    3  A    between atoms: C_9  and  C_7 
ROOT
ATOM      1  C   UNL d   1      32.947  20.697 -21.762  0.00  0.00     0.101 A 
ATOM      2  O   UNL d   1      32.974  20.584 -22.581  0.00  0.00    -0.307 OA
ATOM      3  C   UNL d   1      33.154  19.792 -22.737  0.00  0.00     0.101 A 
ATOM      4  C   UNL d   1      33.113  19.964 -21.419  0.00  0.00     0.027 A 
ATOM      5  C   UNL d   1      33.237  19.420 -22.012  0.00  0.00     0.027 A 
ENDROOT
BRANCH   3   6
ATOM      6  C   UNL d   1      33.238  19.425 -23.483  0.00  0.00     0.036 C 
BRANCH   6   7
ATOM      7  C   UNL d   1      32.769  18.771 -23.667  0.00  0.00     0.091 A 
ATOM      8  C   UNL d   1      32.402  18.709 -24.417  0.00  0.00     0.286 A 
ATOM      9  N   UNL d   1      31.974  18.008 -24.444  0.00  0.00    -0.190 NA
ATOM     10  O   UNL d   1      32.463  19.269 -25.035  0.00  0.00    -0.265 OA
ATOM     11  C   UNL d   1      32.061  17.639 -23.747  0.00  0.00     0.169 A 
ATOM     12  S   UNL d   1      32.548  18.089 -23.249  0.00  0.00    -0.052 SA
ATOM     13  S   UNL d   1      31.711  16.921 -23.574  0.00  0.00    -0.050 SA
ENDBRANCH   6   7
ENDBRANCH   3   6
BRANCH   1  14
ATOM     14  C   UNL d   1      32.772  21.469 -21.595  0.00  0.00     0.033 A 
ATOM     15  C   UNL d   1      32.292  21.646 -20.934  0.00  0.00     0.060 A 
ATOM     16 CL   UNL d   1      32.000  21.047 -20.457  0.00  0.00    -0.082 Cl
ATOM     17  C   UNL d   1      32.105  22.426 -20.751  0.00  0.00     0.011 A 
ATOM     18  C   UNL d   1      32.398  23.034 -21.230  0.00  0.00     0.001 A 
ATOM     19  C   UNL d   1      32.878  22.857 -21.891  0.00  0.00     0.000 A 
ATOM     20  C   UNL d   1      33.052  22.076 -22.056  0.00  0.00     0.003 A 
ENDBRANCH   1  14
TORSDOF 3
ENDMDL
MODEL 2
REMARK VINA RESULT:      -2.4      1.349      1.866
REMARK  3 active torsions:
REMARK  status: ('A' for Active; 'I' for Inactive)
REMARK    1  A    between atoms: C_7  and  C_3 
REMARK    2  A    between atoms: C_10  and  C_5 
REMARK    3  A    between atoms: C_9  and  C_7 
ROOT
ATOM      1  C   UNL d   1      33.093  19.974 -22.748  0.00  0.00     0.101 A 
ATOM      2  O   UNL d   1      32.950  19.197 -22.500  0.00  0.00    -0.307 OA
ATOM      3  C   UNL d   1      33.006  18.692 -23.152  0.00  0.00     0.101 A 
ATOM      4  C   UNL d   1      33.237  19.936 -23.560  0.00  0.00     0.027 A 
ATOM      5  C   UNL d   1      33.184  19.161 -23.801  0.00  0.00     0.027 A 
ENDROOT
BRANCH   3   6
ATOM      6  C   UNL d   1      32.905  17.863 -23.167  0.00  0.00     0.036 C 
BRANCH   6   7
ATOM      7  C   UNL d   1      32.276  17.540 -23.592  0.00  0.00     0.091 A 
ATOM      8  C   UNL d   1      32.180  16.709 -23.645  0.00  0.00     0.286 A 
ATOM      9  N   UNL d   1      31.514  16.550 -24.099  0.00  0.00    -0.190 NA
ATOM     10  O   UNL d   1      32.681  16.140 -23.293  0.00  0.00    -0.265 OA
ATOM     11  C   UNL d   1      31.198  17.241 -24.326  0.00  0.00     0.169 A 
ATOM     12  S   UNL d   1      31.650  17.869 -24.026  0.00  0.00    -0.052 SA
ATOM     13  S   UNL d   1      30.525  17.296 -24.787  0.00  0.00    -0.050 SA
ENDBRANCH   6   7
ENDBRANCH   3   6
BRANCH   1  14
ATOM     14  C   UNL d   1      33.040  20.478 -22.118  0.00  0.00     0.033 A 
ATOM     15  C   UNL d   1      33.115  21.301 -22.246  0.00  0.00     0.060 A 
ATOM     16 CL   UNL d   1      33.240  21.598 -23.000  0.00  0.00    -0.082 Cl
ATOM     17  C   UNL d   1      33.064  21.828 -21.616  0.00  0.00     0.011 A 
ATOM     18  C   UNL d   1      32.938  21.533 -20.853  0.00  0.00     0.001 A 
ATOM     19  C   UNL d   1      32.864  20.711 -20.725  0.00  0.00     0.000 A 
ATOM     20  C   UNL d   1      32.917  20.204 -21.364  0.00  0.00     0.003 A 
ENDBRANCH   1  14
TORSDOF 3
ENDMDL
MODEL 3
REMARK VINA RESULT:      -2.3      3.820      5.463
REMARK  3 active torsions:
REMARK  status: ('A' for Active; 'I' for Inactive)
REMARK    1  A    between atoms: C_7  and  C_3 
REMARK    2  A    between atoms: C_10  and  C_5 
REMARK    3  A    between atoms: C_9  and  C_7 
ROOT
ATOM      1  C   UNL d   1      29.392  16.897 -24.350  0.00  0.00     0.101 A 
ATOM      2  O   UNL d   1      29.994  17.095 -23.818  0.00  0.00    -0.307 OA
ATOM      3  C   UNL d   1      30.615  17.448 -24.235  0.00  0.00     0.101 A 
ATOM      4  C   UNL d   1      29.653  17.133 -25.097  0.00  0.00     0.027 A 
ATOM      5  C   UNL d   1      30.392  17.465 -25.024  0.00  0.00     0.027 A 
ENDROOT
BRANCH   3   6
ATOM      6  C   UNL d   1      31.337  17.737 -23.929  0.00  0.00     0.036 C 
BRANCH   6   7
ATOM      7  C   UNL d   1      31.953  17.207 -23.778  0.00  0.00     0.091 A 
ATOM      8  C   UNL d   1      32.566  17.409 -23.245  0.00  0.00     0.286 A 
ATOM      9  N   UNL d   1      33.096  16.783 -23.205  0.00  0.00    -0.190 NA
ATOM     10  O   UNL d   1      32.626  18.129 -22.824  0.00  0.00    -0.265 OA
ATOM     11  C   UNL d   1      32.838  16.209 -23.687  0.00  0.00     0.169 A 
ATOM     12  S   UNL d   1      32.133  16.446 -24.054  0.00  0.00    -0.052 SA
ATOM     13  S   UNL d   1      33.229  15.498 -23.788  0.00  0.00    -0.050 SA
ENDBRANCH   6   7
ENDBRANCH   3   6
BRANCH   1  14
ATOM     14  C   UNL d   1      28.777  16.551 -23.954  0.00  0.00     0.033 A 
ATOM     15  C   UNL d   1      28.474  15.821 -24.227  0.00  0.00     0.060 A 
ATOM     16 CL   UNL d   1      28.793  15.457 -24.888  0.00  0.00    -0.082 Cl
ATOM     17  C   UNL d   1      27.849  15.456 -23.836  0.00  0.00     0.011 A 
ATOM     18  C   UNL d   1      27.524  15.820 -23.167  0.00  0.00     0.001 A 
ATOM     19  C   UNL d   1      27.827  16.550 -22.894  0.00  0.00     0.000 A 
ATOM     20  C   UNL d   1      28.448  16.896 -23.297  0.00  0.00     0.003 A 
ENDBRANCH   1  14
TORSDOF 3
ENDMDL
MODEL 4
REMARK VINA RESULT:      -2.1      2.453      4.782
REMARK  3 active torsions:
REMARK  status: ('A' for Active; 'I' for Inactive)
REMARK    1  A    between atoms: C_7  and  C_3 
REMARK    2  A    between atoms: C_10  and  C_5 
REMARK    3  A    between atoms: C_9  and  C_7 
ROOT
ATOM      1  C   UNL d   1      31.981  16.860 -23.724  0.00  0.00     0.101 A 
ATOM      2  O   UNL d   1      32.101  17.626 -24.016  0.00  0.00    -0.307 OA
ATOM      3  C   UNL d   1      32.792  17.935 -23.682  0.00  0.00     0.101 A 
ATOM      4  C   UNL d   1      32.608  16.707 -23.208  0.00  0.00     0.027 A 
ATOM      5  C   UNL d   1      33.095  17.358 -23.185  0.00  0.00     0.027 A 
ENDROOT
BRANCH   3   6
ATOM      6  C   UNL d   1      33.130  18.688 -23.814  0.00  0.00     0.036 C 
BRANCH   6   7
ATOM      7  C   UNL d   1      33.163  19.231 -23.193  0.00  0.00     0.091 A 
ATOM      8  C   UNL d   1      33.216  20.052 -23.348  0.00  0.00     0.286 A 
ATOM      9  N   UNL d   1      33.240  20.454 -22.631  0.00  0.00    -0.190 NA
ATOM     10  O   UNL d   1      33.240  20.402 -24.107  0.00  0.00    -0.265 OA
ATOM     11  C   UNL d   1      33.205  19.919 -22.046  0.00  0.00     0.169 A 
ATOM     12  S   UNL d   1      33.157  19.155 -22.366  0.00  0.00    -0.052 SA
ATOM     13  S   UNL d   1      33.216  20.120 -21.254  0.00  0.00    -0.050 SA
ENDBRANCH   6   7
ENDBRANCH   3   6
BRANCH   1  14
ATOM     14  C   UNL d   1      31.308  16.546 -24.043  0.00  0.00     0.033 A 
ATOM     15  C   UNL d   1      31.359  15.845 -24.497  0.00  0.00     0.060 A 
ATOM     16 CL   UNL d   1      32.081  15.478 -24.619  0.00  0.00    -0.082 Cl
ATOM     17  C   UNL d   1      30.683  15.512 -24.828  0.00  0.00     0.011 A 
ATOM     18  C   UNL d   1      29.952  15.879 -24.707  0.00  0.00     0.001 A 
ATOM     19  C   UNL d   1      29.901  16.580 -24.254  0.00  0.00     0.000 A 
ATOM     20  C   UNL d   1      30.583  16.895 -23.933  0.00  0.00     0.003 A 
ENDBRANCH   1  14
TORSDOF 3
ENDMDL
MODEL 5
REMARK VINA RESULT:      -1.8      2.386      4.445
REMARK  3 active torsions:
REMARK  status: ('A' for Active; 'I' for Inactive)
REMARK    1  A    between atoms: C_7  and  C_3 
REMARK    2  A    between atoms: C_10  and  C_5 
REMARK    3  A    between atoms: C_9  and  C_7 
ROOT
ATOM      1  C   UNL d   1      32.889  19.180 -23.438  0.00  0.00     0.101 A 
ATOM      2  O   UNL d   1      32.747  19.301 -22.632  0.00  0.00    -0.307 OA
ATOM      3  C   UNL d   1      32.966  20.075 -22.435  0.00  0.00     0.101 A 
ATOM      4  C   UNL d   1      33.196  19.889 -23.731  0.00  0.00     0.027 A 
ATOM      5  C   UNL d   1      33.241  20.427 -23.122  0.00  0.00     0.027 A 
ENDROOT
BRANCH   3   6
ATOM      6  C   UNL d   1      32.921  20.443 -21.686  0.00  0.00     0.036 C 
BRANCH   6   7
ATOM      7  C   UNL d   1      32.760  21.252 -21.642  0.00  0.00     0.091 A 
ATOM      8  C   UNL d   1      32.153  21.539 -21.141  0.00  0.00     0.286 A 
ATOM      9  N   UNL d   1      32.120  22.357 -21.210  0.00  0.00    -0.190 NA
ATOM     10  O   UNL d   1      31.665  21.068 -20.653  0.00  0.00    -0.265 OA
ATOM     11  C   UNL d   1      32.676  22.584 -21.729  0.00  0.00     0.169 A 
ATOM     12  S   UNL d   1      33.086  21.920 -22.010  0.00  0.00    -0.052 SA
ATOM     13  S   UNL d   1      32.803  23.365 -21.935  0.00  0.00    -0.050 SA
ENDBRANCH   6   7
ENDBRANCH   3   6
BRANCH   1  14
ATOM     14  C   UNL d   1      32.680  18.426 -23.644  0.00  0.00     0.033 A 
ATOM     15  C   UNL d   1      32.506  18.254 -24.443  0.00  0.00     0.060 A 
ATOM     16 CL   UNL d   1      32.546  18.839 -25.016  0.00  0.00    -0.082 Cl
ATOM     17  C   UNL d   1      32.291  17.492 -24.670  0.00  0.00     0.011 A 
ATOM     18  C   UNL d   1      32.249  16.898 -24.095  0.00  0.00     0.001 A 
ATOM     19  C   UNL d   1      32.423  17.071 -23.296  0.00  0.00     0.000 A 
ATOM     20  C   UNL d   1      32.634  17.833 -23.092  0.00  0.00     0.003 A 
ENDBRANCH   1  14
TORSDOF 3
ENDMDL
MODEL 6
REMARK VINA RESULT:      -1.7      2.200      4.306
REMARK  3 active torsions:
REMARK  status: ('A' for Active; 'I' for Inactive)
REMARK    1  A    between atoms: C_7  and  C_3 
REMARK    2  A    between atoms: C_10  and  C_5 
REMARK    3  A    between atoms: C_9  and  C_7 
ROOT
ATOM      1  C   UNL d   1      32.477  18.105 -23.269  0.00  0.00     0.101 A 
ATOM      2  O   UNL d   1      32.546  18.897 -23.499  0.00  0.00    -0.307 OA
ATOM      3  C   UNL d   1      33.020  19.296 -22.950  0.00  0.00     0.101 A 
ATOM      4  C   UNL d   1      32.915  18.025 -22.573  0.00  0.00     0.027 A 
ATOM      5  C   UNL d   1      33.241  18.746 -22.383  0.00  0.00     0.027 A 
ENDROOT
BRANCH   3   6
ATOM      6  C   UNL d   1      33.241  20.102 -22.956  0.00  0.00     0.036 C 
BRANCH   6   7
ATOM      7  C   UNL d   1      32.962  20.602 -22.361  0.00  0.00     0.091 A 
ATOM      8  C   UNL d   1      32.803  21.408 -22.523  0.00  0.00     0.286 A 
ATOM      9  N   UNL d   1      32.535  21.767 -21.834  0.00  0.00    -0.190 NA
ATOM     10  O   UNL d   1      32.902  21.783 -23.264  0.00  0.00    -0.265 OA
ATOM     11  C   UNL d   1      32.522  21.220 -21.260  0.00  0.00     0.169 A 
ATOM     12  S   UNL d   1      32.781  20.492 -21.559  0.00  0.00    -0.052 SA
ATOM     13  S   UNL d   1      32.283  21.380 -20.495  0.00  0.00    -0.050 SA
ENDBRANCH   6   7
ENDBRANCH   3   6
BRANCH   1  14
ATOM     14  C   UNL d   1      32.015  17.704 -23.797  0.00  0.00     0.033 A 
ATOM     15  C   UNL d   1      32.149  16.888 -23.921  0.00  0.00     0.060 A 
ATOM     16 CL   UNL d   1      32.742  16.495 -23.513  0.00  0.00    -0.082 Cl
ATOM     17  C   UNL d   1      31.688  16.465 -24.455  0.00  0.00     0.011 A 
ATOM     18  C   UNL d   1      31.089  16.857 -24.870  0.00  0.00     0.001 A 
ATOM     19  C   UNL d   1      30.955  17.673 -24.746  0.00  0.00     0.000 A 
ATOM     20  C   UNL d   1      31.424  18.075 -24.211  0.00  0.00     0.003 A 
ENDBRANCH   1  14
TORSDOF 3
ENDMDL
