MODEL 1
REMARK VINA RESULT:      -8.1      0.000      0.000
REMARK  3 active torsions:
REMARK  status: ('A' for Active; 'I' for Inactive)
REMARK    1  A    between atoms: N_4  and  C_1 
REMARK       I    between atoms: C_7  and  N_4 
REMARK    2  A    between atoms: C_10  and  C_7 
REMARK    3  A    between atoms: O_16  and  C_15 
ROOT
ATOM      1  N   UNL d   1      51.474  34.425  52.762  0.00  0.00    -0.183 NA
ATOM      2  C   UNL d   1      50.728  34.088  52.887  0.00  0.00     0.281 C 
ATOM      3  O   UNL d   1      50.652  33.431  53.399  0.00  0.00    -0.265 OA
ENDROOT
BRANCH   1   4
ATOM      4  C   UNL d   1      52.146  34.115  53.141  0.00  0.00     0.197 A 
ATOM      5  N   UNL d   1      52.542  33.415  52.927  0.00  0.00    -0.221 NA
ATOM      6  C   UNL d   1      53.179  33.313  53.449  0.00  0.00     0.092 A 
ATOM      7  C   UNL d   1      53.756  32.726  53.503  0.00  0.00     0.039 A 
ATOM      8  C   UNL d   1      53.178  33.949  53.987  0.00  0.00     0.068 A 
ATOM      9  C   UNL d   1      54.338  32.774  54.100  0.00  0.00     0.082 A 
ATOM     10  N   UNL d   1      54.333  33.403  54.629  0.00  0.00    -0.301 N 
ATOM     11  C   UNL d   1      53.754  33.988  54.571  0.00  0.00     0.088 A 
ATOM     12  C   UNL d   1      54.917  33.448  55.225  0.00  0.00     0.100 C 
ATOM     13  S   UNL d   1      52.539  34.438  53.792  0.00  0.00    -0.045 SA
ENDBRANCH   1   4
BRANCH   2  14
ATOM     14  C   UNL d   1      50.061  34.396  52.511  0.00  0.00     0.060 A 
ATOM     15  C   UNL d   1      49.556  34.902  52.917  0.00  0.00     0.029 A 
ATOM     16  C   UNL d   1      48.896  35.206  52.542  0.00  0.00     0.094 A 
ATOM     17  C   UNL d   1      48.736  35.008  51.758  0.00  0.00     0.024 A 
ATOM     18  C   UNL d   1      49.248  34.500  51.357  0.00  0.00     0.002 A 
ATOM     19  C   UNL d   1      49.908  34.195  51.732  0.00  0.00     0.005 A 
BRANCH  16  20
ATOM     20  O   UNL d   1      48.374  35.725  52.952  0.00  0.00    -0.328 OA
ATOM     21  C   UNL d   1      47.697  36.021  52.581  0.00  0.00     0.181 C 
ENDBRANCH  16  20
ENDBRANCH   2  14
TORSDOF 3
ENDMDL
MODEL 2
REMARK VINA RESULT:      -7.6      1.414      4.928
REMARK  3 active torsions:
REMARK  status: ('A' for Active; 'I' for Inactive)
REMARK    1  A    between atoms: N_4  and  C_1 
REMARK       I    between atoms: C_7  and  N_4 
REMARK    2  A    between atoms: C_10  and  C_7 
REMARK    3  A    between atoms: O_16  and  C_15 
ROOT
ATOM      1  N   UNL d   1      52.005  33.949  52.956  0.00  0.00    -0.183 NA
ATOM      2  C   UNL d   1      52.125  33.224  53.337  0.00  0.00     0.281 C 
ATOM      3  O   UNL d   1      51.479  32.705  53.452  0.00  0.00    -0.265 OA
ENDROOT
BRANCH   1   4
ATOM      4  C   UNL d   1      51.248  34.164  52.688  0.00  0.00     0.197 A 
ATOM      5  N   UNL d   1      50.664  34.545  53.142  0.00  0.00    -0.221 NA
ATOM      6  C   UNL d   1      49.997  34.654  52.659  0.00  0.00     0.092 A 
ATOM      7  C   UNL d   1      49.262  34.996  52.808  0.00  0.00     0.039 A 
ATOM      8  C   UNL d   1      50.168  34.341  51.906  0.00  0.00     0.068 A 
ATOM      9  C   UNL d   1      48.690  35.027  52.200  0.00  0.00     0.082 A 
ATOM     10  N   UNL d   1      48.863  34.717  51.458  0.00  0.00    -0.301 N 
ATOM     11  C   UNL d   1      49.600  34.376  51.314  0.00  0.00     0.088 A 
ATOM     12  C   UNL d   1      48.289  34.749  50.853  0.00  0.00     0.100 C 
ATOM     13  S   UNL d   1      50.940  34.041  51.931  0.00  0.00    -0.045 SA
ENDBRANCH   1   4
BRANCH   2  14
ATOM     14  C   UNL d   1      52.877  33.010  53.603  0.00  0.00     0.060 A 
ATOM     15  C   UNL d   1      53.195  33.372  54.269  0.00  0.00     0.029 A 
ATOM     16  C   UNL d   1      53.941  33.160  54.531  0.00  0.00     0.094 A 
ATOM     17  C   UNL d   1      54.373  32.584  54.130  0.00  0.00     0.024 A 
ATOM     18  C   UNL d   1      54.046  32.225  53.462  0.00  0.00     0.002 A 
ATOM     19  C   UNL d   1      53.301  32.438  53.200  0.00  0.00     0.005 A 
BRANCH  16  20
ATOM     20  O   UNL d   1      54.274  33.526  55.213  0.00  0.00    -0.328 OA
ATOM     21  C   UNL d   1      55.080  33.703  55.244  0.00  0.00     0.181 C 
ENDBRANCH  16  20
ENDBRANCH   2  14
TORSDOF 3
ENDMDL
MODEL 3
REMARK VINA RESULT:      -6.9      3.006      4.799
REMARK  3 active torsions:
REMARK  status: ('A' for Active; 'I' for Inactive)
REMARK    1  A    between atoms: N_4  and  C_1 
REMARK       I    between atoms: C_7  and  N_4 
REMARK    2  A    between atoms: C_10  and  C_7 
REMARK    3  A    between atoms: O_16  and  C_15 
ROOT
ATOM      1  N   UNL d   1      52.645  32.052  53.685  0.00  0.00    -0.183 NA
ATOM      2  C   UNL d   1      53.305  31.563  53.578  0.00  0.00     0.281 C 
ATOM      3  O   UNL d   1      54.067  31.902  53.526  0.00  0.00    -0.265 OA
ENDROOT
BRANCH   1   4
ATOM      4  C   UNL d   1      52.737  32.876  53.742  0.00  0.00     0.197 A 
ATOM      5  N   UNL d   1      52.622  33.420  53.122  0.00  0.00    -0.221 NA
ATOM      6  C   UNL d   1      52.772  34.181  53.418  0.00  0.00     0.092 A 
ATOM      7  C   UNL d   1      52.746  34.923  53.062  0.00  0.00     0.039 A 
ATOM      8  C   UNL d   1      52.980  34.109  54.222  0.00  0.00     0.068 A 
ATOM      9  C   UNL d   1      52.930  35.604  53.511  0.00  0.00     0.082 A 
ATOM     10  N   UNL d   1      53.135  35.528  54.304  0.00  0.00    -0.301 N 
ATOM     11  C   UNL d   1      53.159  34.783  54.656  0.00  0.00     0.088 A 
ATOM     12  C   UNL d   1      53.317  36.210  54.750  0.00  0.00     0.100 C 
ATOM     13  S   UNL d   1      52.957  33.303  54.414  0.00  0.00    -0.045 SA
ENDBRANCH   1   4
BRANCH   2  14
ATOM     14  C   UNL d   1      53.213  30.744  53.522  0.00  0.00     0.060 A 
ATOM     15  C   UNL d   1      53.268  30.277  54.196  0.00  0.00     0.029 A 
ATOM     16  C   UNL d   1      53.177  29.466  54.138  0.00  0.00     0.094 A 
ATOM     17  C   UNL d   1      53.030  29.117  53.406  0.00  0.00     0.024 A 
ATOM     18  C   UNL d   1      52.975  29.592  52.734  0.00  0.00     0.002 A 
ATOM     19  C   UNL d   1      53.067  30.404  52.792  0.00  0.00     0.005 A 
BRANCH  16  20
ATOM     20  O   UNL d   1      53.232  28.980  54.825  0.00  0.00    -0.328 OA
ATOM     21  C   UNL d   1      53.647  28.267  54.802  0.00  0.00     0.181 C 
ENDBRANCH  16  20
ENDBRANCH   2  14
TORSDOF 3
ENDMDL
MODEL 4
REMARK VINA RESULT:      -6.0     10.248     10.903
REMARK  3 active torsions:
REMARK  status: ('A' for Active; 'I' for Inactive)
REMARK    1  A    between atoms: N_4  and  C_1 
REMARK       I    between atoms: C_7  and  N_4 
REMARK    2  A    between atoms: C_10  and  C_7 
REMARK    3  A    between atoms: O_16  and  C_15 
ROOT
ATOM      1  N   UNL d   1      44.333  29.434  59.186  0.00  0.00    -0.183 NA
ATOM      2  C   UNL d   1      45.007  29.477  58.707  0.00  0.00     0.281 C 
ATOM      3  O   UNL d   1      45.693  29.860  58.992  0.00  0.00    -0.265 OA
ENDROOT
BRANCH   1   4
ATOM      4  C   UNL d   1      44.335  29.768  59.946  0.00  0.00     0.197 A 
ATOM      5  N   UNL d   1      44.357  30.583  60.117  0.00  0.00    -0.221 NA
ATOM      6  C   UNL d   1      44.351  30.671  60.943  0.00  0.00     0.092 A 
ATOM      7  C   UNL d   1      44.365  31.340  61.423  0.00  0.00     0.039 A 
ATOM      8  C   UNL d   1      44.325  29.911  61.284  0.00  0.00     0.068 A 
ATOM      9  C   UNL d   1      44.354  31.252  62.254  0.00  0.00     0.082 A 
ATOM     10  N   UNL d   1      44.329  30.500  62.587  0.00  0.00    -0.301 N 
ATOM     11  C   UNL d   1      44.314  29.833  62.102  0.00  0.00     0.088 A 
ATOM     12  C   UNL d   1      44.317  30.416  63.417  0.00  0.00     0.100 C 
ATOM     13  S   UNL d   1      44.315  29.361  60.665  0.00  0.00    -0.045 SA
ENDBRANCH   1   4
BRANCH   2  14
ATOM     14  C   UNL d   1      45.004  29.145  57.951  0.00  0.00     0.060 A 
ATOM     15  C   UNL d   1      45.194  28.351  57.850  0.00  0.00     0.029 A 
ATOM     16  C   UNL d   1      45.191  28.024  57.100  0.00  0.00     0.094 A 
ATOM     17  C   UNL d   1      44.999  28.487  56.446  0.00  0.00     0.024 A 
ATOM     18  C   UNL d   1      44.809  29.283  56.556  0.00  0.00     0.002 A 
ATOM     19  C   UNL d   1      44.812  29.610  57.306  0.00  0.00     0.005 A 
BRANCH  16  20
ATOM     20  O   UNL d   1      45.384  27.211  56.988  0.00  0.00    -0.328 OA
ATOM     21  C   UNL d   1      44.829  26.686  56.675  0.00  0.00     0.181 C 
ENDBRANCH  16  20
ENDBRANCH   2  14
TORSDOF 3
ENDMDL
MODEL 5
REMARK VINA RESULT:      -5.9     10.630     11.151
REMARK  3 active torsions:
REMARK  status: ('A' for Active; 'I' for Inactive)
REMARK    1  A    between atoms: N_4  and  C_1 
REMARK       I    between atoms: C_7  and  N_4 
REMARK    2  A    between atoms: C_10  and  C_7 
REMARK    3  A    between atoms: O_16  and  C_15 
ROOT
ATOM      1  N   UNL d   1      44.455  26.896  56.838  0.00  0.00    -0.183 NA
ATOM      2  C   UNL d   1      45.127  27.372  56.923  0.00  0.00     0.281 C 
ATOM      3  O   UNL d   1      45.886  27.041  56.810  0.00  0.00    -0.265 OA
ENDROOT
BRANCH   1   4
ATOM      4  C   UNL d   1      44.530  26.092  56.642  0.00  0.00     0.197 A 
ATOM      5  N   UNL d   1      44.726  25.794  55.889  0.00  0.00    -0.221 NA
ATOM      6  C   UNL d   1      44.741  24.966  55.939  0.00  0.00     0.092 A 
ATOM      7  C   UNL d   1      44.900  24.385  55.376  0.00  0.00     0.039 A 
ATOM      8  C   UNL d   1      44.556  24.750  56.722  0.00  0.00     0.068 A 
ATOM      9  C   UNL d   1      44.873  23.579  55.596  0.00  0.00     0.082 A 
ATOM     10  N   UNL d   1      44.689  23.371  56.369  0.00  0.00    -0.301 N 
ATOM     11  C   UNL d   1      44.531  23.955  56.929  0.00  0.00     0.088 A 
ATOM     12  C   UNL d   1      44.663  22.564  56.585  0.00  0.00     0.100 C 
ATOM     13  S   UNL d   1      44.427  25.448  57.149  0.00  0.00    -0.045 SA
ENDBRANCH   1   4
BRANCH   2  14
ATOM     14  C   UNL d   1      45.051  28.171  57.119  0.00  0.00     0.060 A 
ATOM     15  C   UNL d   1      45.196  28.422  57.888  0.00  0.00     0.029 A 
ATOM     16  C   UNL d   1      45.120  29.214  58.080  0.00  0.00     0.094 A 
ATOM     17  C   UNL d   1      44.900  29.760  57.504  0.00  0.00     0.024 A 
ATOM     18  C   UNL d   1      44.757  29.501  56.734  0.00  0.00     0.002 A 
ATOM     19  C   UNL d   1      44.832  28.709  56.542  0.00  0.00     0.005 A 
BRANCH  16  20
ATOM     20  O   UNL d   1      45.267  29.478  58.867  0.00  0.00    -0.328 OA
ATOM     21  C   UNL d   1      45.159  30.272  59.070  0.00  0.00     0.181 C 
ENDBRANCH  16  20
ENDBRANCH   2  14
TORSDOF 3
ENDMDL
MODEL 6
REMARK VINA RESULT:      -5.5     10.165     10.924
REMARK  3 active torsions:
REMARK  status: ('A' for Active; 'I' for Inactive)
REMARK    1  A    between atoms: N_4  and  C_1 
REMARK       I    between atoms: C_7  and  N_4 
REMARK    2  A    between atoms: C_10  and  C_7 
REMARK    3  A    between atoms: O_16  and  C_15 
ROOT
ATOM      1  N   UNL d   1      44.348  27.213  57.271  0.00  0.00    -0.183 NA
ATOM      2  C   UNL d   1      44.934  26.735  56.934  0.00  0.00     0.281 C 
ATOM      3  O   UNL d   1      45.695  27.051  56.792  0.00  0.00    -0.265 OA
ENDROOT
BRANCH   1   4
ATOM      4  C   UNL d   1      44.511  28.004  57.467  0.00  0.00     0.197 A 
ATOM      5  N   UNL d   1      44.878  28.263  58.168  0.00  0.00    -0.221 NA
ATOM      6  C   UNL d   1      44.932  29.091  58.137  0.00  0.00     0.092 A 
ATOM      7  C   UNL d   1      45.240  29.641  58.669  0.00  0.00     0.039 A 
ATOM      8  C   UNL d   1      44.599  29.345  57.418  0.00  0.00     0.068 A 
ATOM      9  C   UNL d   1      45.215  30.455  58.481  0.00  0.00     0.082 A 
ATOM     10  N   UNL d   1      44.885  30.701  57.769  0.00  0.00    -0.301 N 
ATOM     11  C   UNL d   1      44.579  30.147  57.241  0.00  0.00     0.088 A 
ATOM     12  C   UNL d   1      44.863  31.515  57.585  0.00  0.00     0.100 C 
ATOM     13  S   UNL d   1      44.342  28.671  57.010  0.00  0.00    -0.045 SA
ENDBRANCH   1   4
BRANCH   2  14
ATOM     14  C   UNL d   1      44.771  25.949  56.739  0.00  0.00     0.060 A 
ATOM     15  C   UNL d   1      44.767  25.714  55.952  0.00  0.00     0.029 A 
ATOM     16  C   UNL d   1      44.605  24.934  55.761  0.00  0.00     0.094 A 
ATOM     17  C   UNL d   1      44.448  24.386  56.355  0.00  0.00     0.024 A 
ATOM     18  C   UNL d   1      44.454  24.630  57.143  0.00  0.00     0.002 A 
ATOM     19  C   UNL d   1      44.616  25.410  57.334  0.00  0.00     0.005 A 
BRANCH  16  20
ATOM     20  O   UNL d   1      44.599  24.685  54.955  0.00  0.00    -0.328 OA
ATOM     21  C   UNL d   1      44.833  23.920  54.750  0.00  0.00     0.181 C 
ENDBRANCH  16  20
ENDBRANCH   2  14
TORSDOF 3
ENDMDL
MODEL 7
REMARK VINA RESULT:      -5.5     10.322     10.864
REMARK  3 active torsions:
REMARK  status: ('A' for Active; 'I' for Inactive)
REMARK    1  A    between atoms: N_4  and  C_1 
REMARK       I    between atoms: C_7  and  N_4 
REMARK    2  A    between atoms: C_10  and  C_7 
REMARK    3  A    between atoms: O_16  and  C_15 
ROOT
ATOM      1  N   UNL d   1      44.377  28.146  58.284  0.00  0.00    -0.183 NA
ATOM      2  C   UNL d   1      45.060  28.607  58.206  0.00  0.00     0.281 C 
ATOM      3  O   UNL d   1      45.796  28.236  58.063  0.00  0.00    -0.265 OA
ENDROOT
BRANCH   1   4
ATOM      4  C   UNL d   1      44.418  27.318  58.222  0.00  0.00     0.197 A 
ATOM      5  N   UNL d   1      44.574  26.792  58.848  0.00  0.00    -0.221 NA
ATOM      6  C   UNL d   1      44.564  26.021  58.542  0.00  0.00     0.092 A 
ATOM      7  C   UNL d   1      44.680  25.287  58.900  0.00  0.00     0.039 A 
ATOM      8  C   UNL d   1      44.403  26.068  57.726  0.00  0.00     0.068 A 
ATOM      9  C   UNL d   1      44.636  24.592  58.439  0.00  0.00     0.082 A 
ATOM     10  N   UNL d   1      44.476  24.643  57.634  0.00  0.00    -0.301 N 
ATOM     11  C   UNL d   1      44.360  25.379  57.281  0.00  0.00     0.088 A 
ATOM     12  C   UNL d   1      44.432  23.945  57.176  0.00  0.00     0.100 C 
ATOM     13  S   UNL d   1      44.314  26.869  57.536  0.00  0.00    -0.045 SA
ENDBRANCH   1   4
BRANCH   2  14
ATOM     14  C   UNL d   1      45.019  29.429  58.268  0.00  0.00     0.060 A 
ATOM     15  C   UNL d   1      44.872  29.885  57.600  0.00  0.00     0.029 A 
ATOM     16  C   UNL d   1      44.832  30.700  57.664  0.00  0.00     0.094 A 
ATOM     17  C   UNL d   1      44.937  31.064  58.395  0.00  0.00     0.024 A 
ATOM     18  C   UNL d   1      45.084  30.600  59.061  0.00  0.00     0.002 A 
ATOM     19  C   UNL d   1      45.124  29.785  58.997  0.00  0.00     0.005 A 
BRANCH  16  20
ATOM     20  O   UNL d   1      44.682  31.175  56.983  0.00  0.00    -0.328 OA
ATOM     21  C   UNL d   1      44.619  31.996  57.049  0.00  0.00     0.181 C 
ENDBRANCH  16  20
ENDBRANCH   2  14
TORSDOF 3
ENDMDL
