MODEL 1
REMARK VINA RESULT:      21.2      0.000      0.000
REMARK  4 active torsions:
REMARK  status: ('A' for Active; 'I' for Inactive)
REMARK    1  A    between atoms: C_2  and  C_1 
REMARK       I    between atoms: N_4  and  C_2 
REMARK    2  A    between atoms: C_5  and  N_4 
REMARK    3  A    between atoms: O_17  and  C_9 
REMARK    4  A    between atoms: O_18  and  C_12 
ROOT
ATOM      1  C   UNL d   1      45.195 -16.595  44.405  0.00  0.00     0.353 C 
ATOM      2  N   UNL d   1      45.477 -17.203  43.915  0.00  0.00    -0.361 NA
ATOM      3  O   UNL d   1      44.618 -16.756  44.955  0.00  0.00    -0.249 OA
ENDROOT
BRANCH   1   4
ATOM      4  C   UNL d   1      45.498 -15.821  44.340  0.00  0.00     0.195 A 
ATOM      5  O   UNL d   1      44.986 -15.203  44.162  0.00  0.00    -0.297 OA
ATOM      6  C   UNL d   1      45.306 -14.451  44.103  0.00  0.00     0.123 A 
ATOM      7  C   UNL d   1      44.790 -13.804  43.921  0.00  0.00     0.027 A 
ATOM      8  C   UNL d   1      46.105 -14.298  44.214  0.00  0.00     0.123 A 
ATOM      9  C   UNL d   1      45.111 -13.064  43.863  0.00  0.00     0.002 A 
ATOM     10  C   UNL d   1      45.917 -12.931  43.978  0.00  0.00     0.002 A 
ATOM     11  C   UNL d   1      46.415 -13.536  44.151  0.00  0.00     0.027 A 
ATOM     12  O   UNL d   1      46.611 -14.934  44.393  0.00  0.00    -0.301 OA
ATOM     13  C   UNL d   1      46.304 -15.688  44.455  0.00  0.00     0.153 A 
ENDBRANCH   1   4
BRANCH   2  14
ATOM     14  C   UNL d   1      45.766 -17.793  43.424  0.00  0.00     0.159 A 
ATOM     15  C   UNL d   1      45.761 -17.702  42.612  0.00  0.00     0.059 A 
ATOM     16  C   UNL d   1      46.053 -18.299  42.107  0.00  0.00     0.107 A 
ATOM     17  C   UNL d   1      46.360 -19.010  42.462  0.00  0.00     0.082 A 
ATOM     18  C   UNL d   1      46.365 -19.100  43.273  0.00  0.00     0.040 A 
ATOM     19 CL   UNL d   1      46.647 -19.595  41.959  0.00  0.00    -0.080 Cl
ATOM     20  C   UNL d   1      46.070 -18.495  43.767  0.00  0.00     0.125 A 
BRANCH  16  21
ATOM     21  O   UNL d   1      46.047 -18.210  41.308  0.00  0.00    -0.327 OA
ATOM     22  C   UNL d   1      46.411 -18.772  40.827  0.00  0.00     0.181 C 
ENDBRANCH  16  21
BRANCH  20  23
ATOM     23  O   UNL d   1      46.075 -18.587  44.587  0.00  0.00    -0.326 OA
ATOM     24  C   UNL d   1      46.374 -19.283  44.896  0.00  0.00     0.181 C 
ENDBRANCH  20  23
ENDBRANCH   2  14
TORSDOF 4
ENDMDL
