MODEL 1
REMARK VINA RESULT:     115.7      0.000      0.000
REMARK  4 active torsions:
REMARK  status: ('A' for Active; 'I' for Inactive)
REMARK    1  A    between atoms: N_6  and  C_1 
REMARK       I    between atoms: C_9  and  N_6 
REMARK    2  A    between atoms: C_15  and  C_9 
REMARK    3  A    between atoms: C_13  and  C_16 
REMARK    4  A    between atoms: C_19  and  C_13 
ROOT
ATOM      1  C   UNL d   1     -54.998-100.748 -42.193  0.00  0.00     0.123 A 
ATOM      2  C   UNL d   1     -55.184-101.266 -42.809  0.00  0.00     0.092 A 
ATOM      3  C   UNL d   1     -55.246-100.822 -43.496  0.00  0.00     0.013 A 
ATOM      4  C   UNL d   1     -55.102-100.040 -43.316  0.00  0.00     0.029 A 
ATOM      5  S   UNL d   1     -54.946 -99.985 -42.505  0.00  0.00    -0.070 SA
ATOM      6  C   UNL d   1     -55.128 -99.459 -43.909  0.00  0.00     0.104 A 
ATOM      7  N   UNL d   1     -55.300 -99.676 -44.684  0.00  0.00    -0.294 NA
ATOM      8  C   UNL d   1     -55.285-102.075 -42.732  0.00  0.00     0.103 C 
ATOM      9  C   UNL d   1     -55.447-100.470 -44.866  0.00  0.00     0.099 A 
ATOM     10  C   UNL d   1     -55.420-101.046 -44.274  0.00  0.00    -0.004 A 
ATOM     11  N   UNL d   1     -55.386-102.878 -42.662  0.00  0.00    -0.191 NA
ATOM     12  C   UNL d   1     -54.943 -99.046 -43.220  0.00  0.00     0.029 C 
ATOM     13  C   UNL d   1     -55.108 -98.757 -44.346  0.00  0.00     0.029 C 
ATOM     14  C   UNL d   1     -55.474 -99.901 -45.462  0.00  0.00     0.029 C 
ATOM     15  C   UNL d   1     -55.593-101.263 -45.049  0.00  0.00     0.029 C 
ENDROOT
BRANCH   1  16
ATOM     16  N   UNL d   1     -54.882-100.952 -41.399  0.00  0.00    -0.201 NA
ATOM     17  C   UNL d   1     -55.525-101.165 -40.929  0.00  0.00     0.280 C 
ATOM     18  O   UNL d   1     -56.284-101.177 -41.244  0.00  0.00    -0.265 OA
BRANCH  17  19
ATOM     19  C   UNL d   1     -55.411-101.366 -40.148  0.00  0.00     0.058 A 
ATOM     20  C   UNL d   1     -54.939-100.893 -39.663  0.00  0.00     0.005 A 
ATOM     21  C   UNL d   1     -54.823-101.097 -38.869  0.00  0.00     0.003 A 
ATOM     22  C   UNL d   1     -55.179-101.774 -38.561  0.00  0.00     0.039 A 
ATOM     23  C   UNL d   1     -55.644-102.237 -39.042  0.00  0.00     0.003 A 
ATOM     24  C   UNL d   1     -55.760-102.034 -39.837  0.00  0.00     0.005 A 
BRANCH  22  25
ATOM     25  C   UNL d   1     -55.062-101.973 -37.770  0.00  0.00     0.196 C 
ATOM     26  O   UNL d   1     -54.880-102.744 -37.565  0.00  0.00    -0.287 OA
BRANCH  25  27
ATOM     27  C   UNL d   1     -55.127-101.396 -37.189  0.00  0.00     0.039 A 
ATOM     28  C   UNL d   1     -54.752-100.675 -37.272  0.00  0.00     0.003 A 
ATOM     29  C   UNL d   1     -54.818-100.098 -36.690  0.00  0.00     0.000 A 
ATOM     30  C   UNL d   1     -55.269-100.250 -36.014  0.00  0.00     0.000 A 
ATOM     31  C   UNL d   1     -55.650-100.977 -35.926  0.00  0.00     0.000 A 
ATOM     32  C   UNL d   1     -55.578-101.548 -36.512  0.00  0.00     0.003 A 
ENDBRANCH  25  27
ENDBRANCH  22  25
ENDBRANCH  17  19
ENDBRANCH   1  16
TORSDOF 4
ENDMDL
