MODEL 1
REMARK VINA RESULT:      -2.8      0.000      0.000
REMARK  5 active torsions:
REMARK  status: ('A' for Active; 'I' for Inactive)
REMARK    1  A    between atoms: N_2  and  S_1 
REMARK    2  A    between atoms: C_8  and  S_1 
REMARK    3  A    between atoms: S_5  and  C_3 
REMARK    4  A    between atoms: C_13  and  S_5 
REMARK    5  A    between atoms: C_12  and  C_13 
ROOT
ATOM      1  N   UNL d   1      30.781  16.714 -24.727  0.00  0.00    -0.208 N 
ATOM      2  C   UNL d   1      31.537  16.876 -24.420  0.00  0.00     0.189 A 
ATOM      3  N   UNL d   1      32.032  16.235 -24.598  0.00  0.00    -0.219 NA
ATOM      4  C   UNL d   1      30.810  15.966 -25.097  0.00  0.00     0.114 A 
ATOM      5  C   UNL d   1      31.580  15.677 -25.015  0.00  0.00     0.121 A 
ENDROOT
BRANCH   1   6
ATOM      6  S   UNL d   1      30.117  17.210 -24.673  0.00  0.00     0.273 S 
ATOM      7  O   UNL d   1      30.565  17.788 -25.045  0.00  0.00    -0.200 OA
ATOM      8  O   UNL d   1      29.614  17.867 -24.735  0.00  0.00    -0.200 OA
BRANCH   6   9
ATOM      9  C   UNL d   1      29.650  16.640 -24.296  0.00  0.00     0.104 A 
ATOM     10  C   UNL d   1      29.667  16.581 -23.478  0.00  0.00     0.013 A 
ATOM     11  C   UNL d   1      29.201  16.014 -23.104  0.00  0.00     0.001 A 
ATOM     12  C   UNL d   1      28.724  15.511 -23.551  0.00  0.00     0.000 A 
ATOM     13  C   UNL d   1      28.711  15.574 -24.370  0.00  0.00     0.001 A 
ATOM     14  C   UNL d   1      29.181  16.146 -24.743  0.00  0.00     0.013 A 
ENDBRANCH   6   9
ENDBRANCH   1   6
BRANCH   2  15
ATOM     15  S   UNL d   1      31.759  17.565 -24.005  0.00  0.00    -0.049 SA
BRANCH  15  16
ATOM     16  C   UNL d   1      32.556  17.707 -23.840  0.00  0.00     0.040 C 
BRANCH  16  17
ATOM     17  C   UNL d   1      32.783  18.427 -23.507  0.00  0.00     0.026 A 
ATOM     18  C   UNL d   1      32.999  19.070 -24.006  0.00  0.00     0.099 A 
ATOM     19  N   UNL d   1      33.227  19.795 -23.690  0.00  0.00    -0.242 NA
ATOM     20  C   UNL d   1      33.241  19.881 -22.869  0.00  0.00     0.099 A 
ATOM     21  C   UNL d   1      33.029  19.255 -22.375  0.00  0.00     0.021 A 
ATOM     22  C   UNL d   1      32.801  18.529 -22.696  0.00  0.00     0.004 A 
ENDBRANCH  16  17
ENDBRANCH  15  16
ENDBRANCH   2  15
TORSDOF 5
ENDMDL
MODEL 2
REMARK VINA RESULT:      -1.3      1.128      1.640
REMARK  5 active torsions:
REMARK  status: ('A' for Active; 'I' for Inactive)
REMARK    1  A    between atoms: N_2  and  S_1 
REMARK    2  A    between atoms: C_8  and  S_1 
REMARK    3  A    between atoms: S_5  and  C_3 
REMARK    4  A    between atoms: C_13  and  S_5 
REMARK    5  A    between atoms: C_12  and  C_13 
ROOT
ATOM      1  N   UNL d   1      31.897  17.519 -24.539  0.00  0.00    -0.208 N 
ATOM      2  C   UNL d   1      32.562  17.856 -24.168  0.00  0.00     0.189 A 
ATOM      3  N   UNL d   1      33.237  17.452 -24.431  0.00  0.00    -0.219 NA
ATOM      4  C   UNL d   1      32.165  16.902 -25.034  0.00  0.00     0.114 A 
ATOM      5  C   UNL d   1      32.989  16.866 -24.963  0.00  0.00     0.121 A 
ENDROOT
BRANCH   1   6
ATOM      6  S   UNL d   1      31.108  17.756 -24.433  0.00  0.00     0.273 S 
ATOM      7  O   UNL d   1      31.368  18.529 -24.522  0.00  0.00    -0.200 OA
ATOM      8  O   UNL d   1      30.426  18.223 -24.358  0.00  0.00    -0.200 OA
BRANCH   6   9
ATOM      9  C   UNL d   1      30.828  16.983 -24.341  0.00  0.00     0.104 A 
ATOM     10  C   UNL d   1      30.662  16.532 -25.005  0.00  0.00     0.013 A 
ATOM     11  C   UNL d   1      30.382  15.763 -24.913  0.00  0.00     0.001 A 
ATOM     12  C   UNL d   1      30.272  15.452 -24.156  0.00  0.00     0.000 A 
ATOM     13  C   UNL d   1      30.439  15.908 -23.494  0.00  0.00     0.001 A 
ATOM     14  C   UNL d   1      30.720  16.682 -23.592  0.00  0.00     0.013 A 
ENDBRANCH   6   9
ENDBRANCH   1   6
BRANCH   2  15
ATOM     15  S   UNL d   1      32.550  18.490 -23.627  0.00  0.00    -0.049 SA
BRANCH  15  16
ATOM     16  C   UNL d   1      33.241  18.701 -23.225  0.00  0.00     0.040 C 
BRANCH  16  17
ATOM     17  C   UNL d   1      33.239  19.355 -22.724  0.00  0.00     0.026 A 
ATOM     18  C   UNL d   1      33.237  19.245 -21.889  0.00  0.00     0.099 A 
ATOM     19  N   UNL d   1      33.235  19.887 -21.375  0.00  0.00    -0.242 NA
ATOM     20  C   UNL d   1      33.234  20.648 -21.694  0.00  0.00     0.099 A 
ATOM     21  C   UNL d   1      33.235  20.763 -22.511  0.00  0.00     0.021 A 
ATOM     22  C   UNL d   1      33.238  20.116 -23.024  0.00  0.00     0.004 A 
ENDBRANCH  16  17
ENDBRANCH  15  16
ENDBRANCH   2  15
TORSDOF 5
ENDMDL
