MODEL 1
REMARK VINA RESULT:      30.5      0.000      0.000
REMARK  3 active torsions:
REMARK  status: ('A' for Active; 'I' for Inactive)
REMARK    1  A    between atoms: C_7  and  N_1 
REMARK    2  A    between atoms: C_8  and  C_2 
REMARK    3  A    between atoms: N_4  and  C_9 
ROOT
ATOM      1  N   UNL d   1      45.345 -15.408  36.809  0.00  0.00    -0.211 N 
ATOM      2  C   UNL d   1      45.784 -14.815  37.184  0.00  0.00     0.105 A 
ATOM      3  N   UNL d   1      45.876 -15.902  36.404  0.00  0.00    -0.060 NA
ATOM      4  N   UNL d   1      46.641 -15.614  36.529  0.00  0.00    -0.127 NA
ATOM      5  C   UNL d   1      46.578 -14.944  37.011  0.00  0.00     0.143 A 
ENDROOT
BRANCH   1   6
ATOM      6  C   UNL d   1      44.526 -15.494  36.833  0.00  0.00     0.085 A 
ATOM      7  C   UNL d   1      44.050 -15.044  36.333  0.00  0.00     0.021 A 
ATOM      8  C   UNL d   1      43.230 -15.127  36.352  0.00  0.00     0.025 A 
ATOM      9  C   UNL d   1      42.886 -15.666  36.877  0.00  0.00     0.127 A 
ATOM     10  C   UNL d   1      43.359 -16.117  37.378  0.00  0.00     0.025 A 
ATOM     11  C   UNL d   1      44.178 -16.033  37.357  0.00  0.00     0.021 A 
BRANCH   9  12
ATOM     12  N   UNL d   1      42.063 -15.749  36.896  0.00  0.00    -0.114 N 
ATOM     13  O   UNL d   1      41.623 -15.329  37.454  0.00  0.00    -0.532 OA
ATOM     14  O   UNL d   1      41.688 -16.244  36.366  0.00  0.00    -0.532 OA
ENDBRANCH   9  12
ENDBRANCH   1   6
BRANCH   2  15
ATOM     15  C   UNL d   1      45.479 -14.205  37.648  0.00  0.00     0.019 A 
ATOM     16  C   UNL d   1      45.682 -13.422  37.485  0.00  0.00     0.002 A 
ATOM     17  C   UNL d   1      45.380 -12.813  37.945  0.00  0.00     0.011 A 
ATOM     18  C   UNL d   1      44.866 -12.982  38.578  0.00  0.00     0.058 A 
ATOM     19  C   UNL d   1      44.662 -13.772  38.740  0.00  0.00     0.011 A 
ATOM     20 CL   UNL d   1      44.565 -12.373  39.037  0.00  0.00    -0.082 Cl
ATOM     21  C   UNL d   1      44.966 -14.379  38.279  0.00  0.00     0.002 A 
ENDBRANCH   2  15
TORSDOF 3
ENDMDL
MODEL 2
REMARK VINA RESULT:      33.3      1.343      1.720
REMARK  3 active torsions:
REMARK  status: ('A' for Active; 'I' for Inactive)
REMARK    1  A    between atoms: C_7  and  N_1 
REMARK    2  A    between atoms: C_8  and  C_2 
REMARK    3  A    between atoms: N_4  and  C_9 
ROOT
ATOM      1  N   UNL d   1      44.783 -16.500  37.704  0.00  0.00    -0.211 N 
ATOM      2  C   UNL d   1      45.536 -16.159  37.694  0.00  0.00     0.105 A 
ATOM      3  N   UNL d   1      44.847 -17.253  38.049  0.00  0.00    -0.060 NA
ATOM      4  N   UNL d   1      45.639 -17.376  38.251  0.00  0.00    -0.127 NA
ATOM      5  C   UNL d   1      46.060 -16.698  38.030  0.00  0.00     0.143 A 
ENDROOT
BRANCH   1   6
ATOM      6  C   UNL d   1      44.090 -16.155  37.422  0.00  0.00     0.085 A 
ATOM      7  C   UNL d   1      44.010 -15.989  36.618  0.00  0.00     0.021 A 
ATOM      8  C   UNL d   1      43.318 -15.644  36.331  0.00  0.00     0.025 A 
ATOM      9  C   UNL d   1      42.703 -15.464  36.855  0.00  0.00     0.127 A 
ATOM     10  C   UNL d   1      42.780 -15.629  37.657  0.00  0.00     0.025 A 
ATOM     11  C   UNL d   1      43.472 -15.974  37.942  0.00  0.00     0.021 A 
BRANCH   9  12
ATOM     12  N   UNL d   1      42.009 -15.118  36.566  0.00  0.00    -0.114 N 
ATOM     13  O   UNL d   1      41.320 -15.569  36.513  0.00  0.00    -0.532 OA
ATOM     14  O   UNL d   1      42.007 -14.335  36.333  0.00  0.00    -0.532 OA
ENDBRANCH   9  12
ENDBRANCH   1   6
BRANCH   2  15
ATOM     15  C   UNL d   1      45.728 -15.413  37.400  0.00  0.00     0.019 A 
ATOM     16  C   UNL d   1      46.056 -15.339  36.646  0.00  0.00     0.002 A 
ATOM     17  C   UNL d   1      46.248 -14.597  36.351  0.00  0.00     0.011 A 
ATOM     18  C   UNL d   1      46.111 -13.916  36.809  0.00  0.00     0.058 A 
ATOM     19  C   UNL d   1      45.779 -13.993  37.568  0.00  0.00     0.011 A 
ATOM     20 CL   UNL d   1      46.302 -13.176  36.513  0.00  0.00    -0.082 Cl
ATOM     21  C   UNL d   1      45.589 -14.735  37.861  0.00  0.00     0.002 A 
ENDBRANCH   2  15
TORSDOF 3
ENDMDL
