MODEL 1
REMARK VINA RESULT:      53.0      0.000      0.000
REMARK  6 active torsions:
REMARK  status: ('A' for Active; 'I' for Inactive)
REMARK    1  A    between atoms: C_10  and  N_3 
REMARK    2  A    between atoms: C_11  and  N_8 
REMARK    3  A    between atoms: C_12  and  C_11 
REMARK    4  A    between atoms: O_15  and  C_12 
REMARK    5  A    between atoms: C_18  and  O_15 
REMARK    6  A    between atoms: C_22  and  C_18 
ROOT
ATOM      1  C   UNL d   1     -57.674 -98.782 -44.708  0.00  0.00     0.191 A 
ATOM      2  C   UNL d   1     -57.647 -98.772 -43.876  0.00  0.00     0.196 A 
ATOM      3  N   UNL d   1     -58.472 -98.775 -44.929  0.00  0.00    -0.193 N 
ATOM      4  N   UNL d   1     -58.920 -98.761 -44.248  0.00  0.00    -0.058 NA
ATOM      5  N   UNL d   1     -58.430 -98.759 -43.604  0.00  0.00    -0.122 NA
ATOM      6  N   UNL d   1     -56.978 -98.796 -45.134  0.00  0.00    -0.204 NA
ATOM      7  C   UNL d   1     -56.925 -98.777 -43.495  0.00  0.00     0.289 A 
ATOM      8  N   UNL d   1     -56.222 -98.791 -43.922  0.00  0.00    -0.249 N 
ATOM      9  C   UNL d   1     -56.249 -98.800 -44.754  0.00  0.00     0.187 A 
ATOM     10  O   UNL d   1     -56.899 -98.767 -42.664  0.00  0.00    -0.265 OA
ENDROOT
BRANCH   8  11
ATOM     11  C   UNL d   1     -55.484 -98.795 -43.542  0.00  0.00     0.153 C 
BRANCH  11  12
ATOM     12  C   UNL d   1     -55.097 -99.512 -43.382  0.00  0.00     0.318 C 
ATOM     13  O   UNL d   1     -54.732 -99.628 -42.653  0.00  0.00    -0.257 OA
BRANCH  12  14
ATOM     14  O   UNL d   1     -55.083-100.099 -43.954  0.00  0.00    -0.270 OA
BRANCH  14  15
ATOM     15  C   UNL d   1     -55.432-100.833 -43.803  0.00  0.00     0.126 C 
BRANCH  15  16
ATOM     16  C   UNL d   1     -55.247-101.471 -44.271  0.00  0.00     0.025 A 
ATOM     17  C   UNL d   1     -54.959-101.348 -45.036  0.00  0.00     0.002 A 
ATOM     18  C   UNL d   1     -54.769-101.992 -45.518  0.00  0.00     0.000 A 
ATOM     19  C   UNL d   1     -54.870-102.757 -45.228  0.00  0.00     0.000 A 
ATOM     20  C   UNL d   1     -55.159-102.880 -44.463  0.00  0.00     0.000 A 
ATOM     21  C   UNL d   1     -55.346-102.238 -43.988  0.00  0.00     0.002 A 
ENDBRANCH  15  16
ENDBRANCH  14  15
ENDBRANCH  12  14
ENDBRANCH  11  12
ENDBRANCH   8  11
BRANCH   3  22
ATOM     22  C   UNL d   1     -58.792 -98.779 -45.669  0.00  0.00     0.086 A 
ATOM     23  C   UNL d   1     -59.625 -98.795 -45.770  0.00  0.00     0.019 A 
ATOM     24  C   UNL d   1     -59.939 -98.800 -46.516  0.00  0.00     0.002 A 
ATOM     25  C   UNL d   1     -59.437 -98.789 -47.191  0.00  0.00     0.000 A 
ATOM     26  C   UNL d   1     -58.633 -98.774 -47.086  0.00  0.00     0.002 A 
ATOM     27  C   UNL d   1     -59.761 -98.794 -47.972  0.00  0.00     0.000 C 
ATOM     28  C   UNL d   1     -58.302 -98.769 -46.333  0.00  0.00     0.019 A 
ENDBRANCH   3  22
TORSDOF 6
ENDMDL
