MODEL 1
REMARK VINA RESULT:      82.4      0.000      0.000
REMARK  4 active torsions:
REMARK  status: ('A' for Active; 'I' for Inactive)
REMARK    1  A    between atoms: C_2  and  C_1 
REMARK    2  A    between atoms: C_4  and  C_2 
REMARK    3  A    between atoms: N_6  and  C_2 
REMARK    4  A    between atoms: C_8  and  N_6 
ROOT
ATOM      1  C   UNL d   1     -51.617  25.753  34.449  0.00  0.00     0.088 C 
ENDROOT
BRANCH   1   2
ATOM      2  C   UNL d   1     -51.846  25.782  35.250  0.00  0.00     0.058 A 
ATOM      3  C   UNL d   1     -51.334  26.124  35.816  0.00  0.00     0.214 A 
ATOM      4  C   UNL d   1     -51.566  26.152  36.609  0.00  0.00     0.120 A 
ATOM      5  O   UNL d   1     -50.598  26.434  35.580  0.00  0.00    -0.285 OA
ATOM      6  N   UNL d   1     -51.058  26.489  37.156  0.00  0.00    -0.241 NA
ATOM      7  C   UNL d   1     -52.295  25.845  36.843  0.00  0.00     0.021 A 
ATOM      8  C   UNL d   1     -51.286  26.519  37.961  0.00  0.00     0.099 A 
ATOM      9  C   UNL d   1     -52.015  26.213  38.195  0.00  0.00     0.021 A 
ATOM     10  C   UNL d   1     -52.527  25.871  37.628  0.00  0.00     0.003 A 
ATOM     11  C   UNL d   1     -52.804  25.507  36.288  0.00  0.00     0.002 A 
ATOM     12  C   UNL d   1     -52.576  25.476  35.484  0.00  0.00     0.005 A 
ENDBRANCH   1   2
BRANCH   1  13
ATOM     13  C   UNL d   1     -51.365  26.450  34.063  0.00  0.00     0.045 A 
ATOM     14  C   UNL d   1     -50.589  26.499  33.784  0.00  0.00     0.141 A 
ATOM     15  F   UNL d   1     -49.941  26.017  33.778  0.00  0.00    -0.204 F 
ATOM     16  C   UNL d   1     -50.336  27.189  33.401  0.00  0.00     0.030 A 
ATOM     17  C   UNL d   1     -50.866  27.816  33.306  0.00  0.00     0.002 A 
ATOM     18  C   UNL d   1     -51.641  27.767  33.584  0.00  0.00     0.000 A 
ATOM     19  C   UNL d   1     -51.893  27.069  33.970  0.00  0.00     0.004 A 
ENDBRANCH   1  13
BRANCH   1  20
ATOM     20  N   UNL d   1     -51.639  25.031  34.033  0.00  0.00    -0.227 NA
BRANCH  20  21
ATOM     21  C   UNL d   1     -52.037  24.510  33.791  0.00  0.00     0.162 A 
ATOM     22  N   UNL d   1     -51.777  23.854  33.775  0.00  0.00    -0.225 NA
ATOM     23  C   UNL d   1     -52.175  23.325  33.531  0.00  0.00     0.101 A 
ATOM     24  C   UNL d   1     -52.823  23.449  33.306  0.00  0.00     0.021 A 
ATOM     25  C   UNL d   1     -53.080  24.105  33.323  0.00  0.00     0.005 A 
ATOM     26  C   UNL d   1     -52.681  24.633  33.567  0.00  0.00     0.039 A 
ENDBRANCH  20  21
ENDBRANCH   1  20
TORSDOF 4
ENDMDL
