MODEL 1
REMARK VINA RESULT:      -7.2      0.000      0.000
REMARK  6 active torsions:
REMARK  status: ('A' for Active; 'I' for Inactive)
REMARK    1  A    between atoms: C_9  and  N_1 
REMARK    2  A    between atoms: N_2  and  C_8 
REMARK       I    between atoms: C_3  and  N_5 
REMARK    3  A    between atoms: C_12  and  C_3 
REMARK    4  A    between atoms: C_4  and  C_11 
REMARK       I    between atoms: N_6  and  C_4 
REMARK    5  A    between atoms: N_5  and  C_7 
REMARK    6  A    between atoms: C_10  and  N_6 
ROOT
ATOM      1  C   UNL d   1     -47.838  13.829  22.947  0.00  0.00     0.121 A 
ATOM      2  C   UNL d   1     -48.421  13.467  23.404  0.00  0.00     0.105 A 
ATOM      3  N   UNL d   1     -48.511  15.085  22.986  0.00  0.00    -0.241 NA
ATOM      4  C   UNL d   1     -49.073  13.943  23.658  0.00  0.00     0.042 A 
ATOM      5  C   UNL d   1     -47.864  14.625  22.730  0.00  0.00     0.120 A 
ATOM      6  C   UNL d   1     -49.103  14.729  23.447  0.00  0.00     0.101 A 
ENDROOT
BRANCH   1   7
ATOM      7  N   UNL d   1     -47.185  13.348  22.694  0.00  0.00    -0.205 NA
ATOM      8  C   UNL d   1     -46.392  13.617  22.822  0.00  0.00     0.279 C 
ATOM      9  O   UNL d   1     -46.273  14.364  23.204  0.00  0.00    -0.265 OA
BRANCH   8  10
ATOM     10  C   UNL d   1     -45.750  13.154  22.578  0.00  0.00     0.059 A 
ATOM     11  C   UNL d   1     -45.536  12.486  23.014  0.00  0.00     0.028 A 
ATOM     12  C   UNL d   1     -44.908  12.038  22.770  0.00  0.00     0.127 A 
ATOM     13  C   UNL d   1     -44.488  12.236  22.107  0.00  0.00     0.024 A 
ATOM     14  C   UNL d   1     -44.688  12.898  21.661  0.00  0.00     0.002 A 
ATOM     15  C   UNL d   1     -45.332  13.367  21.902  0.00  0.00     0.005 A 
BRANCH  12  16
ATOM     16  N   UNL d   1     -44.681  11.380  23.181  0.00  0.00    -0.114 N 
ATOM     17  O   UNL d   1     -43.909  11.082  23.230  0.00  0.00    -0.532 OA
ATOM     18  O   UNL d   1     -45.196  10.914  23.611  0.00  0.00    -0.532 OA
ENDBRANCH  12  16
ENDBRANCH   8  10
ENDBRANCH   1   7
BRANCH   2  19
ATOM     19  N   UNL d   1     -48.391  12.668  23.619  0.00  0.00    -0.206 NA
ATOM     20  C   UNL d   1     -49.034  12.167  23.485  0.00  0.00     0.279 C 
ATOM     21  O   UNL d   1     -49.005  11.385  23.695  0.00  0.00    -0.265 OA
BRANCH  20  22
ATOM     22  C   UNL d   1     -49.735  12.480  23.120  0.00  0.00     0.059 A 
ATOM     23  C   UNL d   1     -49.798  12.480  22.298  0.00  0.00     0.028 A 
ATOM     24  C   UNL d   1     -50.473  12.781  21.945  0.00  0.00     0.127 A 
ATOM     25  C   UNL d   1     -51.063  13.071  22.393  0.00  0.00     0.024 A 
ATOM     26  C   UNL d   1     -51.016  13.079  23.231  0.00  0.00     0.002 A 
ATOM     27  C   UNL d   1     -50.332  12.774  23.594  0.00  0.00     0.005 A 
BRANCH  24  28
ATOM     28  N   UNL d   1     -50.557  12.791  21.136  0.00  0.00    -0.114 N 
ATOM     29  O   UNL d   1     -50.313  12.177  20.624  0.00  0.00    -0.532 OA
ATOM     30  O   UNL d   1     -50.891  13.405  20.718  0.00  0.00    -0.532 OA
ENDBRANCH  24  28
ENDBRANCH  20  22
ENDBRANCH   2  19
TORSDOF 6
ENDMDL
MODEL 2
REMARK VINA RESULT:      -6.7      1.249      5.042
REMARK  6 active torsions:
REMARK  status: ('A' for Active; 'I' for Inactive)
REMARK    1  A    between atoms: C_9  and  N_1 
REMARK    2  A    between atoms: N_2  and  C_8 
REMARK       I    between atoms: C_3  and  N_5 
REMARK    3  A    between atoms: C_12  and  C_3 
REMARK    4  A    between atoms: C_4  and  C_11 
REMARK       I    between atoms: N_6  and  C_4 
REMARK    5  A    between atoms: N_5  and  C_7 
REMARK    6  A    between atoms: C_10  and  N_6 
ROOT
ATOM      1  C   UNL d   1     -47.507  12.164  23.461  0.00  0.00     0.121 A 
ATOM      2  C   UNL d   1     -46.815  12.602  23.560  0.00  0.00     0.105 A 
ATOM      3  N   UNL d   1     -46.803  10.928  23.551  0.00  0.00    -0.241 NA
ATOM      4  C   UNL d   1     -46.091  12.174  23.658  0.00  0.00     0.042 A 
ATOM      5  C   UNL d   1     -47.522  11.339  23.453  0.00  0.00     0.120 A 
ATOM      6  C   UNL d   1     -46.100  11.360  23.652  0.00  0.00     0.101 A 
ENDROOT
BRANCH   1   7
ATOM      7  N   UNL d   1     -48.232  12.596  23.363  0.00  0.00    -0.205 NA
ATOM      8  C   UNL d   1     -48.958  12.175  23.247  0.00  0.00     0.279 C 
ATOM      9  O   UNL d   1     -48.939  11.328  23.233  0.00  0.00    -0.265 OA
BRANCH   8  10
ATOM     10  C   UNL d   1     -49.669  12.588  23.150  0.00  0.00     0.059 A 
ATOM     11  C   UNL d   1     -49.762  13.100  22.509  0.00  0.00     0.028 A 
ATOM     12  C   UNL d   1     -50.459  13.502  22.420  0.00  0.00     0.127 A 
ATOM     13  C   UNL d   1     -51.064  13.408  22.950  0.00  0.00     0.024 A 
ATOM     14  C   UNL d   1     -50.987  12.903  23.595  0.00  0.00     0.002 A 
ATOM     15  C   UNL d   1     -50.275  12.484  23.697  0.00  0.00     0.005 A 
BRANCH  12  16
ATOM     16  N   UNL d   1     -50.572  14.007  21.800  0.00  0.00    -0.114 N 
ATOM     17  O   UNL d   1     -50.280  14.781  21.747  0.00  0.00    -0.532 OA
ATOM     18  O   UNL d   1     -50.998  13.815  21.130  0.00  0.00    -0.532 OA
ENDBRANCH  12  16
ENDBRANCH   8  10
ENDBRANCH   1   7
BRANCH   2  19
ATOM     19  N   UNL d   1     -46.804  13.430  23.567  0.00  0.00    -0.206 NA
ATOM     20  C   UNL d   1     -46.407  13.855  22.980  0.00  0.00     0.279 C 
ATOM     21  O   UNL d   1     -46.396  14.664  22.987  0.00  0.00    -0.265 OA
BRANCH  20  22
ATOM     22  C   UNL d   1     -46.005  13.432  22.362  0.00  0.00     0.059 A 
ATOM     23  C   UNL d   1     -45.182  13.376  22.379  0.00  0.00     0.028 A 
ATOM     24  C   UNL d   1     -44.794  12.969  21.784  0.00  0.00     0.127 A 
ATOM     25  C   UNL d   1     -45.207  12.631  21.194  0.00  0.00     0.024 A 
ATOM     26  C   UNL d   1     -46.045  12.679  21.161  0.00  0.00     0.002 A 
ATOM     27  C   UNL d   1     -46.444  13.091  21.763  0.00  0.00     0.005 A 
BRANCH  24  28
ATOM     28  N   UNL d   1     -43.983  12.900  21.781  0.00  0.00    -0.114 N 
ATOM     29  O   UNL d   1     -43.562  12.212  22.000  0.00  0.00    -0.532 OA
ATOM     30  O   UNL d   1     -43.474  13.497  21.562  0.00  0.00    -0.532 OA
ENDBRANCH  24  28
ENDBRANCH  20  22
ENDBRANCH   2  19
TORSDOF 6
ENDMDL
MODEL 3
REMARK VINA RESULT:      -6.7      8.333     10.085
REMARK  6 active torsions:
REMARK  status: ('A' for Active; 'I' for Inactive)
REMARK    1  A    between atoms: C_9  and  N_1 
REMARK    2  A    between atoms: N_2  and  C_8 
REMARK       I    between atoms: C_3  and  N_5 
REMARK    3  A    between atoms: C_12  and  C_3 
REMARK    4  A    between atoms: C_4  and  C_11 
REMARK       I    between atoms: N_6  and  C_4 
REMARK    5  A    between atoms: N_5  and  C_7 
REMARK    6  A    between atoms: C_10  and  N_6 
ROOT
ATOM      1  C   UNL d   1     -40.208  14.799  19.046  0.00  0.00     0.121 A 
ATOM      2  C   UNL d   1     -39.920  15.129  18.348  0.00  0.00     0.105 A 
ATOM      3  N   UNL d   1     -41.257  14.123  18.357  0.00  0.00    -0.241 NA
ATOM      4  C   UNL d   1     -40.324  14.941  17.629  0.00  0.00     0.042 A 
ATOM      5  C   UNL d   1     -40.866  14.301  19.072  0.00  0.00     0.120 A 
ATOM      6  C   UNL d   1     -40.974  14.450  17.648  0.00  0.00     0.101 A 
ENDROOT
BRANCH   1   7
ATOM      7  N   UNL d   1     -39.800  14.989  19.766  0.00  0.00    -0.205 NA
ATOM      8  C   UNL d   1     -40.146  14.780  20.511  0.00  0.00     0.279 C 
ATOM      9  O   UNL d   1     -40.895  14.384  20.516  0.00  0.00    -0.265 OA
BRANCH   8  10
ATOM     10  C   UNL d   1     -39.754  14.962  21.218  0.00  0.00     0.059 A 
ATOM     11  C   UNL d   1     -39.407  14.358  21.662  0.00  0.00     0.028 A 
ATOM     12  C   UNL d   1     -39.026  14.542  22.352  0.00  0.00     0.127 A 
ATOM     13  C   UNL d   1     -38.981  15.308  22.611  0.00  0.00     0.024 A 
ATOM     14  C   UNL d   1     -39.321  15.921  22.181  0.00  0.00     0.002 A 
ATOM     15  C   UNL d   1     -39.716  15.744  21.469  0.00  0.00     0.005 A 
BRANCH  12  16
ATOM     16  N   UNL d   1     -38.679  13.967  22.802  0.00  0.00    -0.114 N 
ATOM     17  O   UNL d   1     -38.050  14.080  23.330  0.00  0.00    -0.532 OA
ATOM     18  O   UNL d   1     -38.910  13.184  22.794  0.00  0.00    -0.532 OA
ENDBRANCH  12  16
ENDBRANCH   8  10
ENDBRANCH   1   7
BRANCH   2  19
ATOM     19  N   UNL d   1     -39.259  15.628  18.327  0.00  0.00    -0.206 NA
ATOM     20  C   UNL d   1     -38.585  15.424  17.895  0.00  0.00     0.279 C 
ATOM     21  O   UNL d   1     -37.940  15.912  17.874  0.00  0.00    -0.265 OA
BRANCH  20  22
ATOM     22  C   UNL d   1     -38.572  14.689  17.468  0.00  0.00     0.059 A 
ATOM     23  C   UNL d   1     -38.339  14.000  17.855  0.00  0.00     0.028 A 
ATOM     24  C   UNL d   1     -38.326  13.291  17.444  0.00  0.00     0.127 A 
ATOM     25  C   UNL d   1     -38.538  13.269  16.678  0.00  0.00     0.024 A 
ATOM     26  C   UNL d   1     -38.779  13.961  16.268  0.00  0.00     0.002 A 
ATOM     27  C   UNL d   1     -38.793  14.683  16.681  0.00  0.00     0.005 A 
BRANCH  24  28
ATOM     28  N   UNL d   1     -38.099  12.599  17.806  0.00  0.00    -0.114 N 
ATOM     29  O   UNL d   1     -37.998  11.867  17.415  0.00  0.00    -0.532 OA
ATOM     30  O   UNL d   1     -37.940  12.529  18.602  0.00  0.00    -0.532 OA
ENDBRANCH  24  28
ENDBRANCH  20  22
ENDBRANCH   2  19
TORSDOF 6
ENDMDL
MODEL 4
REMARK VINA RESULT:      -6.1      1.132      1.818
REMARK  6 active torsions:
REMARK  status: ('A' for Active; 'I' for Inactive)
REMARK    1  A    between atoms: C_9  and  N_1 
REMARK    2  A    between atoms: N_2  and  C_8 
REMARK       I    between atoms: C_3  and  N_5 
REMARK    3  A    between atoms: C_12  and  C_3 
REMARK    4  A    between atoms: C_4  and  C_11 
REMARK       I    between atoms: N_6  and  C_4 
REMARK    5  A    between atoms: N_5  and  C_7 
REMARK    6  A    between atoms: C_10  and  N_6 
ROOT
ATOM      1  C   UNL d   1     -47.807  12.401  22.993  0.00  0.00     0.121 A 
ATOM      2  C   UNL d   1     -48.378  12.868  23.361  0.00  0.00     0.105 A 
ATOM      3  N   UNL d   1     -48.528  11.204  23.273  0.00  0.00    -0.241 NA
ATOM      4  C   UNL d   1     -49.049  12.476  23.696  0.00  0.00     0.042 A 
ATOM      5  C   UNL d   1     -47.862  11.579  22.939  0.00  0.00     0.120 A 
ATOM      6  C   UNL d   1     -49.108  11.666  23.646  0.00  0.00     0.101 A 
ENDROOT
BRANCH   1   7
ATOM      7  N   UNL d   1     -47.134  12.797  22.658  0.00  0.00    -0.205 NA
ATOM      8  C   UNL d   1     -46.355  12.497  22.804  0.00  0.00     0.279 C 
ATOM      9  O   UNL d   1     -46.269  11.805  23.285  0.00  0.00    -0.265 OA
BRANCH   8  10
ATOM     10  C   UNL d   1     -45.695  12.878  22.481  0.00  0.00     0.059 A 
ATOM     11  C   UNL d   1     -45.027  12.437  22.274  0.00  0.00     0.028 A 
ATOM     12  C   UNL d   1     -44.385  12.815  21.959  0.00  0.00     0.127 A 
ATOM     13  C   UNL d   1     -44.388  13.616  21.843  0.00  0.00     0.024 A 
ATOM     14  C   UNL d   1     -45.045  14.070  22.043  0.00  0.00     0.002 A 
ATOM     15  C   UNL d   1     -45.712  13.693  22.369  0.00  0.00     0.005 A 
BRANCH  12  16
ATOM     16  N   UNL d   1     -43.721  12.403  21.750  0.00  0.00    -0.114 N 
ATOM     17  O   UNL d   1     -43.344  11.826  22.211  0.00  0.00    -0.532 OA
ATOM     18  O   UNL d   1     -43.328  12.506  21.041  0.00  0.00    -0.532 OA
ENDBRANCH  12  16
ENDBRANCH   8  10
ENDBRANCH   1   7
BRANCH   2  19
ATOM     19  N   UNL d   1     -48.318  13.693  23.414  0.00  0.00    -0.206 NA
ATOM     20  C   UNL d   1     -48.956  14.179  23.216  0.00  0.00     0.279 C 
ATOM     21  O   UNL d   1     -48.898  14.984  23.266  0.00  0.00    -0.265 OA
BRANCH  20  22
ATOM     22  C   UNL d   1     -49.683  13.824  22.955  0.00  0.00     0.059 A 
ATOM     23  C   UNL d   1     -49.843  13.775  22.147  0.00  0.00     0.028 A 
ATOM     24  C   UNL d   1     -50.543  13.433  21.895  0.00  0.00     0.127 A 
ATOM     25  C   UNL d   1     -51.064  13.150  22.425  0.00  0.00     0.024 A 
ATOM     26  C   UNL d   1     -50.918  13.191  23.251  0.00  0.00     0.002 A 
ATOM     27  C   UNL d   1     -50.208  13.538  23.512  0.00  0.00     0.005 A 
BRANCH  24  28
ATOM     28  N   UNL d   1     -50.722  13.375  21.104  0.00  0.00    -0.114 N 
ATOM     29  O   UNL d   1     -50.768  14.021  20.576  0.00  0.00    -0.532 OA
ATOM     30  O   UNL d   1     -50.879  12.673  20.721  0.00  0.00    -0.532 OA
ENDBRANCH  24  28
ENDBRANCH  20  22
ENDBRANCH   2  19
TORSDOF 6
ENDMDL
MODEL 5
REMARK VINA RESULT:      -4.7      1.435      4.632
REMARK  6 active torsions:
REMARK  status: ('A' for Active; 'I' for Inactive)
REMARK    1  A    between atoms: C_9  and  N_1 
REMARK    2  A    between atoms: N_2  and  C_8 
REMARK       I    between atoms: C_3  and  N_5 
REMARK    3  A    between atoms: C_12  and  C_3 
REMARK    4  A    between atoms: C_4  and  C_11 
REMARK       I    between atoms: N_6  and  C_4 
REMARK    5  A    between atoms: N_5  and  C_7 
REMARK    6  A    between atoms: C_10  and  N_6 
ROOT
ATOM      1  C   UNL d   1     -47.514  14.185  22.918  0.00  0.00     0.121 A 
ATOM      2  C   UNL d   1     -46.791  13.902  23.196  0.00  0.00     0.105 A 
ATOM      3  N   UNL d   1     -46.909  15.355  22.372  0.00  0.00    -0.241 NA
ATOM      4  C   UNL d   1     -46.103  14.374  23.050  0.00  0.00     0.042 A 
ATOM      5  C   UNL d   1     -47.593  14.898  22.510  0.00  0.00     0.120 A 
ATOM      6  C   UNL d   1     -46.176  15.078  22.648  0.00  0.00     0.101 A 
ENDROOT
BRANCH   1   7
ATOM      7  N   UNL d   1     -48.202  13.710  23.066  0.00  0.00    -0.205 NA
ATOM      8  C   UNL d   1     -48.972  14.060  23.016  0.00  0.00     0.279 C 
ATOM      9  O   UNL d   1     -49.033  14.882  22.819  0.00  0.00    -0.265 OA
BRANCH   8  10
ATOM     10  C   UNL d   1     -49.648  13.604  23.159  0.00  0.00     0.059 A 
ATOM     11  C   UNL d   1     -49.573  12.796  23.313  0.00  0.00     0.028 A 
ATOM     12  C   UNL d   1     -50.237  12.355  23.451  0.00  0.00     0.127 A 
ATOM     13  C   UNL d   1     -50.971  12.694  23.441  0.00  0.00     0.024 A 
ATOM     14  C   UNL d   1     -51.064  13.498  23.289  0.00  0.00     0.002 A 
ATOM     15  C   UNL d   1     -50.388  13.962  23.145  0.00  0.00     0.005 A 
BRANCH  12  16
ATOM     16  N   UNL d   1     -50.186  11.563  23.604  0.00  0.00    -0.114 N 
ATOM     17  O   UNL d   1     -49.484  11.130  23.687  0.00  0.00    -0.532 OA
ATOM     18  O   UNL d   1     -50.836  11.077  23.698  0.00  0.00    -0.532 OA
ENDBRANCH  12  16
ENDBRANCH   8  10
ENDBRANCH   1   7
BRANCH   2  19
ATOM     19  N   UNL d   1     -46.716  13.186  23.605  0.00  0.00    -0.206 NA
ATOM     20  C   UNL d   1     -46.263  12.566  23.298  0.00  0.00     0.279 C 
ATOM     21  O   UNL d   1     -46.190  11.866  23.697  0.00  0.00    -0.265 OA
BRANCH  20  22
ATOM     22  C   UNL d   1     -45.871  12.669  22.551  0.00  0.00     0.059 A 
ATOM     23  C   UNL d   1     -45.048  12.716  22.529  0.00  0.00     0.028 A 
ATOM     24  C   UNL d   1     -44.669  12.815  21.810  0.00  0.00     0.127 A 
ATOM     25  C   UNL d   1     -45.092  12.866  21.138  0.00  0.00     0.024 A 
ATOM     26  C   UNL d   1     -45.930  12.820  21.142  0.00  0.00     0.002 A 
ATOM     27  C   UNL d   1     -46.320  12.720  21.870  0.00  0.00     0.005 A 
BRANCH  24  28
ATOM     28  N   UNL d   1     -43.858  12.864  21.765  0.00  0.00    -0.114 N 
ATOM     29  O   UNL d   1     -43.420  13.574  21.802  0.00  0.00    -0.532 OA
ATOM     30  O   UNL d   1     -43.365  12.221  21.676  0.00  0.00    -0.532 OA
ENDBRANCH  24  28
ENDBRANCH  20  22
ENDBRANCH   2  19
TORSDOF 6
ENDMDL
