MODEL 1
REMARK VINA RESULT:      -6.1      0.000      0.000
REMARK  5 active torsions:
REMARK  status: ('A' for Active; 'I' for Inactive)
REMARK    1  A    between atoms: C_7  and  C_1 
REMARK    2  A    between atoms: C_8  and  C_2 
REMARK    3  A    between atoms: O_22  and  C_8 
REMARK    4  A    between atoms: C_24  and  C_14 
REMARK    5  A    between atoms: C_27  and  O_22 
ROOT
ATOM      1  C   UNL d   1     -39.867  14.705  20.179  0.00  0.00     0.067 A 
ATOM      2  C   UNL d   1     -40.679  14.634  20.053  0.00  0.00     0.166 A 
ATOM      3  C   UNL d   1     -39.354  14.779  19.531  0.00  0.00     0.200 A 
ATOM      4  C   UNL d   1     -39.654  14.782  18.764  0.00  0.00     0.062 A 
ATOM      5  O   UNL d   1     -40.979  14.636  19.279  0.00  0.00    -0.301 OA
ATOM      6  C   UNL d   1     -40.466  14.710  18.638  0.00  0.00     0.106 A 
ATOM      7  C   UNL d   1     -39.143  14.855  18.123  0.00  0.00     0.008 A 
ATOM      8  C   UNL d   1     -40.767  14.712  17.872  0.00  0.00     0.067 A 
ATOM      9  C   UNL d   1     -40.255  14.786  17.231  0.00  0.00     0.198 A 
ATOM     10  C   UNL d   1     -39.443  14.858  17.356  0.00  0.00     0.039 A 
ATOM     11  O   UNL d   1     -38.542  14.851  19.656  0.00  0.00    -0.286 OA
ATOM     12  O   UNL d   1     -40.554  14.789  16.452  0.00  0.00    -0.286 OA
ENDROOT
BRANCH   1  13
ATOM     13  C   UNL d   1     -39.567  14.703  20.946  0.00  0.00     0.007 A 
ATOM     14  C   UNL d   1     -39.304  13.996  21.286  0.00  0.00     0.027 A 
ATOM     15  C   UNL d   1     -39.005  13.994  22.052  0.00  0.00     0.123 A 
ATOM     16  O   UNL d   1     -38.744  13.287  22.387  0.00  0.00    -0.301 OA
ATOM     17  C   UNL d   1     -38.966  14.697  22.482  0.00  0.00     0.123 A 
ATOM     18  C   UNL d   1     -38.439  13.289  23.170  0.00  0.00     0.149 A 
ATOM     19  C   UNL d   1     -38.397  13.988  23.607  0.00  0.00     0.149 A 
ATOM     20  O   UNL d   1     -38.661  14.697  23.263  0.00  0.00    -0.301 OA
ATOM     21  C   UNL d   1     -39.228  15.405  22.143  0.00  0.00     0.027 A 
ATOM     22  C   UNL d   1     -39.528  15.406  21.376  0.00  0.00     0.002 A 
ENDBRANCH   1  13
BRANCH   2  23
ATOM     23  C   UNL d   1     -41.192  14.559  20.698  0.00  0.00     0.323 C 
ATOM     24  O   UNL d   1     -41.383  15.222  21.150  0.00  0.00    -0.257 OA
BRANCH  23  25
ATOM     25  O   UNL d   1     -41.511  13.824  20.888  0.00  0.00    -0.270 OA
BRANCH  25  26
ATOM     26  C   UNL d   1     -42.301  13.766  21.109  0.00  0.00     0.126 C 
ATOM     27  C   UNL d   1     -42.620  13.030  21.302  0.00  0.00     0.029 C 
ENDBRANCH  25  26
ENDBRANCH  23  25
ENDBRANCH   2  23
BRANCH  10  28
ATOM     28  C   UNL d   1     -38.931  14.932  16.711  0.00  0.00     0.003 C 
ATOM     29  C   UNL d   1     -38.313  14.395  16.604  0.00  0.00     0.000 C 
ENDBRANCH  10  28
TORSDOF 5
ENDMDL
MODEL 2
REMARK VINA RESULT:      -5.6      1.483      4.775
REMARK  5 active torsions:
REMARK  status: ('A' for Active; 'I' for Inactive)
REMARK    1  A    between atoms: C_7  and  C_1 
REMARK    2  A    between atoms: C_8  and  C_2 
REMARK    3  A    between atoms: O_22  and  C_8 
REMARK    4  A    between atoms: C_24  and  C_14 
REMARK    5  A    between atoms: C_27  and  O_22 
ROOT
ATOM      1  C   UNL d   1     -39.091  14.531  19.317  0.00  0.00     0.067 A 
ATOM      2  C   UNL d   1     -38.570  13.895  19.250  0.00  0.00     0.166 A 
ATOM      3  C   UNL d   1     -39.294  14.820  20.068  0.00  0.00     0.200 A 
ATOM      4  C   UNL d   1     -38.977  14.475  20.745  0.00  0.00     0.062 A 
ATOM      5  O   UNL d   1     -38.251  13.549  19.934  0.00  0.00    -0.301 OA
ATOM      6  C   UNL d   1     -38.456  13.839  20.678  0.00  0.00     0.106 A 
ATOM      7  C   UNL d   1     -39.181  14.764  21.487  0.00  0.00     0.008 A 
ATOM      8  C   UNL d   1     -38.138  13.492  21.353  0.00  0.00     0.067 A 
ATOM      9  C   UNL d   1     -38.342  13.783  22.097  0.00  0.00     0.198 A 
ATOM     10  C   UNL d   1     -38.864  14.418  22.164  0.00  0.00     0.039 A 
ATOM     11  O   UNL d   1     -39.816  15.456  20.135  0.00  0.00    -0.286 OA
ATOM     12  O   UNL d   1     -38.023  13.436  22.786  0.00  0.00    -0.286 OA
ENDROOT
BRANCH   1  13
ATOM     13  C   UNL d   1     -39.408  14.877  18.640  0.00  0.00     0.007 A 
ATOM     14  C   UNL d   1     -40.168  14.671  18.387  0.00  0.00     0.027 A 
ATOM     15  C   UNL d   1     -40.485  15.017  17.711  0.00  0.00     0.123 A 
ATOM     16  O   UNL d   1     -41.244  14.808  17.462  0.00  0.00    -0.301 OA
ATOM     17  C   UNL d   1     -40.045  15.569  17.284  0.00  0.00     0.123 A 
ATOM     18  C   UNL d   1     -41.563  15.164  16.771  0.00  0.00     0.149 A 
ATOM     19  C   UNL d   1     -41.129  15.717  16.339  0.00  0.00     0.149 A 
ATOM     20  O   UNL d   1     -40.366  15.922  16.595  0.00  0.00    -0.301 OA
ATOM     21  C   UNL d   1     -39.284  15.775  17.537  0.00  0.00     0.027 A 
ATOM     22  C   UNL d   1     -38.968  15.429  18.214  0.00  0.00     0.002 A 
ENDBRANCH   1  13
BRANCH   2  23
ATOM     23  C   UNL d   1     -38.366  13.605  18.503  0.00  0.00     0.323 C 
ATOM     24  O   UNL d   1     -37.940  14.080  17.979  0.00  0.00    -0.257 OA
BRANCH  23  25
ATOM     25  O   UNL d   1     -38.588  12.844  18.282  0.00  0.00    -0.270 OA
BRANCH  25  26
ATOM     26  C   UNL d   1     -38.089  12.393  17.807  0.00  0.00     0.126 C 
ATOM     27  C   UNL d   1     -38.277  11.607  17.645  0.00  0.00     0.029 C 
ENDBRANCH  25  26
ENDBRANCH  23  25
ENDBRANCH   2  23
BRANCH  10  28
ATOM     28  C   UNL d   1     -39.067  14.707  22.911  0.00  0.00     0.003 C 
ATOM     29  C   UNL d   1     -39.009  15.513  23.078  0.00  0.00     0.000 C 
ENDBRANCH  10  28
TORSDOF 5
ENDMDL
MODEL 3
REMARK VINA RESULT:      -4.3      1.251      4.741
REMARK  5 active torsions:
REMARK  status: ('A' for Active; 'I' for Inactive)
REMARK    1  A    between atoms: C_7  and  C_1 
REMARK    2  A    between atoms: C_8  and  C_2 
REMARK    3  A    between atoms: O_22  and  C_8 
REMARK    4  A    between atoms: C_24  and  C_14 
REMARK    5  A    between atoms: C_27  and  O_22 
ROOT
ATOM      1  C   UNL d   1     -39.310  14.717  18.165  0.00  0.00     0.067 A 
ATOM      2  C   UNL d   1     -40.122  14.816  18.271  0.00  0.00     0.166 A 
ATOM      3  C   UNL d   1     -38.824  14.562  18.819  0.00  0.00     0.200 A 
ATOM      4  C   UNL d   1     -39.150  14.508  19.573  0.00  0.00     0.062 A 
ATOM      5  O   UNL d   1     -40.448  14.761  19.032  0.00  0.00    -0.301 OA
ATOM      6  C   UNL d   1     -39.962  14.607  19.680  0.00  0.00     0.106 A 
ATOM      7  C   UNL d   1     -38.665  14.354  20.220  0.00  0.00     0.008 A 
ATOM      8  C   UNL d   1     -40.290  14.553  20.433  0.00  0.00     0.067 A 
ATOM      9  C   UNL d   1     -39.804  14.399  21.081  0.00  0.00     0.198 A 
ATOM     10  C   UNL d   1     -38.992  14.300  20.974  0.00  0.00     0.039 A 
ATOM     11  O   UNL d   1     -38.012  14.463  18.712  0.00  0.00    -0.286 OA
ATOM     12  O   UNL d   1     -40.130  14.343  21.847  0.00  0.00    -0.286 OA
ENDROOT
BRANCH   1  13
ATOM     13  C   UNL d   1     -38.984  14.771  17.410  0.00  0.00     0.007 A 
ATOM     14  C   UNL d   1     -38.941  14.101  16.928  0.00  0.00     0.027 A 
ATOM     15  C   UNL d   1     -38.615  14.156  16.174  0.00  0.00     0.123 A 
ATOM     16  O   UNL d   1     -38.575  13.484  15.697  0.00  0.00    -0.301 OA
ATOM     17  C   UNL d   1     -38.330  14.880  15.899  0.00  0.00     0.123 A 
ATOM     18  C   UNL d   1     -38.241  13.545  14.928  0.00  0.00     0.149 A 
ATOM     19  C   UNL d   1     -37.954  14.265  14.646  0.00  0.00     0.149 A 
ATOM     20  O   UNL d   1     -37.998  14.937  15.132  0.00  0.00    -0.301 OA
ATOM     21  C   UNL d   1     -38.372  15.551  16.382  0.00  0.00     0.027 A 
ATOM     22  C   UNL d   1     -38.699  15.495  17.135  0.00  0.00     0.002 A 
ENDBRANCH   1  13
BRANCH   2  23
ATOM     23  C   UNL d   1     -40.608  14.970  17.620  0.00  0.00     0.323 C 
ATOM     24  O   UNL d   1     -40.868  14.349  17.144  0.00  0.00    -0.257 OA
BRANCH  23  25
ATOM     25  O   UNL d   1     -40.832  15.744  17.447  0.00  0.00    -0.270 OA
BRANCH  25  26
ATOM     26  C   UNL d   1     -41.620  15.915  17.284  0.00  0.00     0.126 C 
ATOM     27  C   UNL d   1     -41.910  15.824  16.518  0.00  0.00     0.029 C 
ENDBRANCH  25  26
ENDBRANCH  23  25
ENDBRANCH   2  23
BRANCH  10  28
ATOM     28  C   UNL d   1     -38.506  14.146  21.626  0.00  0.00     0.003 C 
ATOM     29  C   UNL d   1     -38.149  13.407  21.716  0.00  0.00     0.000 C 
ENDBRANCH  10  28
TORSDOF 5
ENDMDL
MODEL 4
REMARK VINA RESULT:      -3.9      6.145      9.033
REMARK  5 active torsions:
REMARK  status: ('A' for Active; 'I' for Inactive)
REMARK    1  A    between atoms: C_7  and  C_1 
REMARK    2  A    between atoms: C_8  and  C_2 
REMARK    3  A    between atoms: O_22  and  C_8 
REMARK    4  A    between atoms: C_24  and  C_14 
REMARK    5  A    between atoms: C_27  and  O_22 
ROOT
ATOM      1  C   UNL d   1     -47.767  13.254  22.529  0.00  0.00     0.067 A 
ATOM      2  C   UNL d   1     -47.834  12.569  22.984  0.00  0.00     0.166 A 
ATOM      3  C   UNL d   1     -47.025  13.486  22.240  0.00  0.00     0.200 A 
ATOM      4  C   UNL d   1     -46.357  13.036  22.405  0.00  0.00     0.062 A 
ATOM      5  O   UNL d   1     -47.158  12.117  23.150  0.00  0.00    -0.301 OA
ATOM      6  C   UNL d   1     -46.423  12.351  22.861  0.00  0.00     0.106 A 
ATOM      7  C   UNL d   1     -45.623  13.269  22.117  0.00  0.00     0.008 A 
ATOM      8  C   UNL d   1     -45.755  11.899  23.027  0.00  0.00     0.067 A 
ATOM      9  C   UNL d   1     -45.020  12.133  22.738  0.00  0.00     0.198 A 
ATOM     10  C   UNL d   1     -44.954  12.818  22.283  0.00  0.00     0.039 A 
ATOM     11  O   UNL d   1     -46.959  14.171  21.785  0.00  0.00    -0.286 OA
ATOM     12  O   UNL d   1     -44.339  11.680  22.903  0.00  0.00    -0.286 OA
ENDROOT
BRANCH   1  13
ATOM     13  C   UNL d   1     -48.436  13.705  22.363  0.00  0.00     0.007 A 
ATOM     14  C   UNL d   1     -48.673  14.303  22.883  0.00  0.00     0.027 A 
ATOM     15  C   UNL d   1     -49.341  14.753  22.717  0.00  0.00     0.123 A 
ATOM     16  O   UNL d   1     -49.573  15.348  23.240  0.00  0.00    -0.301 OA
ATOM     17  C   UNL d   1     -49.777  14.608  22.031  0.00  0.00     0.123 A 
ATOM     18  C   UNL d   1     -50.257  15.806  23.066  0.00  0.00     0.149 A 
ATOM     19  C   UNL d   1     -50.697  15.667  22.382  0.00  0.00     0.149 A 
ATOM     20  O   UNL d   1     -50.458  15.066  21.861  0.00  0.00    -0.301 OA
ATOM     21  C   UNL d   1     -49.540  14.011  21.510  0.00  0.00     0.027 A 
ATOM     22  C   UNL d   1     -48.872  13.561  21.677  0.00  0.00     0.002 A 
ENDBRANCH   1  13
BRANCH   2  23
ATOM     23  C   UNL d   1     -48.573  12.336  23.273  0.00  0.00     0.323 C 
ATOM     24  O   UNL d   1     -49.037  12.870  23.697  0.00  0.00    -0.257 OA
BRANCH  23  25
ATOM     25  O   UNL d   1     -48.845  11.570  23.138  0.00  0.00    -0.270 OA
BRANCH  25  26
ATOM     26  C   UNL d   1     -49.366  11.220  23.671  0.00  0.00     0.126 C 
ATOM     27  C   UNL d   1     -49.979  10.745  23.393  0.00  0.00     0.029 C 
ENDBRANCH  25  26
ENDBRANCH  23  25
ENDBRANCH   2  23
BRANCH  10  28
ATOM     28  C   UNL d   1     -44.215  13.051  21.994  0.00  0.00     0.003 C 
ATOM     29  C   UNL d   1     -43.961  12.806  21.248  0.00  0.00     0.000 C 
ENDBRANCH  10  28
TORSDOF 5
ENDMDL
