MODEL 1
REMARK VINA RESULT:      81.9      0.000      0.000
REMARK  3 active torsions:
REMARK  status: ('A' for Active; 'I' for Inactive)
REMARK    1  A    between atoms: C_17  and  N_4 
REMARK    2  A    between atoms: C_11  and  C_5 
REMARK       I    between atoms: N_13  and  C_11 
REMARK    3  A    between atoms: C_21  and  N_13 
ROOT
ATOM      1  C   UNL d   1     -50.990  25.265  33.639  0.00  0.00     0.155 A 
ATOM      2  C   UNL d   1     -51.372  25.993  33.678  0.00  0.00     0.091 A 
ATOM      3  N   UNL d   1     -51.439  24.578  33.536  0.00  0.00    -0.210 NA
ATOM      4  N   UNL d   1     -50.185  25.228  33.703  0.00  0.00    -0.275 N 
ATOM      5  C   UNL d   1     -50.118  26.634  33.843  0.00  0.00     0.094 A 
ATOM      6  C   UNL d   1     -49.738  25.911  33.805  0.00  0.00     0.175 A 
ATOM      7  N   UNL d   1     -52.643  25.347  33.510  0.00  0.00    -0.258 N 
ATOM      8  C   UNL d   1     -52.255  24.609  33.472  0.00  0.00     0.152 A 
ATOM      9  C   UNL d   1     -52.206  26.039  33.613  0.00  0.00     0.269 A 
ATOM     10  C   UNL d   1     -50.934  26.684  33.780  0.00  0.00     0.016 A 
ATOM     11  C   UNL d   1     -52.690  23.929  33.370  0.00  0.00     0.035 A 
ATOM     12  N   UNL d   1     -48.916  25.871  33.870  0.00  0.00    -0.128 N 
ATOM     13  C   UNL d   1     -53.458  25.390  33.447  0.00  0.00     0.084 A 
ATOM     14  O   UNL d   1     -52.577  26.767  33.652  0.00  0.00    -0.266 OA
ATOM     15  C   UNL d   1     -53.895  24.698  33.344  0.00  0.00     0.019 A 
ATOM     16  C   UNL d   1     -53.507  23.960  33.306  0.00  0.00     0.005 A 
ATOM     17  C   UNL d   1     -52.307  23.200  33.332  0.00  0.00     0.003 C 
ENDROOT
BRANCH   5  18
ATOM     18  C   UNL d   1     -49.678  27.322  33.946  0.00  0.00     0.282 C 
ATOM     19  N   UNL d   1     -49.334  27.498  34.679  0.00  0.00    -0.208 NA
ATOM     20  O   UNL d   1     -49.576  27.851  33.306  0.00  0.00    -0.265 OA
BRANCH  19  21
ATOM     21  C   UNL d   1     -48.895  28.190  34.772  0.00  0.00     0.085 A 
ATOM     22  C   UNL d   1     -48.369  28.338  35.384  0.00  0.00     0.019 A 
ATOM     23  C   UNL d   1     -48.057  29.097  35.255  0.00  0.00     0.002 A 
ATOM     24  C   UNL d   1     -48.395  29.403  34.566  0.00  0.00     0.002 A 
ATOM     25  C   UNL d   1     -48.909  28.847  34.269  0.00  0.00     0.019 A 
ENDBRANCH  19  21
ENDBRANCH   5  18
BRANCH   4  26
ATOM     26  C   UNL d   1     -49.802  24.498  33.664  0.00  0.00     0.067 A 
ATOM     27  C   UNL d   1     -49.071  24.360  33.306  0.00  0.00     0.018 A 
ATOM     28  C   UNL d   1     -48.900  23.562  33.396  0.00  0.00     0.002 A 
ATOM     29  C   UNL d   1     -49.523  23.195  33.812  0.00  0.00     0.002 A 
ATOM     30  C   UNL d   1     -50.078  23.783  33.974  0.00  0.00     0.018 A 
ENDBRANCH   4  26
TORSDOF 3
ENDMDL
