MODEL 1
REMARK VINA RESULT:      -6.8      0.000      0.000
REMARK  4 active torsions:
REMARK  status: ('A' for Active; 'I' for Inactive)
REMARK    1  A    between atoms: C_2  and  S_1 
REMARK    2  A    between atoms: C_5  and  S_1 
REMARK    3  A    between atoms: C_7  and  C_5 
REMARK       I    between atoms: N_11  and  C_7 
REMARK    4  A    between atoms: C_14  and  N_11 
ROOT
ATOM      1  S   UNL d   1     -41.646-122.682 -51.061  0.00  0.00     0.217 S 
ATOM      2  O   UNL d   1     -41.765-123.490 -51.215  0.00  0.00    -0.217 OA
ATOM      3  O   UNL d   1     -41.527-121.872 -50.907  0.00  0.00    -0.217 OA
ENDROOT
BRANCH   1   4
ATOM      4  C   UNL d   1     -42.160-122.726 -50.416  0.00  0.00     0.109 A 
ATOM      5  C   UNL d   1     -42.962-122.538 -50.421  0.00  0.00     0.110 A 
ATOM      6  N   UNL d   1     -43.259-122.660 -49.665  0.00  0.00    -0.243 NA
ATOM      7  C   UNL d   1     -42.637-122.926 -49.189  0.00  0.00     0.082 A 
ATOM      8  C   UNL d   1     -41.963-122.964 -49.657  0.00  0.00     0.030 A 
ATOM      9  C   UNL d   1     -42.604-123.136 -48.391  0.00  0.00     0.019 A 
ATOM     10  C   UNL d   1     -41.247-123.214 -49.330  0.00  0.00     0.002 A 
ATOM     11  C   UNL d   1     -41.213-123.424 -48.534  0.00  0.00     0.000 A 
ATOM     12  C   UNL d   1     -41.888-123.385 -48.069  0.00  0.00     0.002 A 
ENDBRANCH   1   4
BRANCH   1  13
ATOM     13  C   UNL d   1     -41.123-122.631 -51.715  0.00  0.00     0.161 C 
BRANCH  13  14
ATOM     14  C   UNL d   1     -41.428-122.689 -52.483  0.00  0.00     0.291 C 
ATOM     15  N   UNL d   1     -41.244-122.101 -53.033  0.00  0.00    -0.207 NA
ATOM     16  O   UNL d   1     -41.905-123.318 -52.698  0.00  0.00    -0.264 OA
BRANCH  15  17
ATOM     17  C   UNL d   1     -41.547-122.155 -53.801  0.00  0.00     0.085 A 
ATOM     18  C   UNL d   1     -41.220-122.681 -54.346  0.00  0.00     0.019 A 
ATOM     19  C   UNL d   1     -41.526-122.732 -55.113  0.00  0.00     0.002 A 
ATOM     20  C   UNL d   1     -42.165-122.253 -55.341  0.00  0.00     0.000 A 
ATOM     21  C   UNL d   1     -42.489-121.727 -54.792  0.00  0.00     0.002 A 
ATOM     22  C   UNL d   1     -42.180-121.680 -54.027  0.00  0.00     0.019 A 
ENDBRANCH  15  17
ENDBRANCH  13  14
ENDBRANCH   1  13
TORSDOF 4
ENDMDL
MODEL 2
REMARK VINA RESULT:      -5.5      0.888      4.771
REMARK  4 active torsions:
REMARK  status: ('A' for Active; 'I' for Inactive)
REMARK    1  A    between atoms: C_2  and  S_1 
REMARK    2  A    between atoms: C_5  and  S_1 
REMARK    3  A    between atoms: C_7  and  C_5 
REMARK       I    between atoms: N_11  and  C_7 
REMARK    4  A    between atoms: C_14  and  N_11 
ROOT
ATOM      1  S   UNL d   1     -41.687-122.333 -52.618  0.00  0.00     0.217 S 
ATOM      2  O   UNL d   1     -42.250-122.927 -52.472  0.00  0.00    -0.217 OA
ATOM      3  O   UNL d   1     -41.123-121.738 -52.765  0.00  0.00    -0.217 OA
ENDROOT
BRANCH   1   4
ATOM      4  C   UNL d   1     -41.554-122.641 -53.373  0.00  0.00     0.109 A 
ATOM      5  C   UNL d   1     -41.122-123.321 -53.551  0.00  0.00     0.110 A 
ATOM      6  N   UNL d   1     -41.129-123.424 -54.365  0.00  0.00    -0.243 NA
ATOM      7  C   UNL d   1     -41.567-122.804 -54.695  0.00  0.00     0.082 A 
ATOM      8  C   UNL d   1     -41.825-122.326 -54.079  0.00  0.00     0.030 A 
ATOM      9  C   UNL d   1     -41.760-122.620 -55.476  0.00  0.00     0.019 A 
ATOM     10  C   UNL d   1     -42.281-121.655 -54.239  0.00  0.00     0.002 A 
ATOM     11  C   UNL d   1     -42.474-121.470 -55.019  0.00  0.00     0.000 A 
ATOM     12  C   UNL d   1     -42.214-121.950 -55.631  0.00  0.00     0.002 A 
ENDBRANCH   1   4
BRANCH   1  13
ATOM     13  C   UNL d   1     -41.818-122.015 -51.853  0.00  0.00     0.161 C 
BRANCH  13  14
ATOM     14  C   UNL d   1     -41.710-122.499 -51.190  0.00  0.00     0.291 C 
ATOM     15  N   UNL d   1     -42.067-122.287 -50.477  0.00  0.00    -0.207 NA
ATOM     16  O   UNL d   1     -41.257-123.179 -51.236  0.00  0.00    -0.264 OA
BRANCH  15  17
ATOM     17  C   UNL d   1     -41.962-122.767 -49.811  0.00  0.00     0.085 A 
ATOM     18  C   UNL d   1     -41.229-122.814 -49.437  0.00  0.00     0.019 A 
ATOM     19  C   UNL d   1     -41.128-123.296 -48.772  0.00  0.00     0.002 A 
ATOM     20  C   UNL d   1     -41.766-123.737 -48.475  0.00  0.00     0.000 A 
ATOM     21  C   UNL d   1     -42.500-123.687 -48.853  0.00  0.00     0.002 A 
ATOM     22  C   UNL d   1     -42.595-123.205 -49.517  0.00  0.00     0.019 A 
ENDBRANCH  15  17
ENDBRANCH  13  14
ENDBRANCH   1  13
TORSDOF 4
ENDMDL
