MODEL 1
REMARK VINA RESULT:      -2.9      0.000      0.000
REMARK  3 active torsions:
REMARK  status: ('A' for Active; 'I' for Inactive)
REMARK    1  A    between atoms: S_15  and  C_3 
REMARK    2  A    between atoms: C_5  and  C_14 
REMARK    3  A    between atoms: C_14  and  S_15 
ROOT
ATOM      1  N   UNL d   1      31.629  16.981 -23.885  0.00  0.00    -0.263 N 
ATOM      2  C   UNL d   1      31.747  16.199 -23.613  0.00  0.00     0.202 A 
ATOM      3  C   UNL d   1      32.305  17.405 -23.671  0.00  0.00     0.202 A 
ATOM      4  N   UNL d   1      32.499  16.193 -23.245  0.00  0.00    -0.121 NA
ATOM      5  S   UNL d   1      31.080  15.733 -23.812  0.00  0.00    -0.047 SA
ATOM      6  N   UNL d   1      32.834  16.893 -23.273  0.00  0.00    -0.121 NA
ATOM      7  C   UNL d   1      30.893  16.988 -24.246  0.00  0.00     0.074 A 
ATOM      8  C   UNL d   1      30.558  16.228 -24.202  0.00  0.00     0.049 A 
ATOM      9  C   UNL d   1      30.473  17.595 -24.617  0.00  0.00     0.018 A 
ATOM     10  C   UNL d   1      29.812  16.093 -24.529  0.00  0.00     0.008 A 
ATOM     11  C   UNL d   1      29.722  17.463 -24.948  0.00  0.00     0.002 A 
ATOM     12  C   UNL d   1      29.387  16.702 -24.903  0.00  0.00     0.001 A 
ENDROOT
BRANCH   3  13
ATOM     13  S   UNL d   1      32.459  18.262 -23.831  0.00  0.00    -0.048 SA
BRANCH  13  14
ATOM     14  C   UNL d   1      33.069  18.645 -23.446  0.00  0.00     0.042 C 
BRANCH  14  15
ATOM     15  C   UNL d   1      33.132  19.454 -23.520  0.00  0.00     0.051 A 
ATOM     16  C   UNL d   1      33.191  19.962 -24.167  0.00  0.00     0.127 A 
ATOM     17  O   UNL d   1      33.241  20.726 -23.904  0.00  0.00    -0.211 OA
ATOM     18  C   UNL d   1      33.199  19.711 -25.006  0.00  0.00     0.029 C 
ATOM     19  N   UNL d   1      33.215  20.714 -23.121  0.00  0.00    -0.126 NA
ATOM     20  C   UNL d   1      33.147  19.933 -22.855  0.00  0.00     0.111 A 
ATOM     21  C   UNL d   1      33.102  19.670 -22.076  0.00  0.00     0.023 C 
ENDBRANCH  14  15
ENDBRANCH  13  14
ENDBRANCH   3  13
TORSDOF 3
ENDMDL
MODEL 2
REMARK VINA RESULT:      -2.1      1.636      4.348
REMARK  3 active torsions:
REMARK  status: ('A' for Active; 'I' for Inactive)
REMARK    1  A    between atoms: S_15  and  C_3 
REMARK    2  A    between atoms: C_5  and  C_14 
REMARK    3  A    between atoms: C_14  and  S_15 
ROOT
ATOM      1  N   UNL d   1      32.909  19.822 -23.458  0.00  0.00    -0.263 N 
ATOM      2  C   UNL d   1      33.121  20.447 -23.972  0.00  0.00     0.202 A 
ATOM      3  C   UNL d   1      32.800  19.157 -23.934  0.00  0.00     0.202 A 
ATOM      4  N   UNL d   1      33.130  20.120 -24.742  0.00  0.00    -0.121 NA
ATOM      5  S   UNL d   1      33.241  21.145 -23.525  0.00  0.00    -0.047 SA
ATOM      6  N   UNL d   1      32.944  19.366 -24.732  0.00  0.00    -0.121 NA
ATOM      7  C   UNL d   1      32.900  20.142 -22.702  0.00  0.00     0.074 A 
ATOM      8  C   UNL d   1      33.102  20.948 -22.743  0.00  0.00     0.049 A 
ATOM      9  C   UNL d   1      32.732  19.802 -21.968  0.00  0.00     0.018 A 
ATOM     10  C   UNL d   1      33.132  21.394 -22.049  0.00  0.00     0.008 A 
ATOM     11  C   UNL d   1      32.761  20.249 -21.268  0.00  0.00     0.002 A 
ATOM     12  C   UNL d   1      32.963  21.055 -21.309  0.00  0.00     0.001 A 
ENDROOT
BRANCH   3  13
ATOM     13  S   UNL d   1      32.570  18.347 -23.660  0.00  0.00    -0.048 SA
BRANCH  13  14
ATOM     14  C   UNL d   1      32.253  17.812 -24.190  0.00  0.00     0.042 C 
BRANCH  14  15
ATOM     15  C   UNL d   1      32.007  17.087 -23.914  0.00  0.00     0.051 A 
ATOM     16  C   UNL d   1      32.390  16.462 -23.535  0.00  0.00     0.127 A 
ATOM     17  O   UNL d   1      31.858  15.870 -23.388  0.00  0.00    -0.211 OA
ATOM     18  C   UNL d   1      33.240  16.446 -23.325  0.00  0.00     0.029 C 
ATOM     19  N   UNL d   1      31.160  16.100 -23.660  0.00  0.00    -0.126 NA
ATOM     20  C   UNL d   1      31.224  16.855 -23.993  0.00  0.00     0.111 A 
ATOM     21  C   UNL d   1      30.627  17.303 -24.341  0.00  0.00     0.023 C 
ENDBRANCH  14  15
ENDBRANCH  13  14
ENDBRANCH   3  13
TORSDOF 3
ENDMDL
MODEL 3
REMARK VINA RESULT:      -1.7      2.410      4.919
REMARK  3 active torsions:
REMARK  status: ('A' for Active; 'I' for Inactive)
REMARK    1  A    between atoms: S_15  and  C_3 
REMARK    2  A    between atoms: C_5  and  C_14 
REMARK    3  A    between atoms: C_14  and  S_15 
ROOT
ATOM      1  N   UNL d   1      32.988  21.282 -21.597  0.00  0.00    -0.263 N 
ATOM      2  C   UNL d   1      33.088  21.286 -20.767  0.00  0.00     0.202 A 
ATOM      3  C   UNL d   1      33.077  20.496 -21.838  0.00  0.00     0.202 A 
ATOM      4  N   UNL d   1      33.233  20.491 -20.547  0.00  0.00    -0.121 NA
ATOM      5  S   UNL d   1      33.005  22.069 -20.482  0.00  0.00    -0.047 SA
ATOM      6  N   UNL d   1      33.229  20.021 -21.165  0.00  0.00    -0.121 NA
ATOM      7  C   UNL d   1      32.846  22.060 -21.814  0.00  0.00     0.074 A 
ATOM      8  C   UNL d   1      32.856  22.540 -21.135  0.00  0.00     0.049 A 
ATOM      9  C   UNL d   1      32.706  22.404 -22.552  0.00  0.00     0.018 A 
ATOM     10  C   UNL d   1      32.725  23.352 -21.209  0.00  0.00     0.008 A 
ATOM     11  C   UNL d   1      32.574  23.221 -22.630  0.00  0.00     0.002 A 
ATOM     12  C   UNL d   1      32.584  23.701 -21.951  0.00  0.00     0.001 A 
ENDROOT
BRANCH   3  13
ATOM     13  S   UNL d   1      33.023  20.192 -22.667  0.00  0.00    -0.048 SA
BRANCH  13  14
ATOM     14  C   UNL d   1      33.216  19.416 -22.830  0.00  0.00     0.042 C 
BRANCH  14  15
ATOM     15  C   UNL d   1      32.947  19.082 -23.523  0.00  0.00     0.051 A 
ATOM     16  C   UNL d   1      32.929  19.337 -24.307  0.00  0.00     0.127 A 
ATOM     17  O   UNL d   1      32.592  18.763 -24.768  0.00  0.00    -0.211 OA
ATOM     18  C   UNL d   1      33.230  20.108 -24.592  0.00  0.00     0.029 C 
ATOM     19  N   UNL d   1      32.399  18.163 -24.303  0.00  0.00    -0.126 NA
ATOM     20  C   UNL d   1      32.610  18.335 -23.521  0.00  0.00     0.111 A 
ATOM     21  C   UNL d   1      32.507  17.859 -22.857  0.00  0.00     0.023 C 
ENDBRANCH  14  15
ENDBRANCH  13  14
ENDBRANCH   3  13
TORSDOF 3
ENDMDL
MODEL 4
REMARK VINA RESULT:      -1.1      2.046      3.178
REMARK  3 active torsions:
REMARK  status: ('A' for Active; 'I' for Inactive)
REMARK    1  A    between atoms: S_15  and  C_3 
REMARK    2  A    between atoms: C_5  and  C_14 
REMARK    3  A    between atoms: C_14  and  S_15 
ROOT
ATOM      1  N   UNL d   1      29.284  16.970 -24.201  0.00  0.00    -0.263 N 
ATOM      2  C   UNL d   1      28.728  17.505 -24.524  0.00  0.00     0.202 A 
ATOM      3  C   UNL d   1      30.012  17.158 -24.543  0.00  0.00     0.202 A 
ATOM      4  N   UNL d   1      29.156  17.994 -25.051  0.00  0.00    -0.121 NA
ATOM      5  S   UNL d   1      27.972  17.347 -24.201  0.00  0.00    -0.047 SA
ATOM      6  N   UNL d   1      29.908  17.800 -25.070  0.00  0.00    -0.121 NA
ATOM      7  C   UNL d   1      28.865  16.490 -23.684  0.00  0.00     0.074 A 
ATOM      8  C   UNL d   1      28.066  16.719 -23.684  0.00  0.00     0.049 A 
ATOM      9  C   UNL d   1      29.108  15.863 -23.204  0.00  0.00     0.018 A 
ATOM     10  C   UNL d   1      27.528  16.317 -23.204  0.00  0.00     0.008 A 
ATOM     11  C   UNL d   1      28.569  15.455 -22.720  0.00  0.00     0.002 A 
ATOM     12  C   UNL d   1      27.769  15.685 -22.719  0.00  0.00     0.001 A 
ENDROOT
BRANCH   3  13
ATOM     13  S   UNL d   1      30.785  16.754 -24.387  0.00  0.00    -0.048 SA
BRANCH  13  14
ATOM     14  C   UNL d   1      31.484  17.166 -24.474  0.00  0.00     0.042 C 
BRANCH  14  15
ATOM     15  C   UNL d   1      32.168  16.845 -24.169  0.00  0.00     0.051 A 
ATOM     16  C   UNL d   1      32.590  16.154 -24.326  0.00  0.00     0.127 A 
ATOM     17  O   UNL d   1      33.241  16.123 -23.845  0.00  0.00    -0.211 OA
ATOM     18  C   UNL d   1      32.366  15.551 -24.920  0.00  0.00     0.029 C 
ATOM     19  N   UNL d   1      33.241  16.765 -23.397  0.00  0.00    -0.126 NA
ATOM     20  C   UNL d   1      32.583  17.233 -23.578  0.00  0.00     0.111 A 
ATOM     21  C   UNL d   1      32.370  17.953 -23.240  0.00  0.00     0.023 C 
ENDBRANCH  14  15
ENDBRANCH  13  14
ENDBRANCH   3  13
TORSDOF 3
ENDMDL
MODEL 5
REMARK VINA RESULT:      -1.0      2.774      3.836
REMARK  3 active torsions:
REMARK  status: ('A' for Active; 'I' for Inactive)
REMARK    1  A    between atoms: S_15  and  C_3 
REMARK    2  A    between atoms: C_5  and  C_14 
REMARK    3  A    between atoms: C_14  and  S_15 
ROOT
ATOM      1  N   UNL d   1      33.236  19.793 -22.477  0.00  0.00    -0.263 N 
ATOM      2  C   UNL d   1      33.236  19.011 -22.179  0.00  0.00     0.202 A 
ATOM      3  C   UNL d   1      33.237  20.292 -21.819  0.00  0.00     0.202 A 
ATOM      4  N   UNL d   1      33.236  19.082 -21.345  0.00  0.00    -0.121 NA
ATOM      5  S   UNL d   1      33.235  18.472 -22.819  0.00  0.00    -0.047 SA
ATOM      6  N   UNL d   1      33.236  19.826 -21.123  0.00  0.00    -0.121 NA
ATOM      7  C   UNL d   1      33.236  19.726 -23.295  0.00  0.00     0.074 A 
ATOM      8  C   UNL d   1      33.236  18.920 -23.503  0.00  0.00     0.049 A 
ATOM      9  C   UNL d   1      33.237  20.299 -23.889  0.00  0.00     0.018 A 
ATOM     10  C   UNL d   1      33.236  18.708 -24.301  0.00  0.00     0.008 A 
ATOM     11  C   UNL d   1      33.237  20.088 -24.694  0.00  0.00     0.002 A 
ATOM     12  C   UNL d   1      33.236  19.283 -24.902  0.00  0.00     0.001 A 
ENDROOT
BRANCH   3  13
ATOM     13  S   UNL d   1      33.238  21.177 -21.831  0.00  0.00    -0.048 SA
BRANCH  13  14
ATOM     14  C   UNL d   1      32.802  21.593 -21.280  0.00  0.00     0.042 C 
BRANCH  14  15
ATOM     15  C   UNL d   1      32.958  22.386 -21.174  0.00  0.00     0.051 A 
ATOM     16  C   UNL d   1      33.068  23.018 -21.692  0.00  0.00     0.127 A 
ATOM     17  O   UNL d   1      33.209  23.692 -21.267  0.00  0.00    -0.211 OA
ATOM     18  C   UNL d   1      33.037  22.964 -22.565  0.00  0.00     0.029 C 
ATOM     19  N   UNL d   1      33.192  23.505 -20.506  0.00  0.00    -0.126 NA
ATOM     20  C   UNL d   1      33.037  22.697 -20.419  0.00  0.00     0.111 A 
ATOM     21  C   UNL d   1      32.971  22.270 -19.718  0.00  0.00     0.023 C 
ENDBRANCH  14  15
ENDBRANCH  13  14
ENDBRANCH   3  13
TORSDOF 3
ENDMDL
MODEL 6
REMARK VINA RESULT:      -0.7      2.764      4.019
REMARK  3 active torsions:
REMARK  status: ('A' for Active; 'I' for Inactive)
REMARK    1  A    between atoms: S_15  and  C_3 
REMARK    2  A    between atoms: C_5  and  C_14 
REMARK    3  A    between atoms: C_14  and  S_15 
ROOT
ATOM      1  N   UNL d   1      33.221  20.170 -23.390  0.00  0.00    -0.263 N 
ATOM      2  C   UNL d   1      33.229  20.245 -24.223  0.00  0.00     0.202 A 
ATOM      3  C   UNL d   1      33.229  20.939 -23.088  0.00  0.00     0.202 A 
ATOM      4  N   UNL d   1      33.241  21.067 -24.381  0.00  0.00    -0.121 NA
ATOM      5  S   UNL d   1      33.222  19.483 -24.570  0.00  0.00    -0.047 SA
ATOM      6  N   UNL d   1      33.241  21.482 -23.724  0.00  0.00    -0.121 NA
ATOM      7  C   UNL d   1      33.210  19.365 -23.233  0.00  0.00     0.074 A 
ATOM      8  C   UNL d   1      33.210  18.946 -23.952  0.00  0.00     0.049 A 
ATOM      9  C   UNL d   1      33.199  18.948 -22.521  0.00  0.00     0.018 A 
ATOM     10  C   UNL d   1      33.200  18.120 -23.941  0.00  0.00     0.008 A 
ATOM     11  C   UNL d   1      33.188  18.116 -22.506  0.00  0.00     0.002 A 
ATOM     12  C   UNL d   1      33.189  17.697 -23.225  0.00  0.00     0.001 A 
ENDROOT
BRANCH   3  13
ATOM     13  S   UNL d   1      33.225  21.166 -22.232  0.00  0.00    -0.048 SA
BRANCH  13  14
ATOM     14  C   UNL d   1      32.756  21.784 -21.977  0.00  0.00     0.042 C 
BRANCH  14  15
ATOM     15  C   UNL d   1      32.925  22.135 -21.261  0.00  0.00     0.051 A 
ATOM     16  C   UNL d   1      33.114  21.840 -20.514  0.00  0.00     0.127 A 
ATOM     17  O   UNL d   1      33.228  22.458 -20.004  0.00  0.00    -0.211 OA
ATOM     18  C   UNL d   1      33.181  20.991 -20.310  0.00  0.00     0.029 C 
ATOM     19  N   UNL d   1      33.117  23.123 -20.402  0.00  0.00    -0.126 NA
ATOM     20  C   UNL d   1      32.927  22.951 -21.188  0.00  0.00     0.111 A 
ATOM     21  C   UNL d   1      32.767  23.485 -21.795  0.00  0.00     0.023 C 
ENDBRANCH  14  15
ENDBRANCH  13  14
ENDBRANCH   3  13
TORSDOF 3
ENDMDL
MODEL 7
REMARK VINA RESULT:      -0.1      1.858      4.115
REMARK  3 active torsions:
REMARK  status: ('A' for Active; 'I' for Inactive)
REMARK    1  A    between atoms: S_15  and  C_3 
REMARK    2  A    between atoms: C_5  and  C_14 
REMARK    3  A    between atoms: C_14  and  S_15 
ROOT
ATOM      1  N   UNL d   1      32.226  18.348 -23.940  0.00  0.00    -0.263 N 
ATOM      2  C   UNL d   1      32.780  18.453 -24.558  0.00  0.00     0.202 A 
ATOM      3  C   UNL d   1      31.797  17.668 -24.126  0.00  0.00     0.202 A 
ATOM      4  N   UNL d   1      32.653  17.821 -25.092  0.00  0.00    -0.121 NA
ATOM      5  S   UNL d   1      33.238  19.137 -24.406  0.00  0.00    -0.047 SA
ATOM      6  N   UNL d   1      32.080  17.356 -24.849  0.00  0.00    -0.121 NA
ATOM      7  C   UNL d   1      32.350  18.967 -23.415  0.00  0.00     0.074 A 
ATOM      8  C   UNL d   1      32.967  19.448 -23.699  0.00  0.00     0.049 A 
ATOM      9  C   UNL d   1      31.978  19.162 -22.704  0.00  0.00     0.018 A 
ATOM     10  C   UNL d   1      33.196  20.112 -23.266  0.00  0.00     0.008 A 
ATOM     11  C   UNL d   1      32.207  19.830 -22.265  0.00  0.00     0.002 A 
ATOM     12  C   UNL d   1      32.823  20.311 -22.549  0.00  0.00     0.001 A 
ENDROOT
BRANCH   3  13
ATOM     13  S   UNL d   1      31.140  17.314 -23.648  0.00  0.00    -0.048 SA
BRANCH  13  14
ATOM     14  C   UNL d   1      30.712  16.686 -23.946  0.00  0.00     0.042 C 
BRANCH  14  15
ATOM     15  C   UNL d   1      29.980  16.525 -23.627  0.00  0.00     0.051 A 
ATOM     16  C   UNL d   1      29.223  16.825 -23.761  0.00  0.00     0.127 A 
ATOM     17  O   UNL d   1      28.696  16.450 -23.274  0.00  0.00    -0.211 OA
ATOM     18  C   UNL d   1      29.025  17.451 -24.339  0.00  0.00     0.029 C 
ATOM     19  N   UNL d   1      29.094  15.930 -22.844  0.00  0.00    -0.126 NA
ATOM     20  C   UNL d   1      29.896  15.956 -23.043  0.00  0.00     0.111 A 
ATOM     21  C   UNL d   1      30.508  15.503 -22.727  0.00  0.00     0.023 C 
ENDBRANCH  14  15
ENDBRANCH  13  14
ENDBRANCH   3  13
TORSDOF 3
ENDMDL
