MODEL 1
REMARK VINA RESULT:       0.3      0.000      0.000
REMARK  4 active torsions:
REMARK  status: ('A' for Active; 'I' for Inactive)
REMARK    1  A    between atoms: C_9  and  C_3 
REMARK    2  A    between atoms: N_10  and  C_9 
REMARK    3  A    between atoms: C_19  and  C_9 
REMARK    4  A    between atoms: C_12  and  N_11 
ROOT
ATOM      1  C   UNL d   1      59.083  -0.854  29.760  0.00  0.00     0.075 C 
ENDROOT
BRANCH   1   2
ATOM      2  C   UNL d   1      59.034  -1.638  29.501  0.00  0.00     0.106 A 
ATOM      3  C   UNL d   1      59.517  -2.268  29.756  0.00  0.00     0.289 A 
ATOM      4  N   UNL d   1      59.278  -2.950  29.357  0.00  0.00    -0.169 N 
ATOM      5  O   UNL d   1      60.128  -2.216  30.312  0.00  0.00    -0.265 OA
ATOM      6  C   UNL d   1      58.652  -2.747  28.857  0.00  0.00     0.200 A 
ATOM      7  N   UNL d   1      59.423  -3.754  29.264  0.00  0.00    -0.141 NA
ATOM      8  S   UNL d   1      58.501  -1.941  28.945  0.00  0.00    -0.042 SA
ATOM      9  N   UNL d   1      58.413  -3.427  28.458  0.00  0.00    -0.200 NA
ATOM     10  C   UNL d   1      58.890  -4.053  28.709  0.00  0.00     0.184 A 
ATOM     11  C   UNL d   1      58.847  -4.839  28.455  0.00  0.00     0.044 C 
ENDBRANCH   1   2
BRANCH   1  12
ATOM     12  N   UNL d   1      58.587  -0.597  30.367  0.00  0.00    -0.301 N 
ATOM     13  C   UNL d   1      57.777  -0.532  30.246  0.00  0.00     0.100 A 
ATOM     14  C   UNL d   1      57.284  -0.274  30.859  0.00  0.00     0.100 A 
ATOM     15  N   UNL d   1      57.596  -0.078  31.601  0.00  0.00    -0.299 N 
ATOM     16  C   UNL d   1      58.410  -0.146  31.712  0.00  0.00     0.100 A 
ATOM     17  C   UNL d   1      58.909  -0.403  31.103  0.00  0.00     0.100 A 
BRANCH  15  18
ATOM     18  C   UNL d   1      57.104   0.175  32.197  0.00  0.00     0.092 A 
ATOM     19  C   UNL d   1      57.399   0.412  32.921  0.00  0.00     0.156 A 
ATOM     20  F   UNL d   1      58.226   0.393  33.048  0.00  0.00    -0.203 F 
ATOM     21  C   UNL d   1      56.894   0.666  33.518  0.00  0.00     0.031 A 
ATOM     22  C   UNL d   1      56.082   0.682  33.385  0.00  0.00     0.002 A 
ATOM     23  C   UNL d   1      55.786   0.445  32.661  0.00  0.00     0.002 A 
ATOM     24  C   UNL d   1      56.287   0.193  32.067  0.00  0.00     0.020 A 
ENDBRANCH  15  18
ENDBRANCH   1  12
BRANCH   1  25
ATOM     25  C   UNL d   1      59.620  -0.338  29.413  0.00  0.00     0.017 A 
ATOM     26  C   UNL d   1      59.388   0.135  28.791  0.00  0.00     0.002 A 
ATOM     27  C   UNL d   1      59.923   0.638  28.456  0.00  0.00     0.000 A 
ATOM     28  C   UNL d   1      60.712   0.681  28.739  0.00  0.00     0.000 A 
ATOM     29  C   UNL d   1      60.934   0.210  29.354  0.00  0.00     0.000 A 
ATOM     30  C   UNL d   1      60.395  -0.310  29.706  0.00  0.00     0.002 A 
ENDBRANCH   1  25
TORSDOF 4
ENDMDL
