MODEL 1
REMARK VINA RESULT:      -9.1      0.000      0.000
REMARK  2 active torsions:
REMARK  status: ('A' for Active; 'I' for Inactive)
REMARK       I    between atoms: C_2  and  N_1 
REMARK       I    between atoms: C_3  and  N_1 
REMARK       I    between atoms: N_4  and  C_2 
REMARK    1  A    between atoms: C_9  and  C_3 
REMARK    2  A    between atoms: C_5  and  N_4 
ROOT
ATOM      1  N   UNL d   1      52.269  32.594  52.960  0.00  0.00    -0.140 NA
ATOM      2  C   UNL d   1      52.930  32.239  53.293  0.00  0.00     0.424 C 
ATOM      3  C   UNL d   1      52.095  33.384  53.105  0.00  0.00     0.284 C 
ATOM      4  N   UNL d   1      53.443  32.647  53.779  0.00  0.00    -0.329 NA
ATOM      5  O   UNL d   1      53.270  31.481  53.272  0.00  0.00    -0.228 OA
ATOM      6  O   UNL d   1      52.594  33.828  53.594  0.00  0.00    -0.265 OA
ENDROOT
BRANCH   3   7
ATOM      7  C   UNL d   1      51.432  33.735  52.770  0.00  0.00     0.058 A 
ATOM      8  C   UNL d   1      51.469  34.025  52.005  0.00  0.00     0.005 A 
ATOM      9  C   UNL d   1      50.808  34.379  51.662  0.00  0.00     0.000 A 
ATOM     10  C   UNL d   1      50.102  34.442  52.095  0.00  0.00     0.000 A 
ATOM     11  C   UNL d   1      50.064  34.152  52.860  0.00  0.00     0.000 A 
ATOM     12  C   UNL d   1      50.734  33.795  53.204  0.00  0.00     0.005 A 
ENDBRANCH   3   7
BRANCH   4  13
ATOM     13  C   UNL d   1      54.021  32.951  54.274  0.00  0.00     0.219 A 
ATOM     14  N   UNL d   1      53.906  32.952  55.087  0.00  0.00    -0.214 NA
ATOM     15  C   UNL d   1      54.495  33.262  55.585  0.00  0.00     0.102 A 
ATOM     16  C   UNL d   1      55.190  33.565  55.256  0.00  0.00     0.021 A 
ATOM     17  C   UNL d   1      55.304  33.564  54.444  0.00  0.00     0.006 A 
ATOM     18  C   UNL d   1      54.719  33.256  53.947  0.00  0.00     0.052 A 
ENDBRANCH   4  13
TORSDOF 2
ENDMDL
MODEL 2
REMARK VINA RESULT:      -9.1      1.925      3.248
REMARK  2 active torsions:
REMARK  status: ('A' for Active; 'I' for Inactive)
REMARK       I    between atoms: C_2  and  N_1 
REMARK       I    between atoms: C_3  and  N_1 
REMARK       I    between atoms: N_4  and  C_2 
REMARK    1  A    between atoms: C_9  and  C_3 
REMARK    2  A    between atoms: C_5  and  N_4 
ROOT
ATOM      1  N   UNL d   1      54.328  32.003  53.567  0.00  0.00    -0.140 NA
ATOM      2  C   UNL d   1      54.566  32.782  53.667  0.00  0.00     0.424 C 
ATOM      3  C   UNL d   1      53.543  31.784  53.673  0.00  0.00     0.284 C 
ATOM      4  N   UNL d   1      54.043  33.372  53.876  0.00  0.00    -0.329 NA
ATOM      5  O   UNL d   1      55.286  33.195  53.609  0.00  0.00    -0.228 OA
ATOM      6  O   UNL d   1      52.985  32.357  53.885  0.00  0.00    -0.265 OA
ENDROOT
BRANCH   3   7
ATOM      7  C   UNL d   1      53.309  31.002  53.572  0.00  0.00     0.058 A 
ATOM      8  C   UNL d   1      52.837  30.801  52.933  0.00  0.00     0.005 A 
ATOM      9  C   UNL d   1      52.597  30.019  52.824  0.00  0.00     0.000 A 
ATOM     10  C   UNL d   1      52.836  29.435  53.365  0.00  0.00     0.000 A 
ATOM     11  C   UNL d   1      53.308  29.636  54.003  0.00  0.00     0.000 A 
ATOM     12  C   UNL d   1      53.548  30.427  54.110  0.00  0.00     0.005 A 
ENDBRANCH   3   7
BRANCH   4  13
ATOM     13  C   UNL d   1      53.615  34.040  54.081  0.00  0.00     0.219 A 
ATOM     14  N   UNL d   1      53.617  34.307  54.857  0.00  0.00    -0.214 NA
ATOM     15  C   UNL d   1      53.180  34.985  55.059  0.00  0.00     0.102 A 
ATOM     16  C   UNL d   1      52.750  35.382  54.477  0.00  0.00     0.021 A 
ATOM     17  C   UNL d   1      52.748  35.115  53.702  0.00  0.00     0.006 A 
ATOM     18  C   UNL d   1      53.181  34.441  53.498  0.00  0.00     0.052 A 
ENDBRANCH   4  13
TORSDOF 2
ENDMDL
MODEL 3
REMARK VINA RESULT:      -8.8      0.611      3.944
REMARK  2 active torsions:
REMARK  status: ('A' for Active; 'I' for Inactive)
REMARK       I    between atoms: C_2  and  N_1 
REMARK       I    between atoms: C_3  and  N_1 
REMARK       I    between atoms: N_4  and  C_2 
REMARK    1  A    between atoms: C_9  and  C_3 
REMARK    2  A    between atoms: C_5  and  N_4 
ROOT
ATOM      1  N   UNL d   1      53.423  32.584  53.485  0.00  0.00    -0.140 NA
ATOM      2  C   UNL d   1      52.781  32.448  52.992  0.00  0.00     0.424 C 
ATOM      3  C   UNL d   1      53.479  33.276  53.925  0.00  0.00     0.284 C 
ATOM      4  N   UNL d   1      52.172  32.985  52.915  0.00  0.00    -0.329 NA
ATOM      5  O   UNL d   1      52.544  31.836  52.482  0.00  0.00    -0.228 OA
ATOM      6  O   UNL d   1      52.879  33.843  53.871  0.00  0.00    -0.265 OA
ENDROOT
BRANCH   3   7
ATOM      7  C   UNL d   1      54.124  33.409  54.417  0.00  0.00     0.058 A 
ATOM      8  C   UNL d   1      54.044  33.311  55.226  0.00  0.00     0.005 A 
ATOM      9  C   UNL d   1      54.687  33.442  55.726  0.00  0.00     0.000 A 
ATOM     10  C   UNL d   1      55.418  33.675  55.407  0.00  0.00     0.000 A 
ATOM     11  C   UNL d   1      55.498  33.773  54.598  0.00  0.00     0.000 A 
ATOM     12  C   UNL d   1      54.847  33.640  54.096  0.00  0.00     0.005 A 
ENDBRANCH   3   7
BRANCH   4  13
ATOM     13  C   UNL d   1      51.511  33.444  52.759  0.00  0.00     0.219 A 
ATOM     14  N   UNL d   1      50.861  33.411  53.258  0.00  0.00    -0.214 NA
ATOM     15  C   UNL d   1      50.193  33.879  53.095  0.00  0.00     0.102 A 
ATOM     16  C   UNL d   1      50.192  34.371  52.432  0.00  0.00     0.021 A 
ATOM     17  C   UNL d   1      50.842  34.404  51.933  0.00  0.00     0.006 A 
ATOM     18  C   UNL d   1      51.507  33.939  52.093  0.00  0.00     0.052 A 
ENDBRANCH   4  13
TORSDOF 2
ENDMDL
MODEL 4
REMARK VINA RESULT:      -8.2      1.567      2.407
REMARK  2 active torsions:
REMARK  status: ('A' for Active; 'I' for Inactive)
REMARK       I    between atoms: C_2  and  N_1 
REMARK       I    between atoms: C_3  and  N_1 
REMARK       I    between atoms: N_4  and  C_2 
REMARK    1  A    between atoms: C_9  and  C_3 
REMARK    2  A    between atoms: C_5  and  N_4 
ROOT
ATOM      1  N   UNL d   1      53.070  32.994  53.205  0.00  0.00    -0.140 NA
ATOM      2  C   UNL d   1      53.631  32.427  53.402  0.00  0.00     0.424 C 
ATOM      3  C   UNL d   1      52.279  32.791  53.116  0.00  0.00     0.284 C 
ATOM      4  N   UNL d   1      53.435  31.645  53.518  0.00  0.00    -0.329 NA
ATOM      5  O   UNL d   1      54.452  32.427  53.535  0.00  0.00    -0.228 OA
ATOM      6  O   UNL d   1      52.044  32.005  53.226  0.00  0.00    -0.265 OA
ENDROOT
BRANCH   3   7
ATOM      7  C   UNL d   1      51.720  33.360  52.918  0.00  0.00     0.058 A 
ATOM      8  C   UNL d   1      51.037  33.431  53.366  0.00  0.00     0.005 A 
ATOM      9  C   UNL d   1      50.472  34.000  53.174  0.00  0.00     0.000 A 
ATOM     10  C   UNL d   1      50.596  34.503  52.524  0.00  0.00     0.000 A 
ATOM     11  C   UNL d   1      51.278  34.432  52.077  0.00  0.00     0.000 A 
ATOM     12  C   UNL d   1      51.847  33.856  52.273  0.00  0.00     0.005 A 
ENDBRANCH   3   7
BRANCH   4  13
ATOM     13  C   UNL d   1      53.358  30.841  53.657  0.00  0.00     0.219 A 
ATOM     14  N   UNL d   1      53.366  30.554  54.426  0.00  0.00    -0.214 NA
ATOM     15  C   UNL d   1      53.287  29.737  54.561  0.00  0.00     0.102 A 
ATOM     16  C   UNL d   1      53.201  29.224  53.920  0.00  0.00     0.021 A 
ATOM     17  C   UNL d   1      53.193  29.511  53.152  0.00  0.00     0.006 A 
ATOM     18  C   UNL d   1      53.271  30.322  53.015  0.00  0.00     0.052 A 
ENDBRANCH   4  13
TORSDOF 2
ENDMDL
MODEL 5
REMARK VINA RESULT:      -8.1      1.541      4.036
REMARK  2 active torsions:
REMARK  status: ('A' for Active; 'I' for Inactive)
REMARK       I    between atoms: C_2  and  N_1 
REMARK       I    between atoms: C_3  and  N_1 
REMARK       I    between atoms: N_4  and  C_2 
REMARK    1  A    between atoms: C_9  and  C_3 
REMARK    2  A    between atoms: C_5  and  N_4 
ROOT
ATOM      1  N   UNL d   1      53.131  32.884  53.313  0.00  0.00    -0.140 NA
ATOM      2  C   UNL d   1      52.840  33.643  53.199  0.00  0.00     0.424 C 
ATOM      3  C   UNL d   1      52.669  32.225  53.145  0.00  0.00     0.284 C 
ATOM      4  N   UNL d   1      52.088  33.782  52.918  0.00  0.00    -0.329 NA
ATOM      5  O   UNL d   1      53.135  34.413  53.305  0.00  0.00    -0.228 OA
ATOM      6  O   UNL d   1      51.900  32.329  52.857  0.00  0.00    -0.265 OA
ENDROOT
BRANCH   3   7
ATOM      7  C   UNL d   1      52.964  31.466  53.260  0.00  0.00     0.058 A 
ATOM      8  C   UNL d   1      52.586  30.828  52.914  0.00  0.00     0.005 A 
ATOM      9  C   UNL d   1      52.875  30.063  53.024  0.00  0.00     0.000 A 
ATOM     10  C   UNL d   1      53.553  29.941  53.488  0.00  0.00     0.000 A 
ATOM     11  C   UNL d   1      53.932  30.580  53.834  0.00  0.00     0.000 A 
ATOM     12  C   UNL d   1      53.637  31.351  53.721  0.00  0.00     0.005 A 
ENDBRANCH   3   7
BRANCH   4  13
ATOM     13  C   UNL d   1      51.360  34.040  52.644  0.00  0.00     0.219 A 
ATOM     14  N   UNL d   1      51.224  34.109  51.838  0.00  0.00    -0.214 NA
ATOM     15  C   UNL d   1      50.484  34.372  51.566  0.00  0.00     0.102 A 
ATOM     16  C   UNL d   1      49.893  34.560  52.111  0.00  0.00     0.021 A 
ATOM     17  C   UNL d   1      50.028  34.492  52.916  0.00  0.00     0.006 A 
ATOM     18  C   UNL d   1      50.764  34.231  53.189  0.00  0.00     0.052 A 
ENDBRANCH   4  13
TORSDOF 2
ENDMDL
MODEL 6
REMARK VINA RESULT:      -8.1      1.885      2.985
REMARK  2 active torsions:
REMARK  status: ('A' for Active; 'I' for Inactive)
REMARK       I    between atoms: C_2  and  N_1 
REMARK       I    between atoms: C_3  and  N_1 
REMARK       I    between atoms: N_4  and  C_2 
REMARK    1  A    between atoms: C_9  and  C_3 
REMARK    2  A    between atoms: C_5  and  N_4 
ROOT
ATOM      1  N   UNL d   1      54.199  33.237  53.617  0.00  0.00    -0.140 NA
ATOM      2  C   UNL d   1      54.440  32.488  53.382  0.00  0.00     0.424 C 
ATOM      3  C   UNL d   1      53.434  33.369  53.888  0.00  0.00     0.284 C 
ATOM      4  N   UNL d   1      53.940  31.845  53.404  0.00  0.00    -0.329 NA
ATOM      5  O   UNL d   1      55.143  32.157  53.088  0.00  0.00    -0.228 OA
ATOM      6  O   UNL d   1      52.900  32.738  53.924  0.00  0.00    -0.265 OA
ENDROOT
BRANCH   3   7
ATOM      7  C   UNL d   1      53.197  34.120  54.123  0.00  0.00     0.058 A 
ATOM      8  C   UNL d   1      52.789  34.599  53.599  0.00  0.00     0.005 A 
ATOM      9  C   UNL d   1      52.547  35.354  53.827  0.00  0.00     0.000 A 
ATOM     10  C   UNL d   1      52.718  35.629  54.592  0.00  0.00     0.000 A 
ATOM     11  C   UNL d   1      53.126  35.150  55.116  0.00  0.00     0.000 A 
ATOM     12  C   UNL d   1      53.369  34.388  54.883  0.00  0.00     0.005 A 
ENDBRANCH   3   7
BRANCH   4  13
ATOM     13  C   UNL d   1      53.532  31.134  53.383  0.00  0.00     0.219 A 
ATOM     14  N   UNL d   1      53.012  30.976  52.767  0.00  0.00    -0.214 NA
ATOM     15  C   UNL d   1      52.602  30.254  52.751  0.00  0.00     0.102 A 
ATOM     16  C   UNL d   1      52.722  29.702  53.354  0.00  0.00     0.021 A 
ATOM     17  C   UNL d   1      53.241  29.860  53.968  0.00  0.00     0.006 A 
ATOM     18  C   UNL d   1      53.651  30.578  53.987  0.00  0.00     0.052 A 
ENDBRANCH   4  13
TORSDOF 2
ENDMDL
