MODEL 1
REMARK VINA RESULT:      -3.1      0.000      0.000
REMARK  2 active torsions:
REMARK  status: ('A' for Active; 'I' for Inactive)
REMARK    1  A    between atoms: N_2  and  S_1 
REMARK    2  A    between atoms: C_4  and  S_1 
ROOT
ATOM      1  N   UNL d   1      31.497  16.264 -24.428  0.00  0.00    -0.231 N 
ATOM      2  C   UNL d   1      31.976  16.917 -24.242  0.00  0.00     0.075 A 
ATOM      3  C   UNL d   1      32.759  16.932 -24.480  0.00  0.00     0.017 A 
ATOM      4  C   UNL d   1      31.815  15.628 -24.855  0.00  0.00     0.092 A 
ATOM      5  C   UNL d   1      31.658  17.553 -23.815  0.00  0.00     0.018 A 
ATOM      6  C   UNL d   1      32.598  15.643 -25.093  0.00  0.00     0.020 A 
ATOM      7  C   UNL d   1      33.078  16.296 -24.908  0.00  0.00     0.003 A 
ATOM      8  C   UNL d   1      33.239  17.584 -24.295  0.00  0.00     0.002 A 
ATOM      9  C   UNL d   1      32.136  18.194 -23.634  0.00  0.00     0.002 A 
ATOM     10  C   UNL d   1      32.918  18.210 -23.872  0.00  0.00     0.000 A 
ENDROOT
BRANCH   1  11
ATOM     11  S   UNL d   1      30.714  16.249 -24.189  0.00  0.00     0.271 S 
ATOM     12  O   UNL d   1      30.992  15.741 -23.305  0.00  0.00    -0.200 OA
ATOM     13  O   UNL d   1      30.476  16.682 -24.944  0.00  0.00    -0.200 OA
BRANCH  11  14
ATOM     14  C   UNL d   1      29.921  16.233 -23.948  0.00  0.00     0.104 A 
ATOM     15  C   UNL d   1      29.710  15.809 -23.273  0.00  0.00     0.014 A 
ATOM     16  C   UNL d   1      28.929  15.790 -23.031  0.00  0.00     0.012 A 
ATOM     17  C   UNL d   1      28.354  16.193 -23.458  0.00  0.00     0.058 A 
ATOM     18  C   UNL d   1      28.566  16.617 -24.133  0.00  0.00     0.012 A 
ATOM     19 CL   UNL d   1      27.561  16.177 -23.217  0.00  0.00    -0.082 Cl
ATOM     20  C   UNL d   1      29.359  16.633 -24.375  0.00  0.00     0.014 A 
ENDBRANCH  11  14
ENDBRANCH   1  11
TORSDOF 2
ENDMDL
MODEL 2
REMARK VINA RESULT:      -2.5      2.015      3.537
REMARK  2 active torsions:
REMARK  status: ('A' for Active; 'I' for Inactive)
REMARK    1  A    between atoms: N_2  and  S_1 
REMARK    2  A    between atoms: C_4  and  S_1 
ROOT
ATOM      1  N   UNL d   1      32.266  16.905 -24.303  0.00  0.00    -0.231 N 
ATOM      2  C   UNL d   1      31.487  16.619 -24.278  0.00  0.00     0.075 A 
ATOM      3  C   UNL d   1      31.293  15.922 -24.659  0.00  0.00     0.017 A 
ATOM      4  C   UNL d   1      32.847  16.480 -24.716  0.00  0.00     0.092 A 
ATOM      5  C   UNL d   1      30.906  17.045 -23.865  0.00  0.00     0.018 A 
ATOM      6  C   UNL d   1      32.653  15.783 -25.097  0.00  0.00     0.020 A 
ATOM      7  C   UNL d   1      31.874  15.496 -25.073  0.00  0.00     0.003 A 
ATOM      8  C   UNL d   1      30.513  15.636 -24.635  0.00  0.00     0.002 A 
ATOM      9  C   UNL d   1      30.138  16.758 -23.844  0.00  0.00     0.002 A 
ATOM     10  C   UNL d   1      29.944  16.060 -24.225  0.00  0.00     0.000 A 
ENDROOT
BRANCH   1  11
ATOM     11  S   UNL d   1      32.460  17.603 -23.921  0.00  0.00     0.271 S 
ATOM     12  O   UNL d   1      32.736  17.056 -23.060  0.00  0.00    -0.200 OA
ATOM     13  O   UNL d   1      32.225  18.071 -24.656  0.00  0.00    -0.200 OA
BRANCH  11  14
ATOM     14  C   UNL d   1      32.657  18.310 -23.535  0.00  0.00     0.104 A 
ATOM     15  C   UNL d   1      32.643  19.020 -23.955  0.00  0.00     0.014 A 
ATOM     16  C   UNL d   1      32.836  19.720 -23.578  0.00  0.00     0.012 A 
ATOM     17  C   UNL d   1      33.044  19.718 -22.783  0.00  0.00     0.058 A 
ATOM     18  C   UNL d   1      33.058  19.007 -22.364  0.00  0.00     0.012 A 
ATOM     19 CL   UNL d   1      33.241  20.424 -22.397  0.00  0.00    -0.082 Cl
ATOM     20  C   UNL d   1      32.862  18.300 -22.750  0.00  0.00     0.014 A 
ENDBRANCH  11  14
ENDBRANCH   1  11
TORSDOF 2
ENDMDL
MODEL 3
REMARK VINA RESULT:      -2.1      1.014      1.466
REMARK  2 active torsions:
REMARK  status: ('A' for Active; 'I' for Inactive)
REMARK    1  A    between atoms: N_2  and  S_1 
REMARK    2  A    between atoms: C_4  and  S_1 
ROOT
ATOM      1  N   UNL d   1      31.177  16.901 -24.155  0.00  0.00    -0.231 N 
ATOM      2  C   UNL d   1      31.829  16.511 -23.820  0.00  0.00     0.075 A 
ATOM      3  C   UNL d   1      32.586  16.792 -23.950  0.00  0.00     0.017 A 
ATOM      4  C   UNL d   1      31.297  17.577 -24.622  0.00  0.00     0.092 A 
ATOM      5  C   UNL d   1      31.709  15.834 -23.354  0.00  0.00     0.018 A 
ATOM      6  C   UNL d   1      32.055  17.858 -24.751  0.00  0.00     0.020 A 
ATOM      7  C   UNL d   1      32.708  17.468 -24.416  0.00  0.00     0.003 A 
ATOM      8  C   UNL d   1      33.239  16.402 -23.615  0.00  0.00     0.002 A 
ATOM      9  C   UNL d   1      32.357  15.453 -23.026  0.00  0.00     0.002 A 
ATOM     10  C   UNL d   1      33.114  15.734 -23.155  0.00  0.00     0.000 A 
ENDROOT
BRANCH   1  11
ATOM     11  S   UNL d   1      30.419  16.620 -24.026  0.00  0.00     0.271 S 
ATOM     12  O   UNL d   1      30.480  16.047 -24.912  0.00  0.00    -0.200 OA
ATOM     13  O   UNL d   1      30.366  17.108 -23.270  0.00  0.00    -0.200 OA
BRANCH  11  14
ATOM     14  C   UNL d   1      29.651  16.335 -23.895  0.00  0.00     0.104 A 
ATOM     15  C   UNL d   1      29.195  16.662 -23.291  0.00  0.00     0.014 A 
ATOM     16  C   UNL d   1      28.437  16.384 -23.158  0.00  0.00     0.012 A 
ATOM     17  C   UNL d   1      28.129  15.782 -23.624  0.00  0.00     0.058 A 
ATOM     18  C   UNL d   1      28.587  15.456 -24.228  0.00  0.00     0.012 A 
ATOM     19 CL   UNL d   1      27.362  15.497 -23.493  0.00  0.00    -0.082 Cl
ATOM     20  C   UNL d   1      29.354  15.740 -24.359  0.00  0.00     0.014 A 
ENDBRANCH  11  14
ENDBRANCH   1  11
TORSDOF 2
ENDMDL
MODEL 4
REMARK VINA RESULT:      -0.9      5.260      6.647
REMARK  2 active torsions:
REMARK  status: ('A' for Active; 'I' for Inactive)
REMARK    1  A    between atoms: N_2  and  S_1 
REMARK    2  A    between atoms: C_4  and  S_1 
ROOT
ATOM      1  N   UNL d   1      32.446  22.181 -21.187  0.00  0.00    -0.231 N 
ATOM      2  C   UNL d   1      32.658  22.382 -20.410  0.00  0.00     0.075 A 
ATOM      3  C   UNL d   1      32.503  23.132 -20.122  0.00  0.00     0.017 A 
ATOM      4  C   UNL d   1      32.075  22.744 -21.671  0.00  0.00     0.092 A 
ATOM      5  C   UNL d   1      33.030  21.819 -19.926  0.00  0.00     0.018 A 
ATOM      6  C   UNL d   1      31.919  23.494 -21.383  0.00  0.00     0.020 A 
ATOM      7  C   UNL d   1      32.131  23.696 -20.606  0.00  0.00     0.003 A 
ATOM      8  C   UNL d   1      32.715  23.334 -19.345  0.00  0.00     0.002 A 
ATOM      9  C   UNL d   1      33.237  22.023 -19.159  0.00  0.00     0.002 A 
ATOM     10  C   UNL d   1      33.081  22.772 -18.872  0.00  0.00     0.000 A 
ENDROOT
BRANCH   1  11
ATOM     11  S   UNL d   1      32.602  21.430 -21.475  0.00  0.00     0.271 S 
ATOM     12  O   UNL d   1      31.947  21.018 -20.755  0.00  0.00    -0.200 OA
ATOM     13  O   UNL d   1      33.161  21.782 -22.089  0.00  0.00    -0.200 OA
BRANCH  11  14
ATOM     14  C   UNL d   1      32.760  20.670 -21.766  0.00  0.00     0.104 A 
ATOM     15  C   UNL d   1      32.933  20.570 -22.566  0.00  0.00     0.014 A 
ATOM     16  C   UNL d   1      33.089  19.822 -22.858  0.00  0.00     0.012 A 
ATOM     17  C   UNL d   1      33.075  19.171 -22.358  0.00  0.00     0.058 A 
ATOM     18  C   UNL d   1      32.901  19.272 -21.557  0.00  0.00     0.012 A 
ATOM     19 CL   UNL d   1      33.232  18.411 -22.649  0.00  0.00    -0.082 Cl
ATOM     20  C   UNL d   1      32.744  20.032 -21.266  0.00  0.00     0.014 A 
ENDBRANCH  11  14
ENDBRANCH   1  11
TORSDOF 2
ENDMDL
MODEL 5
REMARK VINA RESULT:      -0.4      4.686      6.046
REMARK  2 active torsions:
REMARK  status: ('A' for Active; 'I' for Inactive)
REMARK    1  A    between atoms: N_2  and  S_1 
REMARK    2  A    between atoms: C_4  and  S_1 
ROOT
ATOM      1  N   UNL d   1      32.471  21.522 -21.153  0.00  0.00    -0.231 N 
ATOM      2  C   UNL d   1      32.688  22.250 -21.490  0.00  0.00     0.075 A 
ATOM      3  C   UNL d   1      32.572  22.945 -21.075  0.00  0.00     0.017 A 
ATOM      4  C   UNL d   1      32.136  21.504 -20.394  0.00  0.00     0.092 A 
ATOM      5  C   UNL d   1      33.024  22.268 -22.249  0.00  0.00     0.018 A 
ATOM      6  C   UNL d   1      32.019  22.200 -19.979  0.00  0.00     0.020 A 
ATOM      7  C   UNL d   1      32.236  22.928 -20.315  0.00  0.00     0.003 A 
ATOM      8  C   UNL d   1      32.789  23.674 -21.411  0.00  0.00     0.002 A 
ATOM      9  C   UNL d   1      33.236  22.989 -22.576  0.00  0.00     0.002 A 
ATOM     10  C   UNL d   1      33.120  23.685 -22.161  0.00  0.00     0.000 A 
ENDROOT
BRANCH   1  11
ATOM     11  S   UNL d   1      32.587  20.826 -21.568  0.00  0.00     0.271 S 
ATOM     12  O   UNL d   1      33.241  20.484 -20.811  0.00  0.00    -0.200 OA
ATOM     13  O   UNL d   1      32.030  21.118 -22.214  0.00  0.00    -0.200 OA
BRANCH  11  14
ATOM     14  C   UNL d   1      32.705  20.121 -21.989  0.00  0.00     0.104 A 
ATOM     15  C   UNL d   1      33.122  19.503 -21.636  0.00  0.00     0.014 A 
ATOM     16  C   UNL d   1      33.241  18.806 -22.047  0.00  0.00     0.012 A 
ATOM     17  C   UNL d   1      32.946  18.719 -22.809  0.00  0.00     0.058 A 
ATOM     18  C   UNL d   1      32.529  19.338 -23.161  0.00  0.00     0.012 A 
ATOM     19 CL   UNL d   1      33.064  18.015 -23.229  0.00  0.00    -0.082 Cl
ATOM     20  C   UNL d   1      32.411  20.043 -22.740  0.00  0.00     0.014 A 
ENDBRANCH  11  14
ENDBRANCH   1  11
TORSDOF 2
ENDMDL
