MODEL 1
REMARK VINA RESULT:      56.7      0.000      0.000
REMARK  7 active torsions:
REMARK  status: ('A' for Active; 'I' for Inactive)
REMARK    1  A    between atoms: C_6  and  N_2 
REMARK    2  A    between atoms: C_7  and  C_3 
REMARK    3  A    between atoms: C_10  and  C_6 
REMARK    4  A    between atoms: C_17  and  C_7 
REMARK    5  A    between atoms: O_8  and  C_10 
REMARK    6  A    between atoms: C_9  and  O_8 
REMARK    7  A    between atoms: C_14  and  C_17 
ROOT
ATOM      1  N   UNL d   1      61.513  49.159  51.126  0.00  0.00    -0.227 NA
ATOM      2  N   UNL d   1      60.409  49.369  50.400  0.00  0.00    -0.287 N 
ATOM      3  C   UNL d   1      61.226  49.191  50.340  0.00  0.00     0.148 A 
ATOM      4  C   UNL d   1      60.211  49.442  51.192  0.00  0.00     0.083 A 
ATOM      5  C   UNL d   1      60.923  49.306  51.660  0.00  0.00     0.099 A 
ATOM      6  C   UNL d   1      59.500  49.608  51.551  0.00  0.00     0.019 A 
ATOM      7  C   UNL d   1      60.825  49.358  52.486  0.00  0.00     0.021 A 
ATOM      8  C   UNL d   1      59.482  49.642  52.359  0.00  0.00     0.002 A 
ATOM      9  C   UNL d   1      60.149  49.515  52.798  0.00  0.00     0.002 A 
ENDROOT
BRANCH   2  10
ATOM     10  C   UNL d   1      60.037  49.423  49.695  0.00  0.00     0.108 C 
BRANCH  10  11
ATOM     11  C   UNL d   1      59.267  49.689  49.623  0.00  0.00     0.142 C 
BRANCH  11  12
ATOM     12  O   UNL d   1      58.644  49.205  49.414  0.00  0.00    -0.304 OA
BRANCH  12  13
ATOM     13  C   UNL d   1      57.861  49.355  49.624  0.00  0.00     0.100 A 
ATOM     14  C   UNL d   1      57.621  49.546  50.389  0.00  0.00     0.025 A 
ATOM     15  C   UNL d   1      56.840  49.696  50.598  0.00  0.00     0.002 A 
ATOM     16  C   UNL d   1      56.258  49.653  50.003  0.00  0.00     0.000 A 
ATOM     17  C   UNL d   1      56.476  49.461  49.217  0.00  0.00     0.002 A 
ATOM     18  C   UNL d   1      57.280  49.312  49.029  0.00  0.00     0.025 A 
ENDBRANCH  12  13
ENDBRANCH  11  12
ENDBRANCH  10  11
ENDBRANCH   2  10
BRANCH   3  19
ATOM     19  C   UNL d   1      61.247  49.156  49.534  0.00  0.00     0.041 C 
BRANCH  19  20
ATOM     20  C   UNL d   1      61.599  48.495  49.159  0.00  0.00     0.049 C 
BRANCH  20  21
ATOM     21  C   UNL d   1      62.339  48.206  49.413  0.00  0.00     0.234 C 
ATOM     22  O   UNL d   1      62.512  47.392  49.369  0.00  0.00    -0.283 OA
ENDBRANCH  20  21
ENDBRANCH  19  20
ENDBRANCH   3  19
TORSDOF 7
ENDMDL
MODEL 2
REMARK VINA RESULT:      58.8      1.267      3.645
REMARK  7 active torsions:
REMARK  status: ('A' for Active; 'I' for Inactive)
REMARK    1  A    between atoms: C_6  and  N_2 
REMARK    2  A    between atoms: C_7  and  C_3 
REMARK    3  A    between atoms: C_10  and  C_6 
REMARK    4  A    between atoms: C_17  and  C_7 
REMARK    5  A    between atoms: O_8  and  C_10 
REMARK    6  A    between atoms: C_9  and  O_8 
REMARK    7  A    between atoms: C_14  and  C_17 
ROOT
ATOM      1  N   UNL d   1      59.579  49.655  52.122  0.00  0.00    -0.227 NA
ATOM      2  N   UNL d   1      60.400  49.549  51.072  0.00  0.00    -0.287 N 
ATOM      3  C   UNL d   1      59.592  49.589  51.288  0.00  0.00     0.148 A 
ATOM      4  C   UNL d   1      60.858  49.590  51.751  0.00  0.00     0.083 A 
ATOM      5  C   UNL d   1      60.329  49.659  52.428  0.00  0.00     0.099 A 
ATOM      6  C   UNL d   1      61.666  49.576  51.851  0.00  0.00     0.019 A 
ATOM      7  C   UNL d   1      60.701  49.707  53.172  0.00  0.00     0.021 A 
ATOM      8  C   UNL d   1      61.955  49.628  52.605  0.00  0.00     0.002 A 
ATOM      9  C   UNL d   1      61.459  49.692  53.240  0.00  0.00     0.002 A 
ENDROOT
BRANCH   2  10
ATOM     10  C   UNL d   1      60.522  49.484  50.285  0.00  0.00     0.108 C 
BRANCH  10  11
ATOM     11  C   UNL d   1      60.853  48.816  49.946  0.00  0.00     0.142 C 
BRANCH  11  12
ATOM     12  O   UNL d   1      61.015  48.135  50.366  0.00  0.00    -0.304 OA
BRANCH  12  13
ATOM     13  C   UNL d   1      61.388  47.477  50.037  0.00  0.00     0.100 A 
ATOM     14  C   UNL d   1      62.199  47.434  49.895  0.00  0.00     0.025 A 
ATOM     15  C   UNL d   1      62.570  46.777  49.567  0.00  0.00     0.002 A 
ATOM     16  C   UNL d   1      62.100  46.118  49.367  0.00  0.00     0.000 A 
ATOM     17  C   UNL d   1      61.273  46.137  49.501  0.00  0.00     0.002 A 
ATOM     18  C   UNL d   1      60.918  46.819  49.837  0.00  0.00     0.025 A 
ENDBRANCH  12  13
ENDBRANCH  11  12
ENDBRANCH  10  11
ENDBRANCH   2  10
BRANCH   3  19
ATOM     19  C   UNL d   1      59.300  49.537  50.537  0.00  0.00     0.041 C 
BRANCH  19  20
ATOM     20  C   UNL d   1      58.537  49.216  50.412  0.00  0.00     0.049 C 
BRANCH  20  21
ATOM     21  C   UNL d   1      57.898  49.708  50.201  0.00  0.00     0.234 C 
ATOM     22  O   UNL d   1      57.268  49.409  49.744  0.00  0.00    -0.283 OA
ENDBRANCH  20  21
ENDBRANCH  19  20
ENDBRANCH   3  19
TORSDOF 7
ENDMDL
