MODEL 1
REMARK VINA RESULT:      -3.7      0.000      0.000
REMARK  7 active torsions:
REMARK  status: ('A' for Active; 'I' for Inactive)
REMARK    1  A    between atoms: C_7  and  S_1 
REMARK    2  A    between atoms: N_11  and  S_1 
REMARK    3  A    between atoms: C_5  and  C_2 
REMARK    4  A    between atoms: C_6  and  C_15 
REMARK    5  A    between atoms: C_18  and  N_11 
REMARK    6  A    between atoms: C_15  and  C_18 
REMARK    7  A    between atoms: O_21  and  C_17 
ROOT
ATOM      1  C   UNL d   1      32.662  18.796 -22.908  0.00  0.00     0.114 C 
ENDROOT
BRANCH   1   2
ATOM      2  C   UNL d   1      33.241  19.361 -22.754  0.00  0.00     0.041 C 
BRANCH   2   3
ATOM      3  C   UNL d   1      33.121  19.944 -22.177  0.00  0.00     0.090 A 
ATOM      4  N   UNL d   1      32.857  20.718 -22.323  0.00  0.00    -0.238 NA
ATOM      5  C   UNL d   1      32.815  21.110 -21.591  0.00  0.00     0.112 A 
ATOM      6  S   UNL d   1      33.051  20.583 -20.998  0.00  0.00    -0.066 SA
ATOM      7  C   UNL d   1      33.241  19.858 -21.362  0.00  0.00     0.056 A 
BRANCH   5   8
ATOM      8  C   UNL d   1      32.576  21.901 -21.468  0.00  0.00     0.043 A 
ATOM      9  C   UNL d   1      32.034  22.080 -20.873  0.00  0.00     0.101 A 
ATOM     10  N   UNL d   1      31.801  22.852 -20.752  0.00  0.00    -0.242 NA
ATOM     11  C   UNL d   1      32.108  23.451 -21.226  0.00  0.00     0.099 A 
ATOM     12  C   UNL d   1      32.660  23.265 -21.832  0.00  0.00     0.021 A 
ATOM     13  C   UNL d   1      32.893  22.489 -21.951  0.00  0.00     0.005 A 
ENDBRANCH   5   8
ENDBRANCH   2   3
ENDBRANCH   1   2
BRANCH   1  14
ATOM     14  N   UNL d   1      32.739  18.292 -23.578  0.00  0.00    -0.157 NA
BRANCH  14  15
ATOM     15  S   UNL d   1      32.131  17.755 -23.753  0.00  0.00     0.285 S 
ATOM     16  O   UNL d   1      31.860  18.267 -24.355  0.00  0.00    -0.198 OA
ATOM     17  O   UNL d   1      32.398  17.243 -23.155  0.00  0.00    -0.198 OA
BRANCH  15  18
ATOM     18  C   UNL d   1      31.522  17.227 -23.934  0.00  0.00     0.105 A 
ATOM     19  C   UNL d   1      30.894  17.484 -24.401  0.00  0.00     0.015 A 
ATOM     20  C   UNL d   1      30.278  16.952 -24.585  0.00  0.00     0.025 A 
ATOM     21  C   UNL d   1      30.300  16.183 -24.304  0.00  0.00     0.094 A 
ATOM     22  C   UNL d   1      30.930  15.935 -23.839  0.00  0.00     0.025 A 
ATOM     23  C   UNL d   1      31.546  16.446 -23.648  0.00  0.00     0.015 A 
BRANCH  21  24
ATOM     24  O   UNL d   1      29.692  15.655 -24.485  0.00  0.00    -0.328 OA
ATOM     25  C   UNL d   1      28.943  15.764 -24.156  0.00  0.00     0.181 C 
ENDBRANCH  21  24
ENDBRANCH  15  18
ENDBRANCH  14  15
ENDBRANCH   1  14
TORSDOF 7
ENDMDL
MODEL 2
REMARK VINA RESULT:      -2.3      1.220      1.706
REMARK  7 active torsions:
REMARK  status: ('A' for Active; 'I' for Inactive)
REMARK    1  A    between atoms: C_7  and  S_1 
REMARK    2  A    between atoms: N_11  and  S_1 
REMARK    3  A    between atoms: C_5  and  C_2 
REMARK    4  A    between atoms: C_6  and  C_15 
REMARK    5  A    between atoms: C_18  and  N_11 
REMARK    6  A    between atoms: C_15  and  C_18 
REMARK    7  A    between atoms: O_21  and  C_17 
ROOT
ATOM      1  C   UNL d   1      32.129  18.051 -24.026  0.00  0.00     0.114 C 
ENDROOT
BRANCH   1   2
ATOM      2  C   UNL d   1      32.837  18.287 -23.679  0.00  0.00     0.041 C 
BRANCH   2   3
ATOM      3  C   UNL d   1      32.947  19.072 -23.433  0.00  0.00     0.090 A 
ATOM      4  N   UNL d   1      32.887  19.342 -22.649  0.00  0.00    -0.238 NA
ATOM      5  C   UNL d   1      33.038  20.159 -22.655  0.00  0.00     0.112 A 
ATOM      6  S   UNL d   1      33.190  20.393 -23.435  0.00  0.00    -0.066 SA
ATOM      7  C   UNL d   1      33.133  19.716 -23.918  0.00  0.00     0.056 A 
BRANCH   5   8
ATOM      8  C   UNL d   1      33.038  20.665 -21.990  0.00  0.00     0.043 A 
ATOM      9  C   UNL d   1      32.852  20.366 -21.244  0.00  0.00     0.101 A 
ATOM     10  N   UNL d   1      32.852  20.861 -20.595  0.00  0.00    -0.242 NA
ATOM     11  C   UNL d   1      33.038  21.656 -20.687  0.00  0.00     0.099 A 
ATOM     12  C   UNL d   1      33.227  21.958 -21.449  0.00  0.00     0.021 A 
ATOM     13  C   UNL d   1      33.226  21.461 -22.100  0.00  0.00     0.005 A 
ENDBRANCH   5   8
ENDBRANCH   2   3
ENDBRANCH   1   2
BRANCH   1  14
ATOM     14  N   UNL d   1      32.048  17.264 -24.314  0.00  0.00    -0.157 NA
BRANCH  14  15
ATOM     15  S   UNL d   1      31.298  16.910 -24.318  0.00  0.00     0.285 S 
ATOM     16  O   UNL d   1      31.510  16.464 -23.645  0.00  0.00    -0.198 OA
ATOM     17  O   UNL d   1      31.083  17.353 -24.989  0.00  0.00    -0.198 OA
BRANCH  15  18
ATOM     18  C   UNL d   1      30.553  16.552 -24.315  0.00  0.00     0.105 A 
ATOM     19  C   UNL d   1      30.116  16.542 -23.617  0.00  0.00     0.015 A 
ATOM     20  C   UNL d   1      29.363  16.181 -23.611  0.00  0.00     0.025 A 
ATOM     21  C   UNL d   1      29.064  15.842 -24.294  0.00  0.00     0.094 A 
ATOM     22  C   UNL d   1      29.506  15.857 -24.986  0.00  0.00     0.025 A 
ATOM     23  C   UNL d   1      30.250  16.208 -25.010  0.00  0.00     0.015 A 
BRANCH  21  24
ATOM     24  O   UNL d   1      28.320  15.485 -24.291  0.00  0.00    -0.328 OA
ATOM     25  C   UNL d   1      27.832  15.559 -23.630  0.00  0.00     0.181 C 
ENDBRANCH  21  24
ENDBRANCH  15  18
ENDBRANCH  14  15
ENDBRANCH   1  14
TORSDOF 7
ENDMDL
