MODEL 1
REMARK VINA RESULT:      -3.7      0.000      0.000
REMARK  3 active torsions:
REMARK  status: ('A' for Active; 'I' for Inactive)
REMARK    1  A    between atoms: N_6  and  C_1 
REMARK    2  A    between atoms: C_9  and  C_2 
REMARK       I    between atoms: C_8  and  N_6 
REMARK       I    between atoms: C_11  and  N_7 
REMARK    3  A    between atoms: C_17  and  C_8 
ROOT
ATOM      1  C   UNL d   1     -41.473-122.576 -51.213  0.00  0.00     0.119 A 
ATOM      2  C   UNL d   1     -41.549-121.867 -51.623  0.00  0.00     0.084 A 
ATOM      3  C   UNL d   1     -41.392-122.844 -52.515  0.00  0.00     0.049 A 
ATOM      4  C   UNL d   1     -41.499-122.034 -52.434  0.00  0.00     0.016 A 
ATOM      5  S   UNL d   1     -41.375-123.185 -51.766  0.00  0.00    -0.066 SA
ATOM      6  N   UNL d   1     -41.362-122.689 -53.943  0.00  0.00    -0.272 N 
ATOM      7  C   UNL d   1     -41.323-123.171 -53.281  0.00  0.00     0.089 A 
ATOM      8  C   UNL d   1     -41.294-123.005 -54.700  0.00  0.00     0.265 C 
ATOM      9  C   UNL d   1     -41.539-121.541 -53.095  0.00  0.00     0.020 A 
ATOM     10  C   UNL d   1     -41.471-121.869 -53.849  0.00  0.00     0.083 A 
ATOM     11  O   UNL d   1     -41.186-123.817 -54.793  0.00  0.00    -0.267 OA
ATOM     12  C   UNL d   1     -41.333-122.523 -55.363  0.00  0.00     0.066 C 
ENDROOT
BRANCH   1  13
ATOM     13  N   UNL d   1     -41.489-122.673 -50.386  0.00  0.00    -0.201 NA
ATOM     14  C   UNL d   1     -41.927-123.294 -50.060  0.00  0.00     0.280 C 
ATOM     15  O   UNL d   1     -42.346-123.818 -50.537  0.00  0.00    -0.265 OA
BRANCH  14  16
ATOM     16  C   UNL d   1     -41.944-123.389 -49.241  0.00  0.00     0.058 A 
ATOM     17  C   UNL d   1     -41.281-123.691 -48.847  0.00  0.00     0.005 A 
ATOM     18  C   UNL d   1     -41.298-123.787 -48.028  0.00  0.00     0.000 A 
ATOM     19  C   UNL d   1     -41.977-123.582 -47.590  0.00  0.00     0.000 A 
ATOM     20  C   UNL d   1     -42.630-123.282 -47.996  0.00  0.00     0.000 A 
ATOM     21  C   UNL d   1     -42.614-123.187 -48.815  0.00  0.00     0.005 A 
ENDBRANCH  14  16
ENDBRANCH   1  13
BRANCH   2  22
ATOM     22  C   UNL d   1     -41.657-121.130 -51.279  0.00  0.00     0.299 C 
ATOM     23  O   UNL d   1     -42.306-121.007 -50.785  0.00  0.00    -0.264 OA
ATOM     24  N   UNL d   1     -41.124-120.518 -51.424  0.00  0.00    -0.102 N 
ENDBRANCH   2  22
TORSDOF 3
ENDMDL
