MODEL 1
REMARK VINA RESULT:      -0.5      0.000      0.000
REMARK  8 active torsions:
REMARK  status: ('A' for Active; 'I' for Inactive)
REMARK    1  A    between atoms: C_20  and  N_7 
REMARK    2  A    between atoms: C_10  and  C_8 
REMARK       I    between atoms: N_18  and  C_10 
REMARK    3  A    between atoms: N_14  and  C_22 
REMARK    4  A    between atoms: C_21  and  N_18 
REMARK    5  A    between atoms: C_23  and  C_20 
REMARK    6  A    between atoms: C_22  and  C_21 
REMARK    7  A    between atoms: C_30  and  C_23 
REMARK    8  A    between atoms: O_27  and  C_30 
ROOT
ATOM      1  C   UNL d   1      32.872  21.265 -22.401  0.00  0.00     0.154 A 
ATOM      2  C   UNL d   1      32.632  20.783 -21.776  0.00  0.00     0.093 A 
ATOM      3  N   UNL d   1      32.991  22.056 -22.282  0.00  0.00    -0.210 NA
ATOM      4  N   UNL d   1      32.632  21.879 -20.930  0.00  0.00    -0.258 N 
ATOM      5  C   UNL d   1      32.872  22.361 -21.555  0.00  0.00     0.152 A 
ATOM      6  C   UNL d   1      32.510  21.085 -21.038  0.00  0.00     0.269 A 
ATOM      7  N   UNL d   1      32.990  20.964 -23.125  0.00  0.00    -0.285 N 
ATOM      8  C   UNL d   1      32.872  20.180 -23.238  0.00  0.00     0.137 A 
ATOM      9  C   UNL d   1      32.635  19.705 -22.623  0.00  0.00     0.031 A 
ATOM     10  C   UNL d   1      32.989  23.138 -21.441  0.00  0.00     0.035 A 
ATOM     11  C   UNL d   1      32.509  22.174 -20.191  0.00  0.00     0.084 A 
ATOM     12  O   UNL d   1      32.269  20.603 -20.413  0.00  0.00    -0.266 OA
ATOM     13  C   UNL d   1      32.632  22.963 -20.093  0.00  0.00     0.019 A 
ATOM     14  C   UNL d   1      32.872  23.445 -20.718  0.00  0.00     0.005 A 
ATOM     15  C   UNL d   1      33.233  23.621 -22.080  0.00  0.00     0.003 C 
ENDROOT
BRANCH   8  16
ATOM     16  C   UNL d   1      32.994  19.872 -23.982  0.00  0.00     0.344 C 
ATOM     17  O   UNL d   1      33.130  20.374 -24.618  0.00  0.00    -0.249 OA
ATOM     18  N   UNL d   1      32.977  19.043 -24.084  0.00  0.00    -0.359 NA
BRANCH  18  19
ATOM     19  C   UNL d   1      32.962  18.218 -24.194  0.00  0.00     0.184 C 
BRANCH  19  20
ATOM     20  C   UNL d   1      32.264  17.843 -24.467  0.00  0.00     0.116 C 
BRANCH  20  21
ATOM     21  N   UNL d   1      32.273  17.023 -24.629  0.00  0.00    -0.297 N 
ATOM     22  C   UNL d   1      32.673  16.313 -24.810  0.00  0.00     0.107 A 
ATOM     23  C   UNL d   1      32.241  15.600 -24.905  0.00  0.00     0.142 A 
ATOM     24  O   UNL d   1      31.402  15.603 -24.817  0.00  0.00    -0.300 OA
ATOM     25  C   UNL d   1      30.999  16.320 -24.634  0.00  0.00     0.142 A 
ATOM     26  C   UNL d   1      31.435  17.030 -24.540  0.00  0.00     0.107 A 
ENDBRANCH  20  21
ENDBRANCH  19  20
ENDBRANCH  18  19
ENDBRANCH   8  16
BRANCH   7  27
ATOM     27  C   UNL d   1      33.233  21.458 -23.750  0.00  0.00     0.084 C 
BRANCH  27  28
ATOM     28  C   UNL d   1      32.715  22.032 -24.056  0.00  0.00     0.045 C 
BRANCH  28  29
ATOM     29  C   UNL d   1      32.960  22.512 -24.691  0.00  0.00     0.118 C 
BRANCH  29  30
ATOM     30  O   UNL d   1      32.493  23.161 -24.919  0.00  0.00    -0.326 OA
ATOM     31  C   UNL d   1      31.680  23.050 -25.091  0.00  0.00     0.181 C 
ENDBRANCH  29  30
ENDBRANCH  28  29
ENDBRANCH  27  28
ENDBRANCH   7  27
TORSDOF 8
ENDMDL
MODEL 2
REMARK VINA RESULT:      -0.1      1.061      2.657
REMARK  8 active torsions:
REMARK  status: ('A' for Active; 'I' for Inactive)
REMARK    1  A    between atoms: C_20  and  N_7 
REMARK    2  A    between atoms: C_10  and  C_8 
REMARK       I    between atoms: N_18  and  C_10 
REMARK    3  A    between atoms: N_14  and  C_22 
REMARK    4  A    between atoms: C_21  and  N_18 
REMARK    5  A    between atoms: C_23  and  C_20 
REMARK    6  A    between atoms: C_22  and  C_21 
REMARK    7  A    between atoms: C_30  and  C_23 
REMARK    8  A    between atoms: O_27  and  C_30 
ROOT
ATOM      1  C   UNL d   1      33.190  20.951 -23.003  0.00  0.00     0.154 A 
ATOM      2  C   UNL d   1      33.185  20.918 -23.827  0.00  0.00     0.093 A 
ATOM      3  N   UNL d   1      33.205  21.664 -22.624  0.00  0.00    -0.210 NA
ATOM      4  N   UNL d   1      33.210  22.301 -23.882  0.00  0.00    -0.258 N 
ATOM      5  C   UNL d   1      33.215  22.334 -23.058  0.00  0.00     0.152 A 
ATOM      6  C   UNL d   1      33.195  21.591 -24.272  0.00  0.00     0.269 A 
ATOM      7  N   UNL d   1      33.180  20.287 -22.569  0.00  0.00    -0.285 N 
ATOM      8  C   UNL d   1      33.165  19.581 -22.948  0.00  0.00     0.137 A 
ATOM      9  C   UNL d   1      33.160  19.549 -23.760  0.00  0.00     0.031 A 
ATOM     10  C   UNL d   1      33.230  23.034 -22.683  0.00  0.00     0.035 A 
ATOM     11  C   UNL d   1      33.220  22.969 -24.332  0.00  0.00     0.084 A 
ATOM     12  O   UNL d   1      33.189  21.559 -25.097  0.00  0.00    -0.266 OA
ATOM     13  C   UNL d   1      33.235  23.670 -23.936  0.00  0.00     0.019 A 
ATOM     14  C   UNL d   1      33.240  23.702 -23.112  0.00  0.00     0.005 A 
ATOM     15  C   UNL d   1      33.236  23.059 -21.846  0.00  0.00     0.003 C 
ENDROOT
BRANCH   8  16
ATOM     16  C   UNL d   1      33.155  18.901 -22.502  0.00  0.00     0.344 C 
ATOM     17  O   UNL d   1      33.207  18.944 -21.684  0.00  0.00    -0.249 OA
ATOM     18  N   UNL d   1      33.091  18.163 -22.890  0.00  0.00    -0.359 NA
BRANCH  18  19
ATOM     19  C   UNL d   1      33.028  17.426 -23.270  0.00  0.00     0.184 C 
BRANCH  19  20
ATOM     20  C   UNL d   1      32.386  16.917 -23.096  0.00  0.00     0.116 C 
BRANCH  20  21
ATOM     21  N   UNL d   1      31.940  16.588 -23.722  0.00  0.00    -0.297 N 
ATOM     22  C   UNL d   1      31.781  16.476 -24.534  0.00  0.00     0.107 A 
ATOM     23  C   UNL d   1      31.138  15.994 -24.774  0.00  0.00     0.142 A 
ATOM     24  O   UNL d   1      30.652  15.622 -24.194  0.00  0.00    -0.300 OA
ATOM     25  C   UNL d   1      30.813  15.735 -23.374  0.00  0.00     0.142 A 
ATOM     26  C   UNL d   1      31.457  16.218 -23.139  0.00  0.00     0.107 A 
ENDBRANCH  20  21
ENDBRANCH  19  20
ENDBRANCH  18  19
ENDBRANCH   8  16
BRANCH   7  27
ATOM     27  C   UNL d   1      33.186  20.329 -21.737  0.00  0.00     0.084 C 
BRANCH  27  28
ATOM     28  C   UNL d   1      32.560  20.697 -21.332  0.00  0.00     0.045 C 
BRANCH  28  29
ATOM     29  C   UNL d   1      32.674  20.963 -20.551  0.00  0.00     0.118 C 
BRANCH  29  30
ATOM     30  O   UNL d   1      32.049  20.914 -20.006  0.00  0.00    -0.326 OA
ATOM     31  C   UNL d   1      31.565  21.583 -19.864  0.00  0.00     0.181 C 
ENDBRANCH  29  30
ENDBRANCH  28  29
ENDBRANCH  27  28
ENDBRANCH   7  27
TORSDOF 8
ENDMDL
MODEL 3
REMARK VINA RESULT:       0.3      2.192      5.811
REMARK  8 active torsions:
REMARK  status: ('A' for Active; 'I' for Inactive)
REMARK    1  A    between atoms: C_20  and  N_7 
REMARK    2  A    between atoms: C_10  and  C_8 
REMARK       I    between atoms: N_18  and  C_10 
REMARK    3  A    between atoms: N_14  and  C_22 
REMARK    4  A    between atoms: C_21  and  N_18 
REMARK    5  A    between atoms: C_23  and  C_20 
REMARK    6  A    between atoms: C_22  and  C_21 
REMARK    7  A    between atoms: C_30  and  C_23 
REMARK    8  A    between atoms: O_27  and  C_30 
ROOT
ATOM      1  C   UNL d   1      33.222  21.097 -21.369  0.00  0.00     0.154 A 
ATOM      2  C   UNL d   1      33.218  20.587 -20.721  0.00  0.00     0.093 A 
ATOM      3  N   UNL d   1      33.224  20.800 -22.121  0.00  0.00    -0.210 NA
ATOM      4  N   UNL d   1      33.219  19.499 -21.576  0.00  0.00    -0.258 N 
ATOM      5  C   UNL d   1      33.223  20.009 -22.225  0.00  0.00     0.152 A 
ATOM      6  C   UNL d   1      33.217  19.787 -20.819  0.00  0.00     0.269 A 
ATOM      7  N   UNL d   1      33.223  21.884 -21.268  0.00  0.00    -0.285 N 
ATOM      8  C   UNL d   1      33.220  22.175 -20.522  0.00  0.00     0.137 A 
ATOM      9  C   UNL d   1      33.217  21.673 -19.884  0.00  0.00     0.031 A 
ATOM     10  C   UNL d   1      33.225  19.719 -22.964  0.00  0.00     0.035 A 
ATOM     11  C   UNL d   1      33.218  18.700 -21.667  0.00  0.00     0.084 A 
ATOM     12  O   UNL d   1      33.213  19.277 -20.170  0.00  0.00    -0.266 OA
ATOM     13  C   UNL d   1      33.220  18.423 -22.423  0.00  0.00     0.019 A 
ATOM     14  C   UNL d   1      33.224  18.932 -23.072  0.00  0.00     0.005 A 
ATOM     15  C   UNL d   1      33.229  20.244 -23.618  0.00  0.00     0.003 C 
ENDROOT
BRANCH   8  16
ATOM     16  C   UNL d   1      33.222  22.983 -20.420  0.00  0.00     0.344 C 
ATOM     17  O   UNL d   1      33.214  23.480 -21.073  0.00  0.00    -0.249 OA
ATOM     18  N   UNL d   1      33.231  23.292 -19.644  0.00  0.00    -0.359 NA
BRANCH  18  19
ATOM     19  C   UNL d   1      33.241  23.608 -18.874  0.00  0.00     0.184 C 
BRANCH  19  20
ATOM     20  C   UNL d   1      33.236  23.097 -18.210  0.00  0.00     0.116 C 
BRANCH  20  21
ATOM     21  N   UNL d   1      32.755  23.281 -17.551  0.00  0.00    -0.297 N 
ATOM     22  C   UNL d   1      32.115  23.684 -17.196  0.00  0.00     0.107 A 
ATOM     23  C   UNL d   1      31.948  23.571 -16.382  0.00  0.00     0.142 A 
ATOM     24  O   UNL d   1      32.428  23.051 -15.923  0.00  0.00    -0.300 OA
ATOM     25  C   UNL d   1      33.073  22.645 -16.282  0.00  0.00     0.142 A 
ATOM     26  C   UNL d   1      33.237  22.761 -17.096  0.00  0.00     0.107 A 
ENDBRANCH  20  21
ENDBRANCH  19  20
ENDBRANCH  18  19
ENDBRANCH   8  16
BRANCH   7  27
ATOM     27  C   UNL d   1      33.227  22.392 -21.929  0.00  0.00     0.084 C 
BRANCH  27  28
ATOM     28  C   UNL d   1      32.511  22.618 -22.287  0.00  0.00     0.045 C 
BRANCH  28  29
ATOM     29  C   UNL d   1      32.510  23.225 -22.858  0.00  0.00     0.118 C 
BRANCH  29  30
ATOM     30  O   UNL d   1      32.030  23.152 -23.533  0.00  0.00    -0.326 OA
ATOM     31  C   UNL d   1      32.109  23.699 -24.163  0.00  0.00     0.181 C 
ENDBRANCH  29  30
ENDBRANCH  28  29
ENDBRANCH  27  28
ENDBRANCH   7  27
TORSDOF 8
ENDMDL
