MODEL 1
REMARK VINA RESULT:      -2.5      0.000      0.000
REMARK  7 active torsions:
REMARK  status: ('A' for Active; 'I' for Inactive)
REMARK    1  A    between atoms: N_2  and  C_1 
REMARK    2  A    between atoms: S_4  and  C_3 
REMARK    3  A    between atoms: C_6  and  S_4 
REMARK    4  A    between atoms: C_5  and  C_8 
REMARK    5  A    between atoms: C_9  and  C_6 
REMARK    6  A    between atoms: O_14  and  C_9 
REMARK    7  A    between atoms: C_12  and  O_14 
ROOT
ATOM      1  S   UNL d   1      32.989  19.640 -23.230  0.00  0.00     0.096 S 
ATOM      2  O   UNL d   1      33.241  20.036 -23.900  0.00  0.00    -0.247 OA
ENDROOT
BRANCH   1   3
ATOM      3  C   UNL d   1      32.963  18.812 -23.226  0.00  0.00     0.082 A 
ATOM      4  C   UNL d   1      32.754  18.392 -23.921  0.00  0.00     0.135 A 
ATOM      5  C   UNL d   1      32.731  17.568 -23.905  0.00  0.00     0.028 A 
ATOM      6  C   UNL d   1      32.911  17.151 -23.217  0.00  0.00     0.073 A 
ATOM      7  C   UNL d   1      33.118  17.568 -22.529  0.00  0.00     0.005 A 
ATOM      8  C   UNL d   1      33.144  18.398 -22.534  0.00  0.00     0.011 A 
BRANCH   4   9
ATOM      9  N   UNL d   1      32.574  18.809 -24.609  0.00  0.00    -0.113 N 
ATOM     10  O   UNL d   1      31.776  18.940 -24.813  0.00  0.00    -0.532 OA
ATOM     11  O   UNL d   1      33.182  19.097 -25.096  0.00  0.00    -0.532 OA
ENDBRANCH   4   9
BRANCH   6  12
ATOM     12  C   UNL d   1      32.888  16.327 -23.201  0.00  0.00     0.419 C 
ATOM     13  F   UNL d   1      32.495  15.784 -23.760  0.00  0.00    -0.166 F 
ATOM     14  F   UNL d   1      32.860  15.573 -23.197  0.00  0.00    -0.166 F 
ATOM     15  F   UNL d   1      33.240  15.769 -22.637  0.00  0.00    -0.166 F 
ENDBRANCH   6  12
ENDBRANCH   1   3
BRANCH   1  16
ATOM     16  C   UNL d   1      32.762  20.061 -22.557  0.00  0.00     0.137 C 
BRANCH  16  17
ATOM     17  C   UNL d   1      33.076  20.814 -22.417  0.00  0.00     0.309 C 
ATOM     18  O   UNL d   1      33.235  21.317 -23.051  0.00  0.00    -0.258 OA
BRANCH  17  19
ATOM     19  O   UNL d   1      33.228  21.060 -21.644  0.00  0.00    -0.273 OA
BRANCH  19  20
ATOM     20  C   UNL d   1      32.945  21.649 -21.402  0.00  0.00     0.103 A 
ATOM     21  C   UNL d   1      32.865  22.204 -21.817  0.00  0.00     0.025 A 
ATOM     22  C   UNL d   1      32.579  22.800 -21.576  0.00  0.00     0.002 A 
ATOM     23  C   UNL d   1      32.499  23.354 -21.992  0.00  0.00     0.000 C 
ATOM     24  C   UNL d   1      32.373  22.830 -20.905  0.00  0.00     0.000 A 
ATOM     25  C   UNL d   1      32.454  22.265 -20.477  0.00  0.00     0.002 A 
ATOM     26  C   UNL d   1      32.739  21.680 -20.731  0.00  0.00     0.025 A 
ATOM     27  C   UNL d   1      32.244  22.297 -19.795  0.00  0.00     0.000 C 
ENDBRANCH  19  20
ENDBRANCH  17  19
ENDBRANCH  16  17
ENDBRANCH   1  16
TORSDOF 7
ENDMDL
MODEL 2
REMARK VINA RESULT:      -1.4      3.387      5.431
REMARK  7 active torsions:
REMARK  status: ('A' for Active; 'I' for Inactive)
REMARK    1  A    between atoms: N_2  and  C_1 
REMARK    2  A    between atoms: S_4  and  C_3 
REMARK    3  A    between atoms: C_6  and  S_4 
REMARK    4  A    between atoms: C_5  and  C_8 
REMARK    5  A    between atoms: C_9  and  C_6 
REMARK    6  A    between atoms: O_14  and  C_9 
REMARK    7  A    between atoms: C_12  and  O_14 
ROOT
ATOM      1  S   UNL d   1      32.597  21.511 -21.266  0.00  0.00     0.096 S 
ATOM      2  O   UNL d   1      31.850  21.497 -21.602  0.00  0.00    -0.247 OA
ENDROOT
BRANCH   1   3
ATOM      3  C   UNL d   1      32.705  21.856 -20.521  0.00  0.00     0.082 A 
ATOM      4  C   UNL d   1      32.475  22.650 -20.384  0.00  0.00     0.135 A 
ATOM      5  C   UNL d   1      32.588  22.983 -19.638  0.00  0.00     0.028 A 
ATOM      6  C   UNL d   1      32.925  22.546 -19.025  0.00  0.00     0.073 A 
ATOM      7  C   UNL d   1      33.153  21.760 -19.161  0.00  0.00     0.005 A 
ATOM      8  C   UNL d   1      33.043  21.415 -19.909  0.00  0.00     0.011 A 
BRANCH   4   9
ATOM      9  N   UNL d   1      32.138  23.087 -20.997  0.00  0.00    -0.113 N 
ATOM     10  O   UNL d   1      32.626  23.392 -21.600  0.00  0.00    -0.532 OA
ATOM     11  O   UNL d   1      31.318  23.223 -21.014  0.00  0.00    -0.532 OA
ENDBRANCH   4   9
BRANCH   6  12
ATOM     12  C   UNL d   1      33.038  22.878 -18.279  0.00  0.00     0.419 C 
ATOM     13  F   UNL d   1      33.033  22.482 -17.502  0.00  0.00    -0.166 F 
ATOM     14  F   UNL d   1      33.140  23.170 -17.591  0.00  0.00    -0.166 F 
ATOM     15  F   UNL d   1      33.192  23.702 -18.051  0.00  0.00    -0.166 F 
ENDBRANCH   6  12
ENDBRANCH   1   3
BRANCH   1  16
ATOM     16  C   UNL d   1      33.240  21.185 -21.665  0.00  0.00     0.137 C 
BRANCH  16  17
ATOM     17  C   UNL d   1      33.114  20.696 -22.321  0.00  0.00     0.309 C 
ATOM     18  O   UNL d   1      32.864  21.024 -23.036  0.00  0.00    -0.258 OA
BRANCH  17  19
ATOM     19  O   UNL d   1      33.237  19.882 -22.260  0.00  0.00    -0.273 OA
BRANCH  19  20
ATOM     20  C   UNL d   1      33.046  19.459 -22.780  0.00  0.00     0.103 A 
ATOM     21  C   UNL d   1      32.742  18.845 -22.646  0.00  0.00     0.025 A 
ATOM     22  C   UNL d   1      32.549  18.415 -23.169  0.00  0.00     0.002 A 
ATOM     23  C   UNL d   1      32.244  17.801 -23.035  0.00  0.00     0.000 C 
ATOM     24  C   UNL d   1      32.666  18.612 -23.832  0.00  0.00     0.000 A 
ATOM     25  C   UNL d   1      32.977  19.239 -23.973  0.00  0.00     0.002 A 
ATOM     26  C   UNL d   1      33.164  19.656 -23.444  0.00  0.00     0.025 A 
ATOM     27  C   UNL d   1      33.096  19.439 -24.648  0.00  0.00     0.000 C 
ENDBRANCH  19  20
ENDBRANCH  17  19
ENDBRANCH  16  17
ENDBRANCH   1  16
TORSDOF 7
ENDMDL
MODEL 3
REMARK VINA RESULT:      -0.4      2.709      5.059
REMARK  7 active torsions:
REMARK  status: ('A' for Active; 'I' for Inactive)
REMARK    1  A    between atoms: N_2  and  C_1 
REMARK    2  A    between atoms: S_4  and  C_3 
REMARK    3  A    between atoms: C_6  and  S_4 
REMARK    4  A    between atoms: C_5  and  C_8 
REMARK    5  A    between atoms: C_9  and  C_6 
REMARK    6  A    between atoms: O_14  and  C_9 
REMARK    7  A    between atoms: C_12  and  O_14 
ROOT
ATOM      1  S   UNL d   1      33.153  20.014 -22.826  0.00  0.00     0.096 S 
ATOM      2  O   UNL d   1      33.187  20.251 -23.608  0.00  0.00    -0.247 OA
ENDROOT
BRANCH   1   3
ATOM      3  C   UNL d   1      33.029  20.576 -22.231  0.00  0.00     0.082 A 
ATOM      4  C   UNL d   1      32.811  21.361 -22.428  0.00  0.00     0.135 A 
ATOM      5  C   UNL d   1      32.691  21.911 -21.826  0.00  0.00     0.028 A 
ATOM      6  C   UNL d   1      32.781  21.701 -21.034  0.00  0.00     0.073 A 
ATOM      7  C   UNL d   1      32.997  20.924 -20.839  0.00  0.00     0.005 A 
ATOM      8  C   UNL d   1      33.121  20.361 -21.437  0.00  0.00     0.011 A 
BRANCH   4   9
ATOM      9  N   UNL d   1      32.721  21.570 -23.220  0.00  0.00    -0.113 N 
ATOM     10  O   UNL d   1      32.102  21.232 -23.666  0.00  0.00    -0.532 OA
ATOM     11  O   UNL d   1      33.241  22.114 -23.572  0.00  0.00    -0.532 OA
ENDBRANCH   4   9
BRANCH   6  12
ATOM     12  C   UNL d   1      32.661  22.252 -20.432  0.00  0.00     0.419 C 
ATOM     13  F   UNL d   1      33.240  22.793 -20.067  0.00  0.00    -0.166 F 
ATOM     14  F   UNL d   1      32.563  22.760 -19.882  0.00  0.00    -0.166 F 
ATOM     15  F   UNL d   1      31.938  22.453 -19.993  0.00  0.00    -0.166 F 
ENDBRANCH   6  12
ENDBRANCH   1   3
BRANCH   1  16
ATOM     16  C   UNL d   1      33.241  19.218 -22.627  0.00  0.00     0.137 C 
BRANCH  16  17
ATOM     17  C   UNL d   1      32.979  18.631 -23.150  0.00  0.00     0.309 C 
ATOM     18  O   UNL d   1      32.993  18.770 -23.963  0.00  0.00    -0.258 OA
BRANCH  17  19
ATOM     19  O   UNL d   1      32.705  17.910 -22.857  0.00  0.00    -0.273 OA
BRANCH  19  20
ATOM     20  C   UNL d   1      32.480  17.417 -23.295  0.00  0.00     0.103 A 
ATOM     21  C   UNL d   1      32.797  16.796 -23.326  0.00  0.00     0.025 A 
ATOM     22  C   UNL d   1      32.573  16.296 -23.768  0.00  0.00     0.002 A 
ATOM     23  C   UNL d   1      32.890  15.675 -23.799  0.00  0.00     0.000 C 
ATOM     24  C   UNL d   1      32.020  16.429 -24.180  0.00  0.00     0.000 A 
ATOM     25  C   UNL d   1      31.693  17.063 -24.151  0.00  0.00     0.002 A 
ATOM     26  C   UNL d   1      31.927  17.550 -23.708  0.00  0.00     0.025 A 
ATOM     27  C   UNL d   1      31.132  17.198 -24.571  0.00  0.00     0.000 C 
ENDBRANCH  19  20
ENDBRANCH  17  19
ENDBRANCH  16  17
ENDBRANCH   1  16
TORSDOF 7
ENDMDL
