MODEL 1
REMARK VINA RESULT:      -0.9      0.000      0.000
REMARK  4 active torsions:
REMARK  status: ('A' for Active; 'I' for Inactive)
REMARK    1  A    between atoms: N_8  and  C_1 
REMARK    2  A    between atoms: C_12  and  C_2 
REMARK    3  A    between atoms: C_4  and  C_10 
REMARK       I    between atoms: C_10  and  N_8 
REMARK       I    between atoms: C_14  and  N_11 
REMARK    4  A    between atoms: O_22  and  C_12 
ROOT
ATOM      1  C   UNL d   1      32.823  21.022 -21.122  0.00  0.00     0.119 A 
ATOM      2  C   UNL d   1      32.656  21.230 -21.900  0.00  0.00     0.088 A 
ATOM      3  C   UNL d   1      32.859  19.913 -21.860  0.00  0.00     0.049 A 
ATOM      4  C   UNL d   1      32.679  20.540 -22.358  0.00  0.00     0.016 A 
ATOM      5  S   UNL d   1      32.949  20.201 -21.099  0.00  0.00    -0.066 SA
ATOM      6  N   UNL d   1      32.799  19.014 -22.973  0.00  0.00    -0.272 N 
ATOM      7  C   UNL d   1      32.919  19.143 -22.177  0.00  0.00     0.089 A 
ATOM      8  C   UNL d   1      32.856  18.253 -23.298  0.00  0.00     0.265 C 
ATOM      9  C   UNL d   1      32.557  20.415 -23.167  0.00  0.00     0.020 A 
ATOM     10  C   UNL d   1      32.617  19.655 -23.472  0.00  0.00     0.083 A 
ATOM     11  O   UNL d   1      33.036  17.619 -22.804  0.00  0.00    -0.267 OA
ATOM     12  C   UNL d   1      32.736  18.122 -24.096  0.00  0.00     0.066 C 
ENDROOT
BRANCH   1  13
ATOM     13  N   UNL d   1      32.859  21.539 -20.471  0.00  0.00    -0.200 NA
ATOM     14  C   UNL d   1      33.069  21.242 -19.730  0.00  0.00     0.303 C 
ATOM     15  O   UNL d   1      33.241  20.449 -19.627  0.00  0.00    -0.263 OA
BRANCH  14  16
ATOM     16  C   UNL d   1      33.105  21.753 -19.085  0.00  0.00     0.169 A 
ATOM     17  N   UNL d   1      33.107  22.586 -19.114  0.00  0.00    -0.234 NA
ATOM     18  C   UNL d   1      33.150  22.856 -18.319  0.00  0.00     0.088 A 
ATOM     19  C   UNL d   1      33.170  23.615 -17.998  0.00  0.00     0.020 A 
ATOM     20  C   UNL d   1      33.172  22.181 -17.838  0.00  0.00     0.049 A 
ATOM     21  C   UNL d   1      33.214  23.700 -17.175  0.00  0.00     0.002 A 
ATOM     22  C   UNL d   1      33.236  23.028 -16.690  0.00  0.00     0.001 A 
ATOM     23  C   UNL d   1      33.216  22.279 -17.019  0.00  0.00     0.008 A 
ATOM     24  S   UNL d   1      33.144  21.520 -18.317  0.00  0.00    -0.062 SA
ENDBRANCH  14  16
ENDBRANCH   1  13
BRANCH   2  25
ATOM     25  C   UNL d   1      32.497  21.984 -22.170  0.00  0.00     0.298 C 
ATOM     26  O   UNL d   1      31.769  22.331 -22.010  0.00  0.00    -0.259 OA
BRANCH  25  27
ATOM     27  O   UNL d   1      33.076  22.401 -22.610  0.00  0.00    -0.296 OA
ATOM     28  C   UNL d   1      32.878  23.104 -22.992  0.00  0.00     0.185 C 
ENDBRANCH  25  27
ENDBRANCH   2  25
TORSDOF 4
ENDMDL
