MODEL 1
REMARK VINA RESULT:      -3.3      0.000      0.000
REMARK  3 active torsions:
REMARK  status: ('A' for Active; 'I' for Inactive)
REMARK       I    between atoms: N_3  and  C_8 
REMARK    1  A    between atoms: S_12  and  C_6 
REMARK    2  A    between atoms: C_8  and  C_14 
REMARK    3  A    between atoms: C_14  and  S_12 
ROOT
ATOM      1  S   UNL d   1      32.821  18.684 -22.901  0.00  0.00    -0.060 SA
ENDROOT
BRANCH   1   2
ATOM      2  C   UNL d   1      32.953  19.471 -23.100  0.00  0.00     0.137 A 
ATOM      3  C   UNL d   1      32.933  20.052 -22.526  0.00  0.00     0.141 A 
ATOM      4  O   UNL d   1      32.796  20.022 -21.715  0.00  0.00    -0.303 OA
ATOM      5  C   UNL d   1      33.066  20.836 -22.736  0.00  0.00     0.110 A 
ATOM      6  C   UNL d   1      32.846  20.790 -21.429  0.00  0.00     0.102 A 
ATOM      7  C   UNL d   1      32.760  21.106 -20.665  0.00  0.00     0.025 A 
ATOM      8  C   UNL d   1      33.012  21.289 -22.057  0.00  0.00     0.043 A 
ATOM      9  C   UNL d   1      32.842  21.913 -20.542  0.00  0.00     0.002 A 
ATOM     10  C   UNL d   1      33.008  22.411 -21.170  0.00  0.00     0.000 A 
ATOM     11  C   UNL d   1      33.094  22.103 -21.929  0.00  0.00     0.004 A 
ATOM     12  N   UNL d   1      33.219  21.036 -23.517  0.00  0.00    -0.222 NA
ATOM     13  C   UNL d   1      33.240  20.455 -24.090  0.00  0.00     0.200 A 
ATOM     14  N   UNL d   1      33.108  19.667 -23.892  0.00  0.00    -0.215 NA
ENDBRANCH   1   2
BRANCH   1  15
ATOM     15  C   UNL d   1      32.529  18.164 -23.454  0.00  0.00     0.098 C 
BRANCH  15  16
ATOM     16  C   UNL d   1      32.610  17.344 -23.350  0.00  0.00     0.271 C 
ATOM     17  N   UNL d   1      32.074  16.822 -23.706  0.00  0.00    -0.273 N 
ATOM     18  C   UNL d   1      31.459  17.112 -24.163  0.00  0.00     0.067 A 
ATOM     19  C   UNL d   1      32.157  16.000 -23.600  0.00  0.00     0.083 A 
ATOM     20  C   UNL d   1      30.922  16.596 -24.519  0.00  0.00     0.016 A 
ATOM     21  C   UNL d   1      31.377  17.928 -24.267  0.00  0.00     0.018 A 
ATOM     22  C   UNL d   1      30.297  16.883 -24.984  0.00  0.00     0.001 A 
ATOM     23  C   UNL d   1      31.004  15.781 -24.414  0.00  0.00     0.003 A 
ATOM     24  C   UNL d   1      30.223  17.704 -25.083  0.00  0.00     0.000 A 
ATOM     25  C   UNL d   1      30.756  18.223 -24.729  0.00  0.00     0.002 A 
ATOM     26  C   UNL d   1      31.617  15.486 -23.958  0.00  0.00     0.019 A 
ATOM     27  O   UNL d   1      33.231  17.050 -22.888  0.00  0.00    -0.266 OA
ENDBRANCH  15  16
ENDBRANCH   1  15
TORSDOF 3
ENDMDL
MODEL 2
REMARK VINA RESULT:      -2.5      1.071      5.023
REMARK  3 active torsions:
REMARK  status: ('A' for Active; 'I' for Inactive)
REMARK       I    between atoms: N_3  and  C_8 
REMARK    1  A    between atoms: S_12  and  C_6 
REMARK    2  A    between atoms: C_8  and  C_14 
REMARK    3  A    between atoms: C_14  and  S_12 
ROOT
ATOM      1  S   UNL d   1      32.496  19.307 -23.882  0.00  0.00    -0.060 SA
ENDROOT
BRANCH   1   2
ATOM      2  C   UNL d   1      32.526  18.510 -23.680  0.00  0.00     0.137 A 
ATOM      3  C   UNL d   1      31.894  18.017 -23.840  0.00  0.00     0.141 A 
ATOM      4  O   UNL d   1      31.163  18.155 -24.192  0.00  0.00    -0.303 OA
ATOM      5  C   UNL d   1      31.936  17.223 -23.634  0.00  0.00     0.110 A 
ATOM      6  C   UNL d   1      30.757  17.442 -24.201  0.00  0.00     0.102 A 
ATOM      7  C   UNL d   1      30.002  17.234 -24.481  0.00  0.00     0.025 A 
ATOM      8  C   UNL d   1      31.232  16.870 -23.858  0.00  0.00     0.043 A 
ATOM      9  C   UNL d   1      29.736  16.462 -24.415  0.00  0.00     0.002 A 
ATOM     10  C   UNL d   1      30.212  15.890 -24.072  0.00  0.00     0.000 A 
ATOM     11  C   UNL d   1      30.961  16.090 -23.793  0.00  0.00     0.004 A 
ATOM     12  N   UNL d   1      32.607  16.922 -23.270  0.00  0.00    -0.222 NA
ATOM     13  C   UNL d   1      33.239  17.415 -23.111  0.00  0.00     0.200 A 
ATOM     14  N   UNL d   1      33.209  18.212 -23.312  0.00  0.00    -0.215 NA
ENDBRANCH   1   2
BRANCH   1  15
ATOM     15  C   UNL d   1      32.860  19.863 -23.414  0.00  0.00     0.098 C 
BRANCH  15  16
ATOM     16  C   UNL d   1      33.044  20.616 -23.714  0.00  0.00     0.271 C 
ATOM     17  N   UNL d   1      33.050  21.276 -23.213  0.00  0.00    -0.273 N 
ATOM     18  C   UNL d   1      32.875  21.190 -22.418  0.00  0.00     0.067 A 
ATOM     19  C   UNL d   1      33.234  22.029 -23.516  0.00  0.00     0.083 A 
ATOM     20  C   UNL d   1      32.880  21.845 -21.915  0.00  0.00     0.016 A 
ATOM     21  C   UNL d   1      32.693  20.442 -22.117  0.00  0.00     0.018 A 
ATOM     22  C   UNL d   1      32.704  21.765 -21.107  0.00  0.00     0.001 A 
ATOM     23  C   UNL d   1      33.063  22.592 -22.215  0.00  0.00     0.003 A 
ATOM     24  C   UNL d   1      32.522  21.009 -20.815  0.00  0.00     0.000 A 
ATOM     25  C   UNL d   1      32.516  20.353 -21.313  0.00  0.00     0.002 A 
ATOM     26  C   UNL d   1      33.238  22.683 -23.009  0.00  0.00     0.019 A 
ATOM     27  O   UNL d   1      33.220  20.703 -24.518  0.00  0.00    -0.266 OA
ENDBRANCH  15  16
ENDBRANCH   1  15
TORSDOF 3
ENDMDL
