MODEL 1
REMARK VINA RESULT:      -9.3      0.000      0.000
REMARK  5 active torsions:
REMARK  status: ('A' for Active; 'I' for Inactive)
REMARK    1  A    between atoms: C_2  and  S_1 
REMARK    2  A    between atoms: N_8  and  S_1 
REMARK    3  A    between atoms: C_3  and  C_14 
REMARK    4  A    between atoms: C_17  and  N_8 
REMARK    5  A    between atoms: C_23  and  C_11 
ROOT
ATOM      1  C   UNL d   1      50.326  34.295  52.667  0.00  0.00     0.024 A 
ATOM      2  C   UNL d   1      51.699  33.364  52.652  0.00  0.00     0.094 A 
ATOM      3  C   UNL d   1      50.970  34.522  52.199  0.00  0.00     0.004 A 
ATOM      4  C   UNL d   1      50.378  33.609  53.119  0.00  0.00     0.004 A 
ATOM      5  C   UNL d   1      51.054  33.150  53.112  0.00  0.00     0.020 A 
ATOM      6  C   UNL d   1      51.651  34.063  52.189  0.00  0.00     0.020 A 
ENDROOT
BRANCH   2   7
ATOM      7  N   UNL d   1      52.375  32.908  52.642  0.00  0.00    -0.158 NA
BRANCH   7   8
ATOM      8  S   UNL d   1      52.889  32.917  53.287  0.00  0.00     0.291 S 
ATOM      9  O   UNL d   1      53.197  33.626  53.026  0.00  0.00    -0.198 OA
ATOM     10  O   UNL d   1      52.580  32.208  53.547  0.00  0.00    -0.198 OA
BRANCH   8  11
ATOM     11  C   UNL d   1      53.396  32.919  53.930  0.00  0.00     0.135 A 
ATOM     12  S   UNL d   1      53.781  33.573  54.264  0.00  0.00    -0.074 SA
ATOM     13  C   UNL d   1      54.235  33.316  54.901  0.00  0.00     0.030 A 
ATOM     14  C   UNL d   1      54.132  32.496  54.963  0.00  0.00     0.008 A 
ATOM     15  C   UNL d   1      53.622  32.246  54.375  0.00  0.00     0.020 A 
BRANCH  13  16
ATOM     16  C   UNL d   1      54.699  33.781  55.379  0.00  0.00     0.006 C 
ATOM     17  C   UNL d   1      55.508  33.863  55.214  0.00  0.00     0.001 C 
ENDBRANCH  13  16
ENDBRANCH   8  11
ENDBRANCH   7   8
ENDBRANCH   2   7
BRANCH   1  18
ATOM     18  C   UNL d   1      49.643  34.759  52.674  0.00  0.00     0.112 A 
ATOM     19  S   UNL d   1      49.094  34.806  52.067  0.00  0.00    -0.047 SA
ATOM     20  C   UNL d   1      48.489  35.338  52.303  0.00  0.00     0.130 A 
ATOM     21  N   UNL d   1      47.804  35.599  51.929  0.00  0.00    -0.236 NA
ATOM     22  C   UNL d   1      48.685  35.612  53.065  0.00  0.00     0.106 A 
ATOM     23  C   UNL d   1      47.310  36.139  52.317  0.00  0.00     0.100 A 
ATOM     24  C   UNL d   1      47.501  36.414  53.075  0.00  0.00     0.022 A 
ATOM     25  C   UNL d   1      48.185  36.151  53.446  0.00  0.00     0.023 A 
ATOM     26  N   UNL d   1      49.402  35.251  53.294  0.00  0.00    -0.237 NA
ENDBRANCH   1  18
TORSDOF 5
ENDMDL
MODEL 2
REMARK VINA RESULT:      -9.2      1.451      1.868
REMARK  5 active torsions:
REMARK  status: ('A' for Active; 'I' for Inactive)
REMARK    1  A    between atoms: C_2  and  S_1 
REMARK    2  A    between atoms: N_8  and  S_1 
REMARK    3  A    between atoms: C_3  and  C_14 
REMARK    4  A    between atoms: C_17  and  N_8 
REMARK    5  A    between atoms: C_23  and  C_11 
ROOT
ATOM      1  C   UNL d   1      50.576  34.306  52.652  0.00  0.00     0.024 A 
ATOM      2  C   UNL d   1      52.057  33.631  52.973  0.00  0.00     0.094 A 
ATOM      3  C   UNL d   1      51.176  34.348  52.085  0.00  0.00     0.004 A 
ATOM      4  C   UNL d   1      50.724  33.929  53.370  0.00  0.00     0.004 A 
ATOM      5  C   UNL d   1      51.453  33.597  53.527  0.00  0.00     0.020 A 
ATOM      6  C   UNL d   1      51.910  34.015  52.240  0.00  0.00     0.020 A 
ENDROOT
BRANCH   2   7
ATOM      7  N   UNL d   1      52.787  33.300  53.127  0.00  0.00    -0.158 NA
BRANCH   7   8
ATOM      8  S   UNL d   1      52.866  32.482  53.180  0.00  0.00     0.291 S 
ATOM      9  O   UNL d   1      52.913  32.544  53.993  0.00  0.00    -0.198 OA
ATOM     10  O   UNL d   1      52.819  32.421  52.368  0.00  0.00    -0.198 OA
BRANCH   8  11
ATOM     11  C   UNL d   1      52.945  31.668  53.226  0.00  0.00     0.135 A 
ATOM     12  S   UNL d   1      53.415  31.237  53.756  0.00  0.00    -0.074 SA
ATOM     13  C   UNL d   1      53.322  30.434  53.600  0.00  0.00     0.030 A 
ATOM     14  C   UNL d   1      52.790  30.365  52.968  0.00  0.00     0.008 A 
ATOM     15  C   UNL d   1      52.555  31.112  52.734  0.00  0.00     0.020 A 
BRANCH  13  16
ATOM     16  C   UNL d   1      53.686  29.824  53.994  0.00  0.00     0.006 C 
ATOM     17  C   UNL d   1      53.238  29.170  54.243  0.00  0.00     0.001 C 
ENDBRANCH  13  16
ENDBRANCH   8  11
ENDBRANCH   7   8
ENDBRANCH   2   7
BRANCH   1  18
ATOM     18  C   UNL d   1      49.839  34.642  52.493  0.00  0.00     0.112 A 
ATOM     19  S   UNL d   1      49.377  34.485  51.833  0.00  0.00    -0.047 SA
ATOM     20  C   UNL d   1      48.676  34.942  51.891  0.00  0.00     0.130 A 
ATOM     21  N   UNL d   1      48.019  35.013  51.400  0.00  0.00    -0.236 NA
ATOM     22  C   UNL d   1      48.722  35.379  52.599  0.00  0.00     0.106 A 
ATOM     23  C   UNL d   1      47.403  35.523  51.617  0.00  0.00     0.100 A 
ATOM     24  C   UNL d   1      47.446  35.959  52.321  0.00  0.00     0.022 A 
ATOM     25  C   UNL d   1      48.103  35.886  52.809  0.00  0.00     0.023 A 
ATOM     26  N   UNL d   1      49.445  35.191  52.972  0.00  0.00    -0.237 NA
ENDBRANCH   1  18
TORSDOF 5
ENDMDL
MODEL 3
REMARK VINA RESULT:      -7.7      1.551      5.658
REMARK  5 active torsions:
REMARK  status: ('A' for Active; 'I' for Inactive)
REMARK    1  A    between atoms: C_2  and  S_1 
REMARK    2  A    between atoms: N_8  and  S_1 
REMARK    3  A    between atoms: C_3  and  C_14 
REMARK    4  A    between atoms: C_17  and  N_8 
REMARK    5  A    between atoms: C_23  and  C_11 
ROOT
ATOM      1  C   UNL d   1      51.964  33.898  53.260  0.00  0.00     0.024 A 
ATOM      2  C   UNL d   1      50.531  34.032  52.435  0.00  0.00     0.094 A 
ATOM      3  C   UNL d   1      51.316  33.437  53.488  0.00  0.00     0.004 A 
ATOM      4  C   UNL d   1      51.887  34.417  52.626  0.00  0.00     0.004 A 
ATOM      5  C   UNL d   1      51.181  34.483  52.219  0.00  0.00     0.020 A 
ATOM      6  C   UNL d   1      50.605  33.500  53.082  0.00  0.00     0.020 A 
ENDROOT
BRANCH   2   7
ATOM      7  N   UNL d   1      49.825  34.095  52.031  0.00  0.00    -0.158 NA
BRANCH   7   8
ATOM      8  S   UNL d   1      49.269  34.659  52.258  0.00  0.00     0.291 S 
ATOM      9  O   UNL d   1      49.317  34.392  53.027  0.00  0.00    -0.198 OA
ATOM     10  O   UNL d   1      49.221  34.926  51.488  0.00  0.00    -0.198 OA
BRANCH   8  11
ATOM     11  C   UNL d   1      48.716  35.223  52.476  0.00  0.00     0.135 A 
ATOM     12  S   UNL d   1      48.078  35.502  52.026  0.00  0.00    -0.074 SA
ATOM     13  C   UNL d   1      47.669  36.066  52.466  0.00  0.00     0.030 A 
ATOM     14  C   UNL d   1      48.057  36.138  53.195  0.00  0.00     0.008 A 
ATOM     15  C   UNL d   1      48.696  35.628  53.210  0.00  0.00     0.020 A 
BRANCH  13  16
ATOM     16  C   UNL d   1      47.009  36.474  52.228  0.00  0.00     0.006 C 
ATOM     17  C   UNL d   1      46.446  36.709  52.790  0.00  0.00     0.001 C 
ENDBRANCH  13  16
ENDBRANCH   8  11
ENDBRANCH   7   8
ENDBRANCH   2   7
BRANCH   1  18
ATOM     18  C   UNL d   1      52.677  33.831  53.671  0.00  0.00     0.112 A 
ATOM     19  S   UNL d   1      52.910  34.304  54.299  0.00  0.00    -0.047 SA
ATOM     20  C   UNL d   1      53.669  34.048  54.551  0.00  0.00     0.130 A 
ATOM     21  N   UNL d   1      54.171  34.309  55.148  0.00  0.00    -0.236 NA
ATOM     22  C   UNL d   1      53.889  33.410  54.062  0.00  0.00     0.106 A 
ATOM     23  C   UNL d   1      54.900  33.932  55.259  0.00  0.00     0.100 A 
ATOM     24  C   UNL d   1      55.123  33.297  54.775  0.00  0.00     0.022 A 
ATOM     25  C   UNL d   1      54.619  33.038  54.180  0.00  0.00     0.023 A 
ATOM     26  N   UNL d   1      53.272  33.277  53.516  0.00  0.00    -0.237 NA
ENDBRANCH   1  18
TORSDOF 5
ENDMDL
MODEL 4
REMARK VINA RESULT:      -6.5      2.725      6.336
REMARK  5 active torsions:
REMARK  status: ('A' for Active; 'I' for Inactive)
REMARK    1  A    between atoms: C_2  and  S_1 
REMARK    2  A    between atoms: N_8  and  S_1 
REMARK    3  A    between atoms: C_3  and  C_14 
REMARK    4  A    between atoms: C_17  and  N_8 
REMARK    5  A    between atoms: C_23  and  C_11 
ROOT
ATOM      1  C   UNL d   1      49.312  34.969  52.490  0.00  0.00     0.024 A 
ATOM      2  C   UNL d   1      47.887  35.713  52.081  0.00  0.00     0.094 A 
ATOM      3  C   UNL d   1      48.965  35.507  53.015  0.00  0.00     0.004 A 
ATOM      4  C   UNL d   1      48.943  34.812  51.770  0.00  0.00     0.004 A 
ATOM      5  C   UNL d   1      48.241  35.179  51.569  0.00  0.00     0.020 A 
ATOM      6  C   UNL d   1      48.260  35.877  52.816  0.00  0.00     0.020 A 
ENDROOT
BRANCH   2   7
ATOM      7  N   UNL d   1      47.186  36.081  51.883  0.00  0.00    -0.158 NA
BRANCH   7   8
ATOM      8  S   UNL d   1      46.478  35.832  52.225  0.00  0.00     0.291 S 
ATOM      9  O   UNL d   1      46.549  36.420  52.788  0.00  0.00    -0.198 OA
ATOM     10  O   UNL d   1      46.408  35.246  51.663  0.00  0.00    -0.198 OA
BRANCH   8  11
ATOM     11  C   UNL d   1      45.775  35.580  52.560  0.00  0.00     0.135 A 
ATOM     12  S   UNL d   1      45.548  35.636  53.355  0.00  0.00    -0.074 SA
ATOM     13  C   UNL d   1      44.795  35.312  53.440  0.00  0.00     0.030 A 
ATOM     14  C   UNL d   1      44.553  35.053  52.691  0.00  0.00     0.008 A 
ATOM     15  C   UNL d   1      45.143  35.212  52.149  0.00  0.00     0.020 A 
BRANCH  13  16
ATOM     16  C   UNL d   1      44.371  35.258  54.131  0.00  0.00     0.006 C 
ATOM     17  C   UNL d   1      44.321  34.530  54.526  0.00  0.00     0.001 C 
ENDBRANCH  13  16
ENDBRANCH   8  11
ENDBRANCH   7   8
ENDBRANCH   2   7
BRANCH   1  18
ATOM     18  C   UNL d   1      50.021  34.599  52.693  0.00  0.00     0.112 A 
ATOM     19  S   UNL d   1      50.109  33.803  52.869  0.00  0.00    -0.047 SA
ATOM     20  C   UNL d   1      50.917  33.662  53.044  0.00  0.00     0.130 A 
ATOM     21  N   UNL d   1      51.327  32.980  53.256  0.00  0.00    -0.236 NA
ATOM     22  C   UNL d   1      51.317  34.389  52.971  0.00  0.00     0.106 A 
ATOM     23  C   UNL d   1      52.142  33.024  53.395  0.00  0.00     0.100 A 
ATOM     24  C   UNL d   1      52.544  33.746  53.324  0.00  0.00     0.022 A 
ATOM     25  C   UNL d   1      52.131  34.425  53.113  0.00  0.00     0.023 A 
ATOM     26  N   UNL d   1      50.759  34.970  52.753  0.00  0.00    -0.237 NA
ENDBRANCH   1  18
TORSDOF 5
ENDMDL
