MODEL 1
REMARK VINA RESULT:      -7.8      0.000      0.000
REMARK  7 active torsions:
REMARK  status: ('A' for Active; 'I' for Inactive)
REMARK    1  A    between atoms: N_4  and  C_2 
REMARK    2  A    between atoms: C_8  and  C_3 
REMARK       I    between atoms: C_7  and  N_4 
REMARK    3  A    between atoms: C_13  and  C_7 
REMARK    4  A    between atoms: S_11  and  C_16 
REMARK    5  A    between atoms: C_12  and  S_11 
REMARK    6  A    between atoms: C_19  and  C_13 
REMARK    7  A    between atoms: C_16  and  C_19 
ROOT
ATOM      1  N   UNL d   1      51.356  34.067  52.483  0.00  0.00    -0.183 NA
ATOM      2  C   UNL d   1      50.606  34.090  52.839  0.00  0.00     0.281 C 
ATOM      3  O   UNL d   1      50.458  33.689  53.534  0.00  0.00    -0.265 OA
ENDROOT
BRANCH   1   4
ATOM      4  C   UNL d   1      51.957  33.628  52.844  0.00  0.00     0.197 A 
ATOM      5  N   UNL d   1      52.549  33.931  53.336  0.00  0.00    -0.219 NA
ATOM      6  C   UNL d   1      53.026  33.297  53.569  0.00  0.00     0.108 A 
ATOM      7  C   UNL d   1      52.728  32.610  53.221  0.00  0.00     0.059 A 
ATOM      8  S   UNL d   1      52.067  32.810  52.772  0.00  0.00    -0.046 SA
BRANCH   6   9
ATOM      9  C   UNL d   1      53.675  33.344  54.056  0.00  0.00     0.100 A 
ATOM     10  N   UNL d   1      53.577  33.518  54.866  0.00  0.00    -0.242 NA
ATOM     11  C   UNL d   1      54.242  33.565  55.354  0.00  0.00     0.099 A 
ATOM     12  C   UNL d   1      54.995  33.440  55.043  0.00  0.00     0.021 A 
ATOM     13  C   UNL d   1      55.088  33.268  54.240  0.00  0.00     0.003 A 
ATOM     14  C   UNL d   1      54.425  33.220  53.746  0.00  0.00     0.021 A 
ENDBRANCH   6   9
ENDBRANCH   1   4
BRANCH   2  15
ATOM     15  C   UNL d   1      50.005  34.531  52.475  0.00  0.00     0.063 C 
BRANCH  15  16
ATOM     16  C   UNL d   1      49.442  34.920  52.946  0.00  0.00     0.012 C 
BRANCH  16  17
ATOM     17  C   UNL d   1      48.781  35.265  52.599  0.00  0.00     0.036 C 
BRANCH  17  18
ATOM     18  S   UNL d   1      48.372  35.858  52.988  0.00  0.00    -0.086 SA
BRANCH  18  19
ATOM     19  C   UNL d   1      47.613  36.068  52.742  0.00  0.00     0.029 A 
ATOM     20  C   UNL d   1      47.101  36.447  53.268  0.00  0.00     0.005 A 
ATOM     21  C   UNL d   1      46.343  36.658  53.026  0.00  0.00    -0.012 A 
ATOM     22  C   UNL d   1      46.093  36.490  52.258  0.00  0.00     0.026 A 
ATOM     23  C   UNL d   1      46.602  36.112  51.732  0.00  0.00    -0.012 A 
ATOM     24  C   UNL d   1      47.363  35.900  51.974  0.00  0.00     0.005 A 
ENDBRANCH  18  19
ENDBRANCH  17  18
ENDBRANCH  16  17
ENDBRANCH  15  16
ENDBRANCH   2  15
TORSDOF 7
ENDMDL
MODEL 2
REMARK VINA RESULT:      -7.8      1.134      1.650
REMARK  7 active torsions:
REMARK  status: ('A' for Active; 'I' for Inactive)
REMARK    1  A    between atoms: N_4  and  C_2 
REMARK    2  A    between atoms: C_8  and  C_3 
REMARK       I    between atoms: C_7  and  N_4 
REMARK    3  A    between atoms: C_13  and  C_7 
REMARK    4  A    between atoms: S_11  and  C_16 
REMARK    5  A    between atoms: C_12  and  S_11 
REMARK    6  A    between atoms: C_19  and  C_13 
REMARK    7  A    between atoms: C_16  and  C_19 
ROOT
ATOM      1  N   UNL d   1      51.379  34.088  52.474  0.00  0.00    -0.183 NA
ATOM      2  C   UNL d   1      50.629  34.132  52.828  0.00  0.00     0.281 C 
ATOM      3  O   UNL d   1      50.456  33.705  53.501  0.00  0.00    -0.265 OA
ENDROOT
BRANCH   1   4
ATOM      4  C   UNL d   1      51.954  33.601  52.815  0.00  0.00     0.197 A 
ATOM      5  N   UNL d   1      52.023  32.784  52.706  0.00  0.00    -0.219 NA
ATOM      6  C   UNL d   1      52.673  32.529  53.149  0.00  0.00     0.108 A 
ATOM      7  C   UNL d   1      53.000  33.185  53.526  0.00  0.00     0.059 A 
ATOM      8  S   UNL d   1      52.559  33.850  53.323  0.00  0.00    -0.046 SA
BRANCH   6   9
ATOM      9  C   UNL d   1      52.941  31.762  53.201  0.00  0.00     0.100 A 
ATOM     10  N   UNL d   1      52.565  31.159  52.765  0.00  0.00    -0.242 NA
ATOM     11  C   UNL d   1      52.844  30.383  52.824  0.00  0.00     0.099 A 
ATOM     12  C   UNL d   1      53.487  30.208  53.310  0.00  0.00     0.021 A 
ATOM     13  C   UNL d   1      53.855  30.809  53.740  0.00  0.00     0.003 A 
ATOM     14  C   UNL d   1      53.580  31.588  53.685  0.00  0.00     0.021 A 
ENDBRANCH   6   9
ENDBRANCH   1   4
BRANCH   2  15
ATOM     15  C   UNL d   1      50.055  34.622  52.484  0.00  0.00     0.063 C 
BRANCH  15  16
ATOM     16  C   UNL d   1      49.444  34.929  52.957  0.00  0.00     0.012 C 
BRANCH  16  17
ATOM     17  C   UNL d   1      48.777  35.259  52.607  0.00  0.00     0.036 C 
BRANCH  17  18
ATOM     18  S   UNL d   1      48.361  35.852  52.989  0.00  0.00    -0.086 SA
BRANCH  18  19
ATOM     19  C   UNL d   1      47.586  36.024  52.765  0.00  0.00     0.029 A 
ATOM     20  C   UNL d   1      47.029  36.229  53.340  0.00  0.00     0.005 A 
ATOM     21  C   UNL d   1      46.254  36.401  53.120  0.00  0.00    -0.012 A 
ATOM     22  C   UNL d   1      46.033  36.368  52.326  0.00  0.00     0.026 A 
ATOM     23  C   UNL d   1      46.588  36.164  51.752  0.00  0.00    -0.012 A 
ATOM     24  C   UNL d   1      47.365  35.991  51.971  0.00  0.00     0.005 A 
ENDBRANCH  18  19
ENDBRANCH  17  18
ENDBRANCH  16  17
ENDBRANCH  15  16
ENDBRANCH   2  15
TORSDOF 7
ENDMDL
MODEL 3
REMARK VINA RESULT:      -7.1      1.547      6.490
REMARK  7 active torsions:
REMARK  status: ('A' for Active; 'I' for Inactive)
REMARK    1  A    between atoms: N_4  and  C_2 
REMARK    2  A    between atoms: C_8  and  C_3 
REMARK       I    between atoms: C_7  and  N_4 
REMARK    3  A    between atoms: C_13  and  C_7 
REMARK    4  A    between atoms: S_11  and  C_16 
REMARK    5  A    between atoms: C_12  and  S_11 
REMARK    6  A    between atoms: C_19  and  C_13 
REMARK    7  A    between atoms: C_16  and  C_19 
ROOT
ATOM      1  N   UNL d   1      50.102  34.711  51.555  0.00  0.00    -0.183 NA
ATOM      2  C   UNL d   1      50.337  34.293  52.233  0.00  0.00     0.281 C 
ATOM      3  O   UNL d   1      49.786  33.949  52.728  0.00  0.00    -0.265 OA
ENDROOT
BRANCH   1   4
ATOM      4  C   UNL d   1      49.295  34.777  51.385  0.00  0.00     0.197 A 
ATOM      5  N   UNL d   1      48.752  35.253  51.788  0.00  0.00    -0.219 NA
ATOM      6  C   UNL d   1      48.015  35.145  51.431  0.00  0.00     0.108 A 
ATOM      7  C   UNL d   1      48.105  34.605  50.814  0.00  0.00     0.059 A 
ATOM      8  S   UNL d   1      48.895  34.375  50.782  0.00  0.00    -0.046 SA
BRANCH   6   9
ATOM      9  C   UNL d   1      47.321  35.509  51.653  0.00  0.00     0.100 A 
ATOM     10  N   UNL d   1      46.589  35.189  51.414  0.00  0.00    -0.242 NA
ATOM     11  C   UNL d   1      45.890  35.565  51.643  0.00  0.00     0.099 A 
ATOM     12  C   UNL d   1      45.916  36.248  52.104  0.00  0.00     0.021 A 
ATOM     13  C   UNL d   1      46.644  36.561  52.338  0.00  0.00     0.003 A 
ATOM     14  C   UNL d   1      47.348  36.189  52.111  0.00  0.00     0.021 A 
ENDBRANCH   6   9
ENDBRANCH   1   4
BRANCH   2  15
ATOM     15  C   UNL d   1      51.147  34.229  52.401  0.00  0.00     0.063 C 
BRANCH  15  16
ATOM     16  C   UNL d   1      51.400  33.713  53.000  0.00  0.00     0.012 C 
BRANCH  16  17
ATOM     17  C   UNL d   1      52.179  33.733  53.262  0.00  0.00     0.036 C 
BRANCH  17  18
ATOM     18  S   UNL d   1      52.507  33.083  53.637  0.00  0.00    -0.086 SA
BRANCH  18  19
ATOM     19  C   UNL d   1      53.270  33.125  53.946  0.00  0.00     0.029 A 
ATOM     20  C   UNL d   1      53.898  32.778  53.537  0.00  0.00     0.005 A 
ATOM     21  C   UNL d   1      54.662  32.817  53.843  0.00  0.00    -0.012 A 
ATOM     22  C   UNL d   1      54.801  33.204  54.558  0.00  0.00     0.026 A 
ATOM     23  C   UNL d   1      54.176  33.551  54.967  0.00  0.00    -0.012 A 
ATOM     24  C   UNL d   1      53.409  33.512  54.662  0.00  0.00     0.005 A 
ENDBRANCH  18  19
ENDBRANCH  17  18
ENDBRANCH  16  17
ENDBRANCH  15  16
ENDBRANCH   2  15
TORSDOF 7
ENDMDL
MODEL 4
REMARK VINA RESULT:      -5.2     10.601     11.706
REMARK  7 active torsions:
REMARK  status: ('A' for Active; 'I' for Inactive)
REMARK    1  A    between atoms: N_4  and  C_2 
REMARK    2  A    between atoms: C_8  and  C_3 
REMARK       I    between atoms: C_7  and  N_4 
REMARK    3  A    between atoms: C_13  and  C_7 
REMARK    4  A    between atoms: S_11  and  C_16 
REMARK    5  A    between atoms: C_12  and  S_11 
REMARK    6  A    between atoms: C_19  and  C_13 
REMARK    7  A    between atoms: C_16  and  C_19 
ROOT
ATOM      1  N   UNL d   1      45.458  26.998  56.684  0.00  0.00    -0.183 NA
ATOM      2  C   UNL d   1      44.929  26.360  56.633  0.00  0.00     0.281 C 
ATOM      3  O   UNL d   1      44.315  26.280  57.165  0.00  0.00    -0.265 OA
ENDROOT
BRANCH   1   4
ATOM      4  C   UNL d   1      45.355  27.557  57.284  0.00  0.00     0.197 A 
ATOM      5  N   UNL d   1      45.196  28.362  57.174  0.00  0.00    -0.219 NA
ATOM      6  C   UNL d   1      45.136  28.707  57.923  0.00  0.00     0.108 A 
ATOM      7  C   UNL d   1      45.257  28.118  58.488  0.00  0.00     0.059 A 
ATOM      8  S   UNL d   1      45.392  27.406  58.097  0.00  0.00    -0.046 SA
BRANCH   6   9
ATOM      9  C   UNL d   1      44.984  29.492  58.074  0.00  0.00     0.100 A 
ATOM     10  N   UNL d   1      45.227  29.832  58.796  0.00  0.00    -0.242 NA
ATOM     11  C   UNL d   1      45.068  30.630  58.941  0.00  0.00     0.099 A 
ATOM     12  C   UNL d   1      44.675  31.085  58.377  0.00  0.00     0.021 A 
ATOM     13  C   UNL d   1      44.437  30.744  57.664  0.00  0.00     0.003 A 
ATOM     14  C   UNL d   1      44.592  29.945  57.513  0.00  0.00     0.021 A 
ENDBRANCH   6   9
ENDBRANCH   1   4
BRANCH   2  15
ATOM     15  C   UNL d   1      45.035  25.801  56.030  0.00  0.00     0.063 C 
BRANCH  15  16
ATOM     16  C   UNL d   1      44.722  25.037  56.122  0.00  0.00     0.012 C 
BRANCH  16  17
ATOM     17  C   UNL d   1      45.025  24.410  55.684  0.00  0.00     0.036 C 
BRANCH  17  18
ATOM     18  S   UNL d   1      44.637  23.690  55.670  0.00  0.00    -0.086 SA
BRANCH  18  19
ATOM     19  C   UNL d   1      45.002  23.029  55.337  0.00  0.00     0.029 A 
ATOM     20  C   UNL d   1      44.853  22.833  54.548  0.00  0.00     0.005 A 
ATOM     21  C   UNL d   1      45.216  22.174  54.212  0.00  0.00    -0.012 A 
ATOM     22  C   UNL d   1      45.728  21.710  54.662  0.00  0.00     0.026 A 
ATOM     23  C   UNL d   1      45.877  21.905  55.448  0.00  0.00    -0.012 A 
ATOM     24  C   UNL d   1      45.514  22.565  55.787  0.00  0.00     0.005 A 
ENDBRANCH  18  19
ENDBRANCH  17  18
ENDBRANCH  16  17
ENDBRANCH  15  16
ENDBRANCH   2  15
TORSDOF 7
ENDMDL
