MODEL 1
REMARK VINA RESULT:      -8.1      0.000      0.000
REMARK  5 active torsions:
REMARK  status: ('A' for Active; 'I' for Inactive)
REMARK    1  A    between atoms: C_7  and  N_1 
REMARK    2  A    between atoms: C_2  and  C_6 
REMARK    3  A    between atoms: C_5  and  C_3 
REMARK    4  A    between atoms: N_8  and  C_5 
REMARK    5  A    between atoms: C_19  and  N_9 
ROOT
ATOM      1  C   UNL d   1      53.433  31.639  53.867  0.00  0.00     0.102 A 
ATOM      2  C   UNL d   1      53.254  32.967  53.827  0.00  0.00     0.126 A 
ATOM      3  O   UNL d   1      52.908  32.253  54.053  0.00  0.00    -0.305 OA
ATOM      4  C   UNL d   1      54.109  31.983  53.523  0.00  0.00     0.027 A 
ATOM      5  C   UNL d   1      53.993  32.795  53.501  0.00  0.00     0.029 A 
ENDROOT
BRANCH   2   6
ATOM      6  C   UNL d   1      52.913  33.756  53.912  0.00  0.00     0.143 C 
ATOM      7  S   UNL d   1      53.294  34.315  54.383  0.00  0.00    -0.057 SA
BRANCH   6   8
ATOM      8  N   UNL d   1      52.192  33.932  53.507  0.00  0.00    -0.291 N 
ATOM      9  C   UNL d   1      51.460  33.810  53.856  0.00  0.00     0.100 A 
ATOM     10  C   UNL d   1      50.780  33.989  53.442  0.00  0.00     0.100 A 
ATOM     11  N   UNL d   1      50.799  34.285  52.690  0.00  0.00    -0.301 N 
ATOM     12  C   UNL d   1      51.541  34.418  52.311  0.00  0.00     0.100 A 
ATOM     13  C   UNL d   1      52.241  34.239  52.726  0.00  0.00     0.100 A 
BRANCH  11  14
ATOM     14  C   UNL d   1      50.095  34.460  52.287  0.00  0.00     0.064 A 
ATOM     15  C   UNL d   1      49.975  34.219  51.513  0.00  0.00     0.018 A 
ATOM     16  C   UNL d   1      49.271  34.398  51.124  0.00  0.00     0.002 A 
ATOM     17  C   UNL d   1      48.682  34.826  51.524  0.00  0.00     0.000 A 
ATOM     18  C   UNL d   1      48.802  35.067  52.298  0.00  0.00     0.002 A 
ATOM     19  C   UNL d   1      49.511  34.881  52.674  0.00  0.00     0.018 A 
ENDBRANCH  11  14
ENDBRANCH   6   8
ENDBRANCH   2   6
BRANCH   1  20
ATOM     20  C   UNL d   1      53.384  30.816  53.965  0.00  0.00     0.045 A 
ATOM     21  C   UNL d   1      52.989  30.351  53.401  0.00  0.00     0.129 A 
ATOM     22  C   UNL d   1      52.940  29.534  53.499  0.00  0.00     0.024 A 
ATOM     23  C   UNL d   1      53.284  29.163  54.163  0.00  0.00     0.002 A 
ATOM     24  C   UNL d   1      53.675  29.635  54.718  0.00  0.00     0.000 A 
ATOM     25  C   UNL d   1      53.724  30.453  54.620  0.00  0.00     0.004 A 
BRANCH  21  26
ATOM     26  N   UNL d   1      52.647  30.696  52.748  0.00  0.00    -0.114 N 
ATOM     27  O   UNL d   1      53.059  30.888  52.044  0.00  0.00    -0.532 OA
ATOM     28  O   UNL d   1      51.849  30.900  52.699  0.00  0.00    -0.532 OA
ENDBRANCH  21  26
ENDBRANCH   1  20
TORSDOF 5
ENDMDL
MODEL 2
REMARK VINA RESULT:      -7.5      1.039      1.576
REMARK  5 active torsions:
REMARK  status: ('A' for Active; 'I' for Inactive)
REMARK    1  A    between atoms: C_7  and  N_1 
REMARK    2  A    between atoms: C_2  and  C_6 
REMARK    3  A    between atoms: C_5  and  C_3 
REMARK    4  A    between atoms: N_8  and  C_5 
REMARK    5  A    between atoms: C_19  and  N_9 
ROOT
ATOM      1  C   UNL d   1      52.913  32.205  53.173  0.00  0.00     0.102 A 
ATOM      2  C   UNL d   1      52.514  33.484  53.107  0.00  0.00     0.126 A 
ATOM      3  O   UNL d   1      52.380  32.761  53.482  0.00  0.00    -0.305 OA
ATOM      4  C   UNL d   1      53.378  32.595  52.601  0.00  0.00     0.027 A 
ATOM      5  C   UNL d   1      53.128  33.376  52.566  0.00  0.00     0.029 A 
ENDROOT
BRANCH   2   6
ATOM      6  C   UNL d   1      52.091  34.223  53.248  0.00  0.00     0.143 C 
ATOM      7  S   UNL d   1      52.415  34.786  53.757  0.00  0.00    -0.057 SA
BRANCH   6   8
ATOM      8  N   UNL d   1      51.352  34.349  52.858  0.00  0.00    -0.291 N 
ATOM      9  C   UNL d   1      51.304  34.454  52.047  0.00  0.00     0.100 A 
ATOM     10  C   UNL d   1      50.577  34.574  51.696  0.00  0.00     0.100 A 
ATOM     11  N   UNL d   1      49.891  34.594  52.124  0.00  0.00    -0.301 N 
ATOM     12  C   UNL d   1      49.916  34.488  52.960  0.00  0.00     0.100 A 
ATOM     13  C   UNL d   1      50.654  34.365  53.327  0.00  0.00     0.100 A 
BRANCH  11  14
ATOM     14  C   UNL d   1      49.162  34.717  51.746  0.00  0.00     0.064 A 
ATOM     15  C   UNL d   1      48.981  34.348  51.037  0.00  0.00     0.018 A 
ATOM     16  C   UNL d   1      48.254  34.478  50.672  0.00  0.00     0.002 A 
ATOM     17  C   UNL d   1      47.705  34.989  51.028  0.00  0.00     0.000 A 
ATOM     18  C   UNL d   1      47.886  35.359  51.737  0.00  0.00     0.002 A 
ATOM     19  C   UNL d   1      48.617  35.219  52.091  0.00  0.00     0.018 A 
ENDBRANCH  11  14
ENDBRANCH   6   8
ENDBRANCH   2   6
BRANCH   1  20
ATOM     20  C   UNL d   1      53.035  31.401  53.336  0.00  0.00     0.045 A 
ATOM     21  C   UNL d   1      53.557  31.172  53.940  0.00  0.00     0.129 A 
ATOM     22  C   UNL d   1      53.678  30.372  54.102  0.00  0.00     0.024 A 
ATOM     23  C   UNL d   1      53.280  29.784  53.665  0.00  0.00     0.002 A 
ATOM     24  C   UNL d   1      52.762  30.023  53.066  0.00  0.00     0.000 A 
ATOM     25  C   UNL d   1      52.641  30.823  52.903  0.00  0.00     0.004 A 
BRANCH  21  26
ATOM     26  N   UNL d   1      53.955  31.733  54.377  0.00  0.00    -0.114 N 
ATOM     27  O   UNL d   1      54.667  32.101  54.138  0.00  0.00    -0.532 OA
ATOM     28  O   UNL d   1      53.702  32.007  55.113  0.00  0.00    -0.532 OA
ENDBRANCH  21  26
ENDBRANCH   1  20
TORSDOF 5
ENDMDL
MODEL 3
REMARK VINA RESULT:      -6.6      2.058      2.857
REMARK  5 active torsions:
REMARK  status: ('A' for Active; 'I' for Inactive)
REMARK    1  A    between atoms: C_7  and  N_1 
REMARK    2  A    between atoms: C_2  and  C_6 
REMARK    3  A    between atoms: C_5  and  C_3 
REMARK    4  A    between atoms: N_8  and  C_5 
REMARK    5  A    between atoms: C_19  and  N_9 
ROOT
ATOM      1  C   UNL d   1      52.959  33.926  53.866  0.00  0.00     0.102 A 
ATOM      2  C   UNL d   1      51.826  33.805  53.159  0.00  0.00     0.126 A 
ATOM      3  O   UNL d   1      52.252  33.497  53.795  0.00  0.00    -0.305 OA
ATOM      4  C   UNL d   1      52.963  34.503  53.265  0.00  0.00     0.027 A 
ATOM      5  C   UNL d   1      52.268  34.423  52.836  0.00  0.00     0.029 A 
ENDROOT
BRANCH   2   6
ATOM      6  C   UNL d   1      51.056  33.534  52.876  0.00  0.00     0.143 C 
ATOM      7  S   UNL d   1      50.971  32.759  52.607  0.00  0.00    -0.057 SA
BRANCH   6   8
ATOM      8  N   UNL d   1      50.408  34.077  52.883  0.00  0.00    -0.291 N 
ATOM      9  C   UNL d   1      50.132  34.410  53.579  0.00  0.00     0.100 A 
ATOM     10  C   UNL d   1      49.504  34.931  53.557  0.00  0.00     0.100 A 
ATOM     11  N   UNL d   1      49.137  35.134  52.866  0.00  0.00    -0.301 N 
ATOM     12  C   UNL d   1      49.404  34.803  52.137  0.00  0.00     0.100 A 
ATOM     13  C   UNL d   1      50.045  34.270  52.150  0.00  0.00     0.100 A 
BRANCH  11  14
ATOM     14  C   UNL d   1      48.500  35.666  52.867  0.00  0.00     0.064 A 
ATOM     15  C   UNL d   1      48.354  36.156  53.508  0.00  0.00     0.018 A 
ATOM     16  C   UNL d   1      47.719  36.679  53.497  0.00  0.00     0.002 A 
ATOM     17  C   UNL d   1      47.225  36.708  52.830  0.00  0.00     0.000 A 
ATOM     18  C   UNL d   1      47.371  36.219  52.189  0.00  0.00     0.002 A 
ATOM     19  C   UNL d   1      48.011  35.700  52.214  0.00  0.00     0.018 A 
ENDBRANCH  11  14
ENDBRANCH   6   8
ENDBRANCH   2   6
BRANCH   1  20
ATOM     20  C   UNL d   1      53.595  33.867  54.396  0.00  0.00     0.045 A 
ATOM     21  C   UNL d   1      54.153  33.258  54.312  0.00  0.00     0.129 A 
ATOM     22  C   UNL d   1      54.785  33.199  54.839  0.00  0.00     0.024 A 
ATOM     23  C   UNL d   1      54.873  33.748  55.462  0.00  0.00     0.002 A 
ATOM     24  C   UNL d   1      54.311  34.351  55.535  0.00  0.00     0.000 A 
ATOM     25  C   UNL d   1      53.679  34.410  55.008  0.00  0.00     0.004 A 
BRANCH  21  26
ATOM     26  N   UNL d   1      54.082  32.713  53.711  0.00  0.00    -0.114 N 
ATOM     27  O   UNL d   1      53.714  31.965  53.790  0.00  0.00    -0.532 OA
ATOM     28  O   UNL d   1      54.367  32.832  52.945  0.00  0.00    -0.532 OA
ENDBRANCH  21  26
ENDBRANCH   1  20
TORSDOF 5
ENDMDL
MODEL 4
REMARK VINA RESULT:      -6.0      1.228      4.716
REMARK  5 active torsions:
REMARK  status: ('A' for Active; 'I' for Inactive)
REMARK    1  A    between atoms: C_7  and  N_1 
REMARK    2  A    between atoms: C_2  and  C_6 
REMARK    3  A    between atoms: C_5  and  C_3 
REMARK    4  A    between atoms: N_8  and  C_5 
REMARK    5  A    between atoms: C_19  and  N_9 
ROOT
ATOM      1  C   UNL d   1      52.043  34.400  53.458  0.00  0.00     0.102 A 
ATOM      2  C   UNL d   1      53.237  33.956  53.877  0.00  0.00     0.126 A 
ATOM      3  O   UNL d   1      52.478  33.721  53.654  0.00  0.00    -0.305 OA
ATOM      4  C   UNL d   1      52.543  35.057  53.562  0.00  0.00     0.027 A 
ATOM      5  C   UNL d   1      53.272  34.779  53.818  0.00  0.00     0.029 A 
ENDROOT
BRANCH   2   6
ATOM      6  C   UNL d   1      53.883  33.441  54.127  0.00  0.00     0.143 C 
ATOM      7  S   UNL d   1      54.603  33.772  54.355  0.00  0.00    -0.057 SA
BRANCH   6   8
ATOM      8  N   UNL d   1      53.757  32.605  54.131  0.00  0.00    -0.291 N 
ATOM      9  C   UNL d   1      53.394  32.225  54.761  0.00  0.00     0.100 A 
ATOM     10  C   UNL d   1      53.286  31.417  54.737  0.00  0.00     0.100 A 
ATOM     11  N   UNL d   1      53.525  30.968  54.109  0.00  0.00    -0.301 N 
ATOM     12  C   UNL d   1      53.900  31.337  53.450  0.00  0.00     0.100 A 
ATOM     13  C   UNL d   1      54.016  32.162  53.464  0.00  0.00     0.100 A 
BRANCH  11  14
ATOM     14  C   UNL d   1      53.404  30.147  54.108  0.00  0.00     0.064 A 
ATOM     15  C   UNL d   1      53.047  29.769  53.473  0.00  0.00     0.018 A 
ATOM     16  C   UNL d   1      52.933  28.954  53.484  0.00  0.00     0.002 A 
ATOM     17  C   UNL d   1      53.182  28.515  54.143  0.00  0.00     0.000 A 
ATOM     18  C   UNL d   1      53.539  28.893  54.778  0.00  0.00     0.002 A 
ATOM     19  C   UNL d   1      53.647  29.709  54.753  0.00  0.00     0.018 A 
ENDBRANCH  11  14
ENDBRANCH   6   8
ENDBRANCH   2   6
BRANCH   1  20
ATOM     20  C   UNL d   1      51.261  34.503  53.199  0.00  0.00     0.045 A 
ATOM     21  C   UNL d   1      51.046  34.290  52.426  0.00  0.00     0.129 A 
ATOM     22  C   UNL d   1      50.268  34.393  52.169  0.00  0.00     0.024 A 
ATOM     23  C   UNL d   1      49.690  34.712  52.680  0.00  0.00     0.002 A 
ATOM     24  C   UNL d   1      49.916  34.921  53.447  0.00  0.00     0.000 A 
ATOM     25  C   UNL d   1      50.693  34.817  53.704  0.00  0.00     0.004 A 
BRANCH  21  26
ATOM     26  N   UNL d   1      51.597  33.978  51.914  0.00  0.00    -0.114 N 
ATOM     27  O   UNL d   1      52.113  34.435  51.439  0.00  0.00    -0.532 OA
ATOM     28  O   UNL d   1      51.715  33.169  51.802  0.00  0.00    -0.532 OA
ENDBRANCH  21  26
ENDBRANCH   1  20
TORSDOF 5
ENDMDL
MODEL 5
REMARK VINA RESULT:      -5.8      2.458      5.657
REMARK  5 active torsions:
REMARK  status: ('A' for Active; 'I' for Inactive)
REMARK    1  A    between atoms: C_7  and  N_1 
REMARK    2  A    between atoms: C_2  and  C_6 
REMARK    3  A    between atoms: C_5  and  C_3 
REMARK    4  A    between atoms: N_8  and  C_5 
REMARK    5  A    between atoms: C_19  and  N_9 
ROOT
ATOM      1  C   UNL d   1      49.218  35.087  52.822  0.00  0.00     0.102 A 
ATOM      2  C   UNL d   1      50.359  34.459  52.501  0.00  0.00     0.126 A 
ATOM      3  O   UNL d   1      49.963  35.183  52.470  0.00  0.00    -0.305 OA
ATOM      4  C   UNL d   1      49.158  34.294  53.070  0.00  0.00     0.027 A 
ATOM      5  C   UNL d   1      49.859  33.916  52.871  0.00  0.00     0.029 A 
ENDROOT
BRANCH   2   6
ATOM      6  C   UNL d   1      51.151  34.292  52.203  0.00  0.00     0.143 C 
ATOM      7  S   UNL d   1      51.290  34.297  51.390  0.00  0.00    -0.057 SA
BRANCH   6   8
ATOM      8  N   UNL d   1      51.767  34.126  52.759  0.00  0.00    -0.291 N 
ATOM      9  C   UNL d   1      52.164  34.725  53.154  0.00  0.00     0.100 A 
ATOM     10  C   UNL d   1      52.755  34.537  53.685  0.00  0.00     0.100 A 
ATOM     11  N   UNL d   1      52.967  33.772  53.839  0.00  0.00    -0.301 N 
ATOM     12  C   UNL d   1      52.572  33.140  53.444  0.00  0.00     0.100 A 
ATOM     13  C   UNL d   1      51.968  33.322  52.900  0.00  0.00     0.100 A 
BRANCH  11  14
ATOM     14  C   UNL d   1      53.571  33.604  54.383  0.00  0.00     0.064 A 
ATOM     15  C   UNL d   1      53.634  32.867  54.737  0.00  0.00     0.018 A 
ATOM     16  C   UNL d   1      54.237  32.713  55.275  0.00  0.00     0.002 A 
ATOM     17  C   UNL d   1      54.784  33.310  55.458  0.00  0.00     0.000 A 
ATOM     18  C   UNL d   1      54.721  34.048  55.104  0.00  0.00     0.002 A 
ATOM     19  C   UNL d   1      54.112  34.188  54.567  0.00  0.00     0.018 A 
ENDBRANCH  11  14
ENDBRANCH   6   8
ENDBRANCH   2   6
BRANCH   1  20
ATOM     20  C   UNL d   1      48.590  35.615  52.947  0.00  0.00     0.045 A 
ATOM     21  C   UNL d   1      48.017  35.730  52.356  0.00  0.00     0.129 A 
ATOM     22  C   UNL d   1      47.393  36.255  52.480  0.00  0.00     0.024 A 
ATOM     23  C   UNL d   1      47.328  36.677  53.198  0.00  0.00     0.002 A 
ATOM     24  C   UNL d   1      47.904  36.555  53.779  0.00  0.00     0.000 A 
ATOM     25  C   UNL d   1      48.528  36.030  53.654  0.00  0.00     0.004 A 
BRANCH  21  26
ATOM     26  N   UNL d   1      48.065  35.327  51.650  0.00  0.00    -0.114 N 
ATOM     27  O   UNL d   1      47.740  34.567  51.517  0.00  0.00    -0.532 OA
ATOM     28  O   UNL d   1      48.441  35.620  50.977  0.00  0.00    -0.532 OA
ENDBRANCH  21  26
ENDBRANCH   1  20
TORSDOF 5
ENDMDL
MODEL 6
REMARK VINA RESULT:      -5.5      3.311      6.415
REMARK  5 active torsions:
REMARK  status: ('A' for Active; 'I' for Inactive)
REMARK    1  A    between atoms: C_7  and  N_1 
REMARK    2  A    between atoms: C_2  and  C_6 
REMARK    3  A    between atoms: C_5  and  C_3 
REMARK    4  A    between atoms: N_8  and  C_5 
REMARK    5  A    between atoms: C_19  and  N_9 
ROOT
ATOM      1  C   UNL d   1      47.401  35.954  52.862  0.00  0.00     0.102 A 
ATOM      2  C   UNL d   1      48.244  35.397  51.981  0.00  0.00     0.126 A 
ATOM      3  O   UNL d   1      47.782  35.249  52.648  0.00  0.00    -0.305 OA
ATOM      4  C   UNL d   1      47.634  36.540  52.317  0.00  0.00     0.027 A 
ATOM      5  C   UNL d   1      48.150  36.192  51.781  0.00  0.00     0.029 A 
ENDROOT
BRANCH   2   6
ATOM      6  C   UNL d   1      48.740  34.828  51.561  0.00  0.00     0.143 C 
ATOM      7  S   UNL d   1      48.479  34.511  50.845  0.00  0.00    -0.057 SA
BRANCH   6   8
ATOM      8  N   UNL d   1      49.484  34.611  51.899  0.00  0.00    -0.291 N 
ATOM      9  C   UNL d   1      49.570  34.477  52.703  0.00  0.00     0.100 A 
ATOM     10  C   UNL d   1      50.300  34.269  53.002  0.00  0.00     0.100 A 
ATOM     11  N   UNL d   1      50.952  34.188  52.531  0.00  0.00    -0.301 N 
ATOM     12  C   UNL d   1      50.887  34.321  51.701  0.00  0.00     0.100 A 
ATOM     13  C   UNL d   1      50.145  34.534  51.385  0.00  0.00     0.100 A 
BRANCH  11  14
ATOM     14  C   UNL d   1      51.685  33.976  52.857  0.00  0.00     0.064 A 
ATOM     15  C   UNL d   1      51.924  33.192  52.895  0.00  0.00     0.018 A 
ATOM     16  C   UNL d   1      52.654  32.994  53.222  0.00  0.00     0.002 A 
ATOM     17  C   UNL d   1      53.147  33.595  53.513  0.00  0.00     0.000 A 
ATOM     18  C   UNL d   1      52.908  34.379  53.475  0.00  0.00     0.002 A 
ATOM     19  C   UNL d   1      52.176  34.562  53.145  0.00  0.00     0.018 A 
ENDBRANCH  11  14
ENDBRANCH   6   8
ENDBRANCH   2   6
BRANCH   1  20
ATOM     20  C   UNL d   1      46.875  36.138  53.477  0.00  0.00     0.045 A 
ATOM     21  C   UNL d   1      46.060  36.016  53.379  0.00  0.00     0.129 A 
ATOM     22  C   UNL d   1      45.537  36.198  53.991  0.00  0.00     0.024 A 
ATOM     23  C   UNL d   1      45.819  36.507  54.714  0.00  0.00     0.002 A 
ATOM     24  C   UNL d   1      46.633  36.624  54.800  0.00  0.00     0.000 A 
ATOM     25  C   UNL d   1      47.156  36.441  54.188  0.00  0.00     0.004 A 
BRANCH  21  26
ATOM     26  N   UNL d   1      45.767  35.716  52.681  0.00  0.00    -0.114 N 
ATOM     27  O   UNL d   1      45.573  36.180  52.012  0.00  0.00    -0.532 OA
ATOM     28  O   UNL d   1      45.625  34.914  52.547  0.00  0.00    -0.532 OA
ENDBRANCH  21  26
ENDBRANCH   1  20
TORSDOF 5
ENDMDL
