MODEL 1
REMARK VINA RESULT:      -8.8      0.000      0.000
REMARK  3 active torsions:
REMARK  status: ('A' for Active; 'I' for Inactive)
REMARK    1  A    between atoms: C_8  and  N_1 
REMARK    2  A    between atoms: N_7  and  C_2 
REMARK    3  A    between atoms: C_16  and  C_8 
ROOT
ATOM      1  N   UNL d   1      52.431  33.449  52.912  0.00  0.00    -0.225 N 
ATOM      2  C   UNL d   1      50.949  34.130  52.694  0.00  0.00     0.158 A 
ATOM      3  C   UNL d   1      52.367  34.250  52.716  0.00  0.00     0.358 A 
ATOM      4  N   UNL d   1      51.628  34.586  52.608  0.00  0.00    -0.174 NA
ATOM      5  C   UNL d   1      51.758  32.985  52.999  0.00  0.00     0.271 A 
ATOM      6  C   UNL d   1      51.014  33.329  52.889  0.00  0.00     0.099 A 
ATOM      7  O   UNL d   1      53.050  34.711  52.630  0.00  0.00    -0.244 OA
ATOM      8  O   UNL d   1      51.823  32.184  53.194  0.00  0.00    -0.266 OA
ENDROOT
BRANCH   1   9
ATOM      9  C   UNL d   1      53.175  33.110  53.021  0.00  0.00     0.087 C 
BRANCH   9  10
ATOM     10  C   UNL d   1      53.509  33.081  53.775  0.00  0.00     0.018 A 
ATOM     11  C   UNL d   1      53.622  32.346  54.138  0.00  0.00     0.004 A 
ATOM     12  C   UNL d   1      53.955  32.317  54.892  0.00  0.00     0.030 A 
ATOM     13  C   UNL d   1      54.168  33.014  55.270  0.00  0.00     0.140 A 
ATOM     14  C   UNL d   1      54.055  33.735  54.910  0.00  0.00     0.030 A 
ATOM     15  F   UNL d   1      54.503  32.978  56.029  0.00  0.00    -0.204 F 
ATOM     16  C   UNL d   1      53.724  33.773  54.160  0.00  0.00     0.004 A 
ENDBRANCH   9  10
ENDBRANCH   1   9
BRANCH   2  17
ATOM     17  N   UNL d   1      50.205  34.465  52.586  0.00  0.00    -0.285 N 
ATOM     18  C   UNL d   1      49.854  34.885  53.191  0.00  0.00     0.106 A 
ATOM     19  C   UNL d   1      49.110  35.221  53.083  0.00  0.00     0.118 A 
ATOM     20  C   UNL d   1      48.755  35.645  53.694  0.00  0.00     0.028 C 
ATOM     21  O   UNL d   1      48.715  35.139  52.371  0.00  0.00    -0.304 OA
ATOM     22  C   UNL d   1      49.074  34.707  51.744  0.00  0.00     0.118 A 
ATOM     23  C   UNL d   1      49.820  34.372  51.855  0.00  0.00     0.106 A 
ATOM     24  C   UNL d   1      48.680  34.622  51.026  0.00  0.00     0.028 C 
ENDBRANCH   2  17
TORSDOF 3
ENDMDL
MODEL 2
REMARK VINA RESULT:      -7.8      2.168      3.180
REMARK  3 active torsions:
REMARK  status: ('A' for Active; 'I' for Inactive)
REMARK    1  A    between atoms: C_8  and  N_1 
REMARK    2  A    between atoms: N_7  and  C_2 
REMARK    3  A    between atoms: C_16  and  C_8 
ROOT
ATOM      1  N   UNL d   1      53.408  31.381  53.222  0.00  0.00    -0.225 N 
ATOM      2  C   UNL d   1      52.708  32.867  53.326  0.00  0.00     0.158 A 
ATOM      3  C   UNL d   1      52.644  31.502  52.929  0.00  0.00     0.358 A 
ATOM      4  N   UNL d   1      52.298  32.242  52.982  0.00  0.00    -0.174 NA
ATOM      5  C   UNL d   1      53.825  32.000  53.567  0.00  0.00     0.271 A 
ATOM      6  C   UNL d   1      53.471  32.746  53.619  0.00  0.00     0.099 A 
ATOM      7  O   UNL d   1      52.230  30.873  52.581  0.00  0.00    -0.244 OA
ATOM      8  O   UNL d   1      54.588  31.880  53.860  0.00  0.00    -0.266 OA
ENDROOT
BRANCH   1   9
ATOM      9  C   UNL d   1      53.757  30.636  53.169  0.00  0.00     0.087 C 
BRANCH   9  10
ATOM     10  C   UNL d   1      53.590  30.061  53.737  0.00  0.00     0.018 A 
ATOM     11  C   UNL d   1      53.356  29.307  53.489  0.00  0.00     0.004 A 
ATOM     12  C   UNL d   1      53.189  28.732  54.056  0.00  0.00     0.030 A 
ATOM     13  C   UNL d   1      53.255  28.915  54.854  0.00  0.00     0.140 A 
ATOM     14  C   UNL d   1      53.485  29.658  55.093  0.00  0.00     0.030 A 
ATOM     15  F   UNL d   1      53.085  28.331  55.419  0.00  0.00    -0.204 F 
ATOM     16  C   UNL d   1      53.654  30.235  54.535  0.00  0.00     0.004 A 
ENDBRANCH   9  10
ENDBRANCH   1   9
BRANCH   2  17
ATOM     17  N   UNL d   1      52.362  33.612  53.380  0.00  0.00    -0.285 N 
ATOM     18  C   UNL d   1      52.757  34.220  53.754  0.00  0.00     0.106 A 
ATOM     19  C   UNL d   1      52.411  34.965  53.809  0.00  0.00     0.118 A 
ATOM     20  C   UNL d   1      52.809  35.580  54.186  0.00  0.00     0.028 C 
ATOM     21  O   UNL d   1      51.670  35.105  53.491  0.00  0.00    -0.304 OA
ATOM     22  C   UNL d   1      51.259  34.480  53.104  0.00  0.00     0.118 A 
ATOM     23  C   UNL d   1      51.609  33.735  53.051  0.00  0.00     0.106 A 
ATOM     24  C   UNL d   1      50.514  34.617  52.783  0.00  0.00     0.028 C 
ENDBRANCH   2  17
TORSDOF 3
ENDMDL
MODEL 3
REMARK VINA RESULT:      -7.7      2.588      4.537
REMARK  3 active torsions:
REMARK  status: ('A' for Active; 'I' for Inactive)
REMARK    1  A    between atoms: C_8  and  N_1 
REMARK    2  A    between atoms: N_7  and  C_2 
REMARK    3  A    between atoms: C_16  and  C_8 
ROOT
ATOM      1  N   UNL d   1      53.537  32.859  53.185  0.00  0.00    -0.225 N 
ATOM      2  C   UNL d   1      53.263  31.259  53.458  0.00  0.00     0.158 A 
ATOM      3  C   UNL d   1      52.825  32.513  52.947  0.00  0.00     0.358 A 
ATOM      4  N   UNL d   1      52.691  31.717  53.084  0.00  0.00    -0.174 NA
ATOM      5  C   UNL d   1      54.115  32.408  53.559  0.00  0.00     0.271 A 
ATOM      6  C   UNL d   1      53.976  31.605  53.696  0.00  0.00     0.099 A 
ATOM      7  O   UNL d   1      52.247  32.973  52.571  0.00  0.00    -0.244 OA
ATOM      8  O   UNL d   1      54.827  32.754  53.797  0.00  0.00    -0.266 OA
ENDROOT
BRANCH   1   9
ATOM      9  C   UNL d   1      53.673  33.660  53.048  0.00  0.00     0.087 C 
BRANCH   9  10
ATOM     10  C   UNL d   1      53.390  34.224  53.581  0.00  0.00     0.018 A 
ATOM     11  C   UNL d   1      52.822  34.769  53.326  0.00  0.00     0.004 A 
ATOM     12  C   UNL d   1      52.539  35.332  53.859  0.00  0.00     0.030 A 
ATOM     13  C   UNL d   1      52.822  35.343  54.630  0.00  0.00     0.140 A 
ATOM     14  C   UNL d   1      53.381  34.805  54.876  0.00  0.00     0.030 A 
ATOM     15  F   UNL d   1      52.533  35.912  55.159  0.00  0.00    -0.204 F 
ATOM     16  C   UNL d   1      53.668  34.242  54.352  0.00  0.00     0.004 A 
ENDBRANCH   9  10
ENDBRANCH   1   9
BRANCH   2  17
ATOM     17  N   UNL d   1      53.131  30.458  53.596  0.00  0.00    -0.285 N 
ATOM     18  C   UNL d   1      52.775  29.997  53.025  0.00  0.00     0.106 A 
ATOM     19  C   UNL d   1      52.643  29.197  53.163  0.00  0.00     0.118 A 
ATOM     20  C   UNL d   1      52.283  28.731  52.586  0.00  0.00     0.028 C 
ATOM     21  O   UNL d   1      52.865  28.854  53.872  0.00  0.00    -0.304 OA
ATOM     22  C   UNL d   1      53.232  29.326  54.465  0.00  0.00     0.118 A 
ATOM     23  C   UNL d   1      53.363  30.128  54.323  0.00  0.00     0.106 A 
ATOM     24  C   UNL d   1      53.457  28.985  55.179  0.00  0.00     0.028 C 
ENDBRANCH   2  17
TORSDOF 3
ENDMDL
MODEL 4
REMARK VINA RESULT:      -6.8      2.107      4.831
REMARK  3 active torsions:
REMARK  status: ('A' for Active; 'I' for Inactive)
REMARK    1  A    between atoms: C_8  and  N_1 
REMARK    2  A    between atoms: N_7  and  C_2 
REMARK    3  A    between atoms: C_16  and  C_8 
ROOT
ATOM      1  N   UNL d   1      51.043  34.223  52.884  0.00  0.00    -0.225 N 
ATOM      2  C   UNL d   1      52.123  33.006  53.132  0.00  0.00     0.158 A 
ATOM      3  C   UNL d   1      50.882  33.630  53.438  0.00  0.00     0.358 A 
ATOM      4  N   UNL d   1      51.420  33.027  53.560  0.00  0.00    -0.174 NA
ATOM      5  C   UNL d   1      51.743  34.210  52.452  0.00  0.00     0.271 A 
ATOM      6  C   UNL d   1      52.285  33.599  52.578  0.00  0.00     0.099 A 
ATOM      7  O   UNL d   1      50.173  33.650  53.869  0.00  0.00    -0.244 OA
ATOM      8  O   UNL d   1      51.905  34.803  51.898  0.00  0.00    -0.266 OA
ENDROOT
BRANCH   1   9
ATOM      9  C   UNL d   1      50.500  34.832  52.760  0.00  0.00     0.087 C 
BRANCH   9  10
ATOM     10  C   UNL d   1      49.874  34.725  52.233  0.00  0.00     0.018 A 
ATOM     11  C   UNL d   1      49.111  34.942  52.465  0.00  0.00     0.004 A 
ATOM     12  C   UNL d   1      48.485  34.835  51.939  0.00  0.00     0.030 A 
ATOM     13  C   UNL d   1      48.627  34.517  51.196  0.00  0.00     0.140 A 
ATOM     14  C   UNL d   1      49.380  34.304  50.971  0.00  0.00     0.030 A 
ATOM     15  F   UNL d   1      47.992  34.412  50.672  0.00  0.00    -0.204 F 
ATOM     16  C   UNL d   1      50.008  34.407  51.489  0.00  0.00     0.004 A 
ENDBRANCH   9  10
ENDBRANCH   1   9
BRANCH   2  17
ATOM     17  N   UNL d   1      52.667  32.400  53.253  0.00  0.00    -0.285 N 
ATOM     18  C   UNL d   1      53.390  32.561  53.595  0.00  0.00     0.106 A 
ATOM     19  C   UNL d   1      53.934  31.955  53.716  0.00  0.00     0.118 A 
ATOM     20  C   UNL d   1      54.665  32.117  54.060  0.00  0.00     0.028 C 
ATOM     21  O   UNL d   1      53.757  31.187  53.496  0.00  0.00    -0.304 OA
ATOM     22  C   UNL d   1      53.012  31.017  53.144  0.00  0.00     0.118 A 
ATOM     23  C   UNL d   1      52.469  31.626  53.024  0.00  0.00     0.106 A 
ATOM     24  C   UNL d   1      52.831  30.245  52.922  0.00  0.00     0.028 C 
ENDBRANCH   2  17
TORSDOF 3
ENDMDL
