MODEL 1
REMARK VINA RESULT:      72.1      0.000      0.000
REMARK  2 active torsions:
REMARK  status: ('A' for Active; 'I' for Inactive)
REMARK    1  A    between atoms: N_9  and  C_3 
REMARK    2  A    between atoms: C_11  and  C_4 
ROOT
ATOM      1  N   UNL d   1     -53.074  25.437  33.429  0.00  0.00    -0.196 N 
ATOM      2  C   UNL d   1     -52.247  25.481  33.457  0.00  0.00     0.167 A 
ATOM      3  C   UNL d   1     -53.445  24.695  33.396  0.00  0.00     0.153 A 
ATOM      4  C   UNL d   1     -51.872  26.206  33.490  0.00  0.00     0.057 A 
ATOM      5  N   UNL d   1     -53.157  26.863  33.469  0.00  0.00    -0.161 NA
ATOM      6  N   UNL d   1     -51.798  24.789  33.451  0.00  0.00    -0.227 NA
ATOM      7  C   UNL d   1     -52.992  24.016  33.390  0.00  0.00     0.057 A 
ATOM      8  C   UNL d   1     -52.329  26.902  33.496  0.00  0.00     0.124 A 
ATOM      9  C   UNL d   1     -52.165  24.064  33.418  0.00  0.00     0.086 A 
ATOM     10  C   UNL d   1     -51.716  23.372  33.411  0.00  0.00     0.021 C 
ENDROOT
BRANCH   4  11
ATOM     11  C   UNL d   1     -51.048  26.253  33.517  0.00  0.00     0.004 A 
ATOM     12  C   UNL d   1     -50.605  25.589  33.731  0.00  0.00     0.000 A 
ATOM     13  C   UNL d   1     -49.781  25.636  33.758  0.00  0.00     0.000 A 
ATOM     14  C   UNL d   1     -49.403  26.359  33.569  0.00  0.00     0.000 A 
ATOM     15  C   UNL d   1     -49.860  27.010  33.359  0.00  0.00     0.000 A 
ATOM     16  C   UNL d   1     -48.579  26.407  33.596  0.00  0.00     0.000 C 
ATOM     17  C   UNL d   1     -50.679  26.963  33.332  0.00  0.00     0.000 A 
ENDBRANCH   4  11
BRANCH   3  18
ATOM     18  N   UNL d   1     -54.298  24.647  33.367  0.00  0.00    -0.285 N 
ATOM     19  C   UNL d   1     -54.761  25.364  33.359  0.00  0.00     0.108 A 
ATOM     20  C   UNL d   1     -55.605  25.311  33.331  0.00  0.00     0.142 A 
ATOM     21  O   UNL d   1     -56.000  24.536  33.310  0.00  0.00    -0.300 OA
ATOM     22  C   UNL d   1     -55.521  23.843  33.319  0.00  0.00     0.142 A 
ATOM     23  C   UNL d   1     -54.676  23.891  33.347  0.00  0.00     0.108 A 
ENDBRANCH   3  18
TORSDOF 2
ENDMDL
MODEL 2
REMARK VINA RESULT:      74.4      1.145      2.157
REMARK  2 active torsions:
REMARK  status: ('A' for Active; 'I' for Inactive)
REMARK    1  A    between atoms: N_9  and  C_3 
REMARK    2  A    between atoms: C_11  and  C_4 
ROOT
ATOM      1  N   UNL d   1     -52.982  25.303  33.404  0.00  0.00    -0.196 N 
ATOM      2  C   UNL d   1     -52.157  25.227  33.389  0.00  0.00     0.167 A 
ATOM      3  C   UNL d   1     -53.324  26.060  33.388  0.00  0.00     0.153 A 
ATOM      4  C   UNL d   1     -51.809  24.488  33.404  0.00  0.00     0.057 A 
ATOM      5  N   UNL d   1     -53.119  23.882  33.449  0.00  0.00    -0.161 NA
ATOM      6  N   UNL d   1     -51.682  25.900  33.359  0.00  0.00    -0.227 NA
ATOM      7  C   UNL d   1     -52.846  26.720  33.359  0.00  0.00     0.057 A 
ATOM      8  C   UNL d   1     -52.294  23.811  33.435  0.00  0.00     0.124 A 
ATOM      9  C   UNL d   1     -52.021  26.640  33.344  0.00  0.00     0.086 A 
ATOM     10  C   UNL d   1     -51.546  27.313  33.314  0.00  0.00     0.021 C 
ENDROOT
BRANCH   4  11
ATOM     11  C   UNL d   1     -50.988  24.408  33.390  0.00  0.00     0.004 A 
ATOM     12  C   UNL d   1     -50.508  25.080  33.433  0.00  0.00     0.000 A 
ATOM     13  C   UNL d   1     -49.687  25.001  33.418  0.00  0.00     0.000 A 
ATOM     14  C   UNL d   1     -49.348  24.236  33.360  0.00  0.00     0.000 A 
ATOM     15  C   UNL d   1     -49.840  23.579  33.319  0.00  0.00     0.000 A 
ATOM     16  C   UNL d   1     -48.527  24.156  33.346  0.00  0.00     0.000 C 
ATOM     17  C   UNL d   1     -50.657  23.658  33.333  0.00  0.00     0.000 A 
ENDBRANCH   4  11
BRANCH   3  18
ATOM     18  N   UNL d   1     -54.175  26.142  33.403  0.00  0.00    -0.285 N 
ATOM     19  C   UNL d   1     -54.521  26.919  33.485  0.00  0.00     0.108 A 
ATOM     20  C   UNL d   1     -55.365  26.995  33.499  0.00  0.00     0.142 A 
ATOM     21  O   UNL d   1     -55.875  26.294  33.432  0.00  0.00    -0.300 OA
ATOM     22  C   UNL d   1     -55.509  25.539  33.352  0.00  0.00     0.142 A 
ATOM     23  C   UNL d   1     -54.666  25.457  33.337  0.00  0.00     0.108 A 
ENDBRANCH   3  18
TORSDOF 2
ENDMDL
