MODEL 1
REMARK VINA RESULT:      40.5      0.000      0.000
REMARK  3 active torsions:
REMARK  status: ('A' for Active; 'I' for Inactive)
REMARK    1  A    between atoms: C_2  and  C_1 
REMARK       I    between atoms: N_7  and  C_2 
REMARK    2  A    between atoms: C_9  and  N_7 
REMARK    3  A    between atoms: O_13  and  C_11 
ROOT
ATOM      1  C   UNL d   1      58.669  49.524  51.736  0.00  0.00     0.280 C 
ATOM      2  N   UNL d   1      59.426  49.289  51.951  0.00  0.00    -0.208 NA
ATOM      3  O   UNL d   1      58.114  49.704  52.314  0.00  0.00    -0.265 OA
ENDROOT
BRANCH   1   4
ATOM      4  C   UNL d   1      58.465  49.579  50.937  0.00  0.00     0.065 A 
ATOM      5  C   UNL d   1      57.704  49.613  50.630  0.00  0.00     0.011 A 
ATOM      6  C   UNL d   1      57.752  49.665  49.807  0.00  0.00     0.030 A 
ATOM      7  C   UNL d   1      56.969  49.603  51.003  0.00  0.00     0.001 A 
ATOM      8  C   UNL d   1      57.064  49.707  49.356  0.00  0.00     0.006 A 
ATOM      9  S   UNL d   1      58.554  49.663  49.589  0.00  0.00    -0.086 SA
ATOM     10  C   UNL d   1      56.327  49.697  49.727  0.00  0.00     0.001 A 
ATOM     11  C   UNL d   1      56.280  49.646  50.550  0.00  0.00     0.000 A 
ATOM     12  C   UNL d   1      59.004  49.610  50.282  0.00  0.00     0.040 A 
ENDBRANCH   1   4
BRANCH   2  13
ATOM     13  C   UNL d   1      59.989  49.106  51.365  0.00  0.00     0.087 A 
ATOM     14  C   UNL d   1      60.236  48.325  51.272  0.00  0.00     0.043 A 
ATOM     15  C   UNL d   1      60.797  48.145  50.688  0.00  0.00     0.096 A 
ATOM     16  C   UNL d   1      61.102  48.746  50.206  0.00  0.00     0.024 A 
ATOM     17  C   UNL d   1      60.845  49.527  50.310  0.00  0.00     0.004 A 
ATOM     18  C   UNL d   1      60.290  49.708  50.888  0.00  0.00     0.019 A 
BRANCH  15  19
ATOM     19  O   UNL d   1      61.043  47.366  50.595  0.00  0.00    -0.328 OA
ATOM     20  C   UNL d   1      61.726  47.192  50.164  0.00  0.00     0.181 C 
ENDBRANCH  15  19
ENDBRANCH   2  13
TORSDOF 3
ENDMDL
