MODEL 1
REMARK VINA RESULT:      -7.7      0.000      0.000
REMARK  3 active torsions:
REMARK  status: ('A' for Active; 'I' for Inactive)
REMARK    1  A    between atoms: S_4  and  C_1 
REMARK    2  A    between atoms: N_2  and  C_5 
REMARK    3  A    between atoms: C_9  and  S_4 
ROOT
ATOM      1  C   UNL d   1      54.033  32.886  54.097  0.00  0.00     0.133 A 
ATOM      2  C   UNL d   1      53.300  33.293  53.963  0.00  0.00     0.051 A 
ATOM      3  C   UNL d   1      54.447  33.097  54.802  0.00  0.00     0.024 A 
ATOM      4  C   UNL d   1      53.030  33.848  54.492  0.00  0.00     0.008 A 
ATOM      5  C   UNL d   1      54.153  33.654  55.308  0.00  0.00     0.002 A 
ATOM      6  C   UNL d   1      53.457  34.036  55.176  0.00  0.00     0.001 A 
ENDROOT
BRANCH   2   7
ATOM      7  S   UNL d   1      52.836  33.136  53.288  0.00  0.00    -0.082 SA
BRANCH   7   8
ATOM      8  C   UNL d   1      52.183  33.599  53.130  0.00  0.00     0.068 A 
ATOM      9  C   UNL d   1      52.093  34.369  52.856  0.00  0.00     0.110 A 
ATOM     10  N   UNL d   1      51.317  34.527  52.809  0.00  0.00    -0.147 NA
ATOM     11  C   UNL d   1      52.736  34.879  52.666  0.00  0.00     0.023 C 
ATOM     12  N   UNL d   1      50.890  33.903  53.038  0.00  0.00    -0.147 NA
ATOM     13  C   UNL d   1      51.430  33.294  53.249  0.00  0.00     0.110 A 
ATOM     14  C   UNL d   1      51.248  32.534  53.523  0.00  0.00     0.023 C 
ENDBRANCH   7   8
ENDBRANCH   2   7
BRANCH   1  15
ATOM     15  N   UNL d   1      54.357  32.309  53.592  0.00  0.00    -0.113 N 
ATOM     16  O   UNL d   1      54.887  32.519  53.048  0.00  0.00    -0.532 OA
ATOM     17  O   UNL d   1      54.111  31.513  53.673  0.00  0.00    -0.532 OA
ENDBRANCH   1  15
TORSDOF 3
ENDMDL
MODEL 2
REMARK VINA RESULT:      -7.7      1.342      2.962
REMARK  3 active torsions:
REMARK  status: ('A' for Active; 'I' for Inactive)
REMARK    1  A    between atoms: S_4  and  C_1 
REMARK    2  A    between atoms: N_2  and  C_5 
REMARK    3  A    between atoms: C_9  and  S_4 
ROOT
ATOM      1  C   UNL d   1      52.316  33.110  52.996  0.00  0.00     0.133 A 
ATOM      2  C   UNL d   1      52.947  33.443  53.457  0.00  0.00     0.051 A 
ATOM      3  C   UNL d   1      51.842  33.664  52.569  0.00  0.00     0.024 A 
ATOM      4  C   UNL d   1      53.071  34.246  53.472  0.00  0.00     0.008 A 
ATOM      5  C   UNL d   1      51.991  34.456  52.605  0.00  0.00     0.002 A 
ATOM      6  C   UNL d   1      52.591  34.766  53.043  0.00  0.00     0.001 A 
ENDROOT
BRANCH   2   7
ATOM      7  S   UNL d   1      53.457  32.958  53.905  0.00  0.00    -0.082 SA
BRANCH   7   8
ATOM      8  C   UNL d   1      54.050  33.298  54.349  0.00  0.00     0.068 A 
ATOM      9  C   UNL d   1      54.053  33.721  55.055  0.00  0.00     0.110 A 
ATOM     10  N   UNL d   1      54.803  33.917  55.225  0.00  0.00    -0.147 NA
ATOM     11  C   UNL d   1      53.360  33.899  55.499  0.00  0.00     0.023 C 
ATOM     12  N   UNL d   1      55.294  33.647  54.670  0.00  0.00    -0.147 NA
ATOM     13  C   UNL d   1      54.829  33.245  54.096  0.00  0.00     0.110 A 
ATOM     14  C   UNL d   1      55.094  32.867  53.409  0.00  0.00     0.023 C 
ENDBRANCH   7   8
ENDBRANCH   2   7
BRANCH   1  15
ATOM     15  N   UNL d   1      52.142  32.298  52.943  0.00  0.00    -0.113 N 
ATOM     16  O   UNL d   1      51.613  31.978  53.432  0.00  0.00    -0.532 OA
ATOM     17  O   UNL d   1      52.535  31.835  52.366  0.00  0.00    -0.532 OA
ENDBRANCH   1  15
TORSDOF 3
ENDMDL
MODEL 3
REMARK VINA RESULT:      -7.6      1.721      3.030
REMARK  3 active torsions:
REMARK  status: ('A' for Active; 'I' for Inactive)
REMARK    1  A    between atoms: S_4  and  C_1 
REMARK    2  A    between atoms: N_2  and  C_5 
REMARK    3  A    between atoms: C_9  and  S_4 
ROOT
ATOM      1  C   UNL d   1      52.608  32.287  53.091  0.00  0.00     0.133 A 
ATOM      2  C   UNL d   1      53.291  32.457  53.566  0.00  0.00     0.051 A 
ATOM      3  C   UNL d   1      52.462  31.469  52.938  0.00  0.00     0.024 A 
ATOM      4  C   UNL d   1      53.762  31.857  53.847  0.00  0.00     0.008 A 
ATOM      5  C   UNL d   1      52.949  30.896  53.231  0.00  0.00     0.002 A 
ATOM      6  C   UNL d   1      53.595  31.064  53.681  0.00  0.00     0.001 A 
ENDROOT
BRANCH   2   7
ATOM      7  S   UNL d   1      53.498  33.242  53.759  0.00  0.00    -0.082 SA
BRANCH   7   8
ATOM      8  C   UNL d   1      54.161  33.384  54.213  0.00  0.00     0.068 A 
ATOM      9  C   UNL d   1      54.968  33.339  54.059  0.00  0.00     0.110 A 
ATOM     10  N   UNL d   1      55.358  33.545  54.718  0.00  0.00    -0.147 NA
ATOM     11  C   UNL d   1      55.293  33.110  53.317  0.00  0.00     0.023 C 
ATOM     12  N   UNL d   1      54.853  33.723  55.298  0.00  0.00    -0.147 NA
ATOM     13  C   UNL d   1      54.076  33.626  54.993  0.00  0.00     0.110 A 
ATOM     14  C   UNL d   1      53.361  33.747  55.391  0.00  0.00     0.023 C 
ENDBRANCH   7   8
ENDBRANCH   2   7
BRANCH   1  15
ATOM     15  N   UNL d   1      52.091  32.858  52.778  0.00  0.00    -0.113 N 
ATOM     16  O   UNL d   1      52.273  33.224  52.104  0.00  0.00    -0.532 OA
ATOM     17  O   UNL d   1      51.383  33.035  53.189  0.00  0.00    -0.532 OA
ENDBRANCH   1  15
TORSDOF 3
ENDMDL
MODEL 4
REMARK VINA RESULT:      -7.4      1.765      2.451
REMARK  3 active torsions:
REMARK  status: ('A' for Active; 'I' for Inactive)
REMARK    1  A    between atoms: S_4  and  C_1 
REMARK    2  A    between atoms: N_2  and  C_5 
REMARK    3  A    between atoms: C_9  and  S_4 
ROOT
ATOM      1  C   UNL d   1      54.473  33.305  54.650  0.00  0.00     0.133 A 
ATOM      2  C   UNL d   1      54.115  32.875  54.011  0.00  0.00     0.051 A 
ATOM      3  C   UNL d   1      55.254  33.594  54.507  0.00  0.00     0.024 A 
ATOM      4  C   UNL d   1      54.515  32.759  53.313  0.00  0.00     0.008 A 
ATOM      5  C   UNL d   1      55.625  33.461  53.803  0.00  0.00     0.002 A 
ATOM      6  C   UNL d   1      55.281  33.052  53.200  0.00  0.00     0.001 A 
ENDROOT
BRANCH   2   7
ATOM      7  S   UNL d   1      53.345  32.561  54.080  0.00  0.00    -0.082 SA
BRANCH   7   8
ATOM      8  C   UNL d   1      53.044  32.097  53.481  0.00  0.00     0.068 A 
ATOM      9  C   UNL d   1      53.149  31.307  53.274  0.00  0.00     0.110 A 
ATOM     10  N   UNL d   1      52.710  31.159  52.630  0.00  0.00    -0.147 NA
ATOM     11  C   UNL d   1      53.646  30.773  53.694  0.00  0.00     0.023 C 
ATOM     12  N   UNL d   1      52.321  31.806  52.401  0.00  0.00    -0.147 NA
ATOM     13  C   UNL d   1      52.523  32.422  52.936  0.00  0.00     0.110 A 
ATOM     14  C   UNL d   1      52.255  33.205  52.926  0.00  0.00     0.023 C 
ENDBRANCH   7   8
ENDBRANCH   2   7
BRANCH   1  15
ATOM     15  N   UNL d   1      54.112  33.455  55.385  0.00  0.00    -0.113 N 
ATOM     16  O   UNL d   1      54.150  32.915  55.957  0.00  0.00    -0.532 OA
ATOM     17  O   UNL d   1      53.712  34.182  55.501  0.00  0.00    -0.532 OA
ENDBRANCH   1  15
TORSDOF 3
ENDMDL
