MODEL 1
REMARK VINA RESULT:       0.3      0.000      0.000
REMARK  7 active torsions:
REMARK  status: ('A' for Active; 'I' for Inactive)
REMARK    1  A    between atoms: C_10  and  N_3 
REMARK    2  A    between atoms: C_12  and  C_10 
REMARK    3  A    between atoms: C_16  and  N_11 
REMARK    4  A    between atoms: O_29  and  C_15 
REMARK    5  A    between atoms: C_27  and  C_16 
REMARK    6  A    between atoms: O_30  and  C_17 
REMARK    7  A    between atoms: C_23  and  C_27 
ROOT
ATOM      1  C   UNL d   1      56.749  -1.382  31.644  0.00  0.00     0.191 A 
ATOM      2  C   UNL d   1      56.979  -0.580  31.717  0.00  0.00     0.173 A 
ATOM      3  N   UNL d   1      56.106  -0.433  32.848  0.00  0.00    -0.224 N 
ATOM      4  N   UNL d   1      57.151  -1.716  31.005  0.00  0.00    -0.042 NA
ATOM      5  C   UNL d   1      57.742  -1.143  30.536  0.00  0.00     0.722 A 
ATOM      6  N   UNL d   1      56.198  -1.723  32.166  0.00  0.00    -0.240 N 
ATOM      7  C   UNL d   1      55.876  -1.235  32.775  0.00  0.00     0.343 A 
ATOM      8  C   UNL d   1      56.658  -0.120  32.312  0.00  0.00     0.288 A 
ATOM      9  N   UNL d   1      57.519  -0.434  31.121  0.00  0.00    -0.132 N 
ATOM     10  N   UNL d   1      58.286  -0.983  29.942  0.00  0.00    -0.139 N 
ATOM     11  O   UNL d   1      55.317  -1.574  33.309  0.00  0.00    -0.245 OA
ATOM     12  O   UNL d   1      56.888   0.682  32.385  0.00  0.00    -0.265 OA
ATOM     13  C   UNL d   1      57.886   0.290  30.992  0.00  0.00     0.100 A 
ATOM     14  C   UNL d   1      55.968  -2.525  32.093  0.00  0.00     0.105 C 
ATOM     15  C   UNL d   1      58.439   0.420  30.374  0.00  0.00     0.039 A 
ATOM     16  C   UNL d   1      58.643  -0.231  29.837  0.00  0.00     0.100 A 
ENDROOT
BRANCH  10  17
ATOM     17  C   UNL d   1      58.708  -1.265  29.301  0.00  0.00     0.098 C 
BRANCH  17  18
ATOM     18  C   UNL d   1      58.429  -1.910  28.885  0.00  0.00     0.020 C 
BRANCH  18  19
ATOM     19  C   UNL d   1      58.909  -2.556  28.773  0.00  0.00     0.004 A 
ATOM     20  C   UNL d   1      58.585  -3.304  28.771  0.00  0.00     0.026 A 
ATOM     21  C   UNL d   1      59.064  -3.957  28.659  0.00  0.00     0.116 A 
ATOM     22  C   UNL d   1      59.873  -3.853  28.548  0.00  0.00     0.116 A 
ATOM     23  C   UNL d   1      60.193  -3.107  28.550  0.00  0.00     0.026 A 
ATOM     24  C   UNL d   1      59.709  -2.452  28.663  0.00  0.00     0.002 A 
BRANCH  21  25
ATOM     25  O   UNL d   1      58.740  -4.709  28.657  0.00  0.00    -0.326 OA
ATOM     26  C   UNL d   1      57.940  -4.809  28.716  0.00  0.00     0.181 C 
ENDBRANCH  21  25
BRANCH  22  27
ATOM     27  O   UNL d   1      60.173  -4.609  28.456  0.00  0.00    -0.326 OA
ATOM     28  C   UNL d   1      60.965  -4.751  28.570  0.00  0.00     0.181 C 
ENDBRANCH  22  27
ENDBRANCH  18  19
ENDBRANCH  17  18
ENDBRANCH  10  17
BRANCH   3  29
ATOM     29  C   UNL d   1      56.048   0.305  33.245  0.00  0.00     0.090 C 
BRANCH  29  30
ATOM     30  C   UNL d   1      55.473   0.409  33.838  0.00  0.00     0.045 A 
ATOM     31  C   UNL d   1      55.718   0.496  34.635  0.00  0.00     0.141 A 
ATOM     32  F   UNL d   1      56.529   0.480  34.831  0.00  0.00    -0.204 F 
ATOM     33  C   UNL d   1      55.143   0.601  35.235  0.00  0.00     0.030 A 
ATOM     34  C   UNL d   1      54.335   0.617  35.035  0.00  0.00     0.002 A 
ATOM     35  C   UNL d   1      54.098   0.529  34.238  0.00  0.00     0.000 A 
ATOM     36  C   UNL d   1      54.672   0.426  33.644  0.00  0.00     0.004 A 
ENDBRANCH  29  30
ENDBRANCH   3  29
TORSDOF 7
ENDMDL
