MODEL 1
REMARK VINA RESULT:      -5.6      0.000      0.000
REMARK  4 active torsions:
REMARK  status: ('A' for Active; 'I' for Inactive)
REMARK    1  A    between atoms: C_2  and  N_1 
REMARK    2  A    between atoms: C_9  and  C_10 
REMARK       I    between atoms: N_11  and  C_9 
REMARK    3  A    between atoms: C_21  and  N_11 
REMARK    4  A    between atoms: C_20  and  C_21 
ROOT
ATOM      1  C   UNL d   1      57.455   0.216  30.819  0.00  0.00     0.279 C 
ATOM      2  N   UNL d   1      58.082  -0.244  30.553  0.00  0.00    -0.206 NA
ATOM      3  O   UNL d   1      57.023   0.672  30.288  0.00  0.00    -0.265 OA
ENDROOT
BRANCH   1   4
ATOM      4  C   UNL d   1      57.256   0.222  31.624  0.00  0.00     0.059 A 
ATOM      5  C   UNL d   1      56.609  -0.230  31.886  0.00  0.00     0.028 A 
ATOM      6  C   UNL d   1      56.421  -0.216  32.690  0.00  0.00     0.127 A 
ATOM      7  C   UNL d   1      56.868   0.240  33.225  0.00  0.00     0.022 A 
ATOM      8  C   UNL d   1      57.506   0.682  32.950  0.00  0.00     0.002 A 
ATOM      9  C   UNL d   1      56.679   0.252  34.022  0.00  0.00     0.002 C 
ATOM     10  C   UNL d   1      57.705   0.677  32.150  0.00  0.00     0.005 A 
BRANCH   6  11
ATOM     11  N   UNL d   1      55.780  -0.660  32.966  0.00  0.00    -0.114 N 
ATOM     12  O   UNL d   1      55.078  -0.287  33.186  0.00  0.00    -0.532 OA
ATOM     13  O   UNL d   1      55.834  -1.481  33.026  0.00  0.00    -0.532 OA
ENDBRANCH   6  11
ENDBRANCH   1   4
BRANCH   2  14
ATOM     14  C   UNL d   1      58.280  -0.251  29.760  0.00  0.00     0.102 C 
BRANCH  14  15
ATOM     15  C   UNL d   1      58.857  -0.770  29.484  0.00  0.00     0.019 A 
ATOM     16  C   UNL d   1      58.684  -1.573  29.410  0.00  0.00     0.003 A 
ATOM     17  C   UNL d   1      59.260  -2.101  29.133  0.00  0.00     0.019 A 
ATOM     18  C   UNL d   1      59.252  -2.907  29.003  0.00  0.00     0.021 A 
ATOM     19  C   UNL d   1      60.005  -1.814  28.933  0.00  0.00     0.081 A 
ATOM     20  C   UNL d   1      59.995  -3.128  28.721  0.00  0.00     0.082 A 
ATOM     21  C   UNL d   1      60.230  -3.891  28.519  0.00  0.00     0.021 C 
ATOM     22  N   UNL d   1      60.462  -2.451  28.677  0.00  0.00    -0.246 NA
ATOM     23  C   UNL d   1      60.180  -1.015  29.006  0.00  0.00     0.019 A 
ATOM     24  C   UNL d   1      59.605  -0.491  29.282  0.00  0.00     0.003 A 
ENDBRANCH  14  15
ENDBRANCH   2  14
TORSDOF 4
ENDMDL
MODEL 2
REMARK VINA RESULT:      -5.1      1.605      5.072
REMARK  4 active torsions:
REMARK  status: ('A' for Active; 'I' for Inactive)
REMARK    1  A    between atoms: C_2  and  N_1 
REMARK    2  A    between atoms: C_9  and  C_10 
REMARK       I    between atoms: N_11  and  C_9 
REMARK    3  A    between atoms: C_21  and  N_11 
REMARK    4  A    between atoms: C_20  and  C_21 
ROOT
ATOM      1  C   UNL d   1      58.187   0.003  29.726  0.00  0.00     0.279 C 
ATOM      2  N   UNL d   1      58.009   0.028  30.528  0.00  0.00    -0.206 NA
ATOM      3  O   UNL d   1      57.795   0.499  29.200  0.00  0.00    -0.265 OA
ENDROOT
BRANCH   1   4
ATOM      4  C   UNL d   1      58.763  -0.523  29.445  0.00  0.00     0.059 A 
ATOM      5  C   UNL d   1      58.582  -1.332  29.391  0.00  0.00     0.028 A 
ATOM      6  C   UNL d   1      59.164  -1.846  29.110  0.00  0.00     0.127 A 
ATOM      7  C   UNL d   1      59.914  -1.560  28.885  0.00  0.00     0.022 A 
ATOM      8  C   UNL d   1      60.078  -0.756  28.944  0.00  0.00     0.002 A 
ATOM      9  C   UNL d   1      60.489  -2.073  28.606  0.00  0.00     0.002 C 
ATOM     10  C   UNL d   1      59.506  -0.232  29.224  0.00  0.00     0.005 A 
BRANCH   6  11
ATOM     11  N   UNL d   1      59.000  -2.656  29.050  0.00  0.00    -0.114 N 
ATOM     12  O   UNL d   1      59.330  -3.188  29.586  0.00  0.00    -0.532 OA
ATOM     13  O   UNL d   1      58.505  -2.940  28.455  0.00  0.00    -0.532 OA
ENDBRANCH   6  11
ENDBRANCH   1   4
BRANCH   2  14
ATOM     14  C   UNL d   1      57.441   0.546  30.808  0.00  0.00     0.102 C 
BRANCH  14  15
ATOM     15  C   UNL d   1      57.244   0.549  31.608  0.00  0.00     0.019 A 
ATOM     16  C   UNL d   1      56.461   0.425  31.837  0.00  0.00     0.003 A 
ATOM     17  C   UNL d   1      56.256   0.427  32.639  0.00  0.00     0.019 A 
ATOM     18  C   UNL d   1      55.544   0.323  33.027  0.00  0.00     0.021 A 
ATOM     19  C   UNL d   1      56.841   0.554  33.204  0.00  0.00     0.081 A 
ATOM     20  C   UNL d   1      55.684   0.384  33.837  0.00  0.00     0.082 A 
ATOM     21  C   UNL d   1      55.118   0.315  34.433  0.00  0.00     0.021 C 
ATOM     22  N   UNL d   1      56.487   0.528  33.948  0.00  0.00    -0.246 NA
ATOM     23  C   UNL d   1      57.622   0.678  32.978  0.00  0.00     0.019 A 
ATOM     24  C   UNL d   1      57.824   0.676  32.178  0.00  0.00     0.003 A 
ENDBRANCH  14  15
ENDBRANCH   2  14
TORSDOF 4
ENDMDL
