MODEL 1
REMARK VINA RESULT:      -6.1      0.000      0.000
REMARK  2 active torsions:
REMARK  status: ('A' for Active; 'I' for Inactive)
REMARK    1  A    between atoms: C_4  and  C_3 
REMARK    2  A    between atoms: S_11  and  C_6 
ROOT
ATOM      1  N   UNL d   1     -48.717  13.792  23.250  0.00  0.00    -0.146 NA
ATOM      2  N   UNL d   1     -49.452  14.169  23.287  0.00  0.00    -0.142 NA
ATOM      3  C   UNL d   1     -48.074  14.182  22.917  0.00  0.00     0.126 A 
ATOM      4  C   UNL d   1     -49.540  14.933  22.990  0.00  0.00     0.128 A 
ATOM      5  C   UNL d   1     -48.161  14.946  22.620  0.00  0.00     0.025 A 
ATOM      6  C   UNL d   1     -48.893  15.321  22.657  0.00  0.00     0.029 A 
ENDROOT
BRANCH   3   7
ATOM      7  C   UNL d   1     -47.343  13.815  22.877  0.00  0.00     0.119 A 
ATOM      8  O   UNL d   1     -47.199  13.013  22.998  0.00  0.00    -0.304 OA
ATOM      9  C   UNL d   1     -46.389  12.871  22.908  0.00  0.00     0.123 A 
ATOM     10  C   UNL d   1     -46.025  13.597  22.727  0.00  0.00     0.029 A 
ATOM     11  C   UNL d   1     -46.617  14.176  22.709  0.00  0.00     0.028 A 
ENDBRANCH   3   7
BRANCH   4  12
ATOM     12  S   UNL d   1     -50.275  15.310  23.027  0.00  0.00    -0.092 SA
ATOM     13  C   UNL d   1     -50.481  15.749  23.694  0.00  0.00     0.076 C 
ENDBRANCH   4  12
TORSDOF 2
ENDMDL
MODEL 2
REMARK VINA RESULT:      -6.0      1.435      1.543
REMARK  2 active torsions:
REMARK  status: ('A' for Active; 'I' for Inactive)
REMARK    1  A    between atoms: C_4  and  C_3 
REMARK    2  A    between atoms: S_11  and  C_6 
ROOT
ATOM      1  N   UNL d   1     -48.901  13.513  22.989  0.00  0.00    -0.146 NA
ATOM      2  N   UNL d   1     -49.686  13.491  22.729  0.00  0.00    -0.142 NA
ATOM      3  C   UNL d   1     -48.290  13.361  22.459  0.00  0.00     0.126 A 
ATOM      4  C   UNL d   1     -49.855  13.317  21.940  0.00  0.00     0.128 A 
ATOM      5  C   UNL d   1     -48.459  13.187  21.671  0.00  0.00     0.025 A 
ATOM      6  C   UNL d   1     -49.240  13.165  21.412  0.00  0.00     0.029 A 
ENDROOT
BRANCH   3   7
ATOM      7  C   UNL d   1     -47.511  13.380  22.710  0.00  0.00     0.119 A 
ATOM      8  O   UNL d   1     -47.047  12.725  22.891  0.00  0.00    -0.304 OA
ATOM      9  C   UNL d   1     -46.296  12.986  23.121  0.00  0.00     0.123 A 
ATOM     10  C   UNL d   1     -46.295  13.816  23.081  0.00  0.00     0.029 A 
ATOM     11  C   UNL d   1     -47.046  14.055  22.828  0.00  0.00     0.028 A 
ENDBRANCH   3   7
BRANCH   4  12
ATOM     12  S   UNL d   1     -50.639  13.296  21.680  0.00  0.00    -0.092 SA
ATOM     13  C   UNL d   1     -51.059  13.998  21.572  0.00  0.00     0.076 C 
ENDBRANCH   4  12
TORSDOF 2
ENDMDL
MODEL 3
REMARK VINA RESULT:      -5.9      1.777      3.228
REMARK  2 active torsions:
REMARK  status: ('A' for Active; 'I' for Inactive)
REMARK    1  A    between atoms: C_4  and  C_3 
REMARK    2  A    between atoms: S_11  and  C_6 
ROOT
ATOM      1  N   UNL d   1     -48.481  13.099  23.220  0.00  0.00    -0.146 NA
ATOM      2  N   UNL d   1     -47.897  12.526  23.342  0.00  0.00    -0.142 NA
ATOM      3  C   UNL d   1     -48.269  13.852  22.967  0.00  0.00     0.126 A 
ATOM      4  C   UNL d   1     -47.104  12.711  23.211  0.00  0.00     0.128 A 
ATOM      5  C   UNL d   1     -47.475  14.037  22.835  0.00  0.00     0.025 A 
ATOM      6  C   UNL d   1     -46.894  13.467  22.957  0.00  0.00     0.029 A 
ENDROOT
BRANCH   3   7
ATOM      7  C   UNL d   1     -48.842  14.424  22.843  0.00  0.00     0.119 A 
ATOM      8  O   UNL d   1     -48.983  15.076  23.326  0.00  0.00    -0.304 OA
ATOM      9  C   UNL d   1     -49.608  15.514  23.005  0.00  0.00     0.123 A 
ATOM     10  C   UNL d   1     -49.856  15.128  22.313  0.00  0.00     0.029 A 
ATOM     11  C   UNL d   1     -49.381  14.456  22.216  0.00  0.00     0.028 A 
ENDBRANCH   3   7
BRANCH   4  12
ATOM     12  S   UNL d   1     -46.519  12.139  23.333  0.00  0.00    -0.092 SA
ATOM     13  C   UNL d   1     -46.711  11.424  23.698  0.00  0.00     0.076 C 
ENDBRANCH   4  12
TORSDOF 2
ENDMDL
MODEL 4
REMARK VINA RESULT:      -5.9      2.215      3.407
REMARK  2 active torsions:
REMARK  status: ('A' for Active; 'I' for Inactive)
REMARK    1  A    between atoms: C_4  and  C_3 
REMARK    2  A    between atoms: S_11  and  C_6 
ROOT
ATOM      1  N   UNL d   1     -48.355  13.625  22.891  0.00  0.00    -0.146 NA
ATOM      2  N   UNL d   1     -47.562  13.856  22.855  0.00  0.00    -0.142 NA
ATOM      3  C   UNL d   1     -48.550  12.871  23.158  0.00  0.00     0.126 A 
ATOM      4  C   UNL d   1     -46.968  13.331  23.084  0.00  0.00     0.128 A 
ATOM      5  C   UNL d   1     -47.956  12.347  23.387  0.00  0.00     0.025 A 
ATOM      6  C   UNL d   1     -47.167  12.576  23.351  0.00  0.00     0.029 A 
ENDROOT
BRANCH   3   7
ATOM      7  C   UNL d   1     -49.333  12.636  23.197  0.00  0.00     0.119 A 
ATOM      8  O   UNL d   1     -49.906  12.951  23.697  0.00  0.00    -0.304 OA
ATOM      9  C   UNL d   1     -50.623  12.558  23.562  0.00  0.00     0.123 A 
ATOM     10  C   UNL d   1     -50.490  11.992  22.968  0.00  0.00     0.029 A 
ATOM     11  C   UNL d   1     -49.694  12.043  22.746  0.00  0.00     0.028 A 
ENDBRANCH   3   7
BRANCH   4  12
ATOM     12  S   UNL d   1     -46.175  13.562  23.048  0.00  0.00    -0.092 SA
ATOM     13  C   UNL d   1     -45.770  13.536  22.329  0.00  0.00     0.076 C 
ENDBRANCH   4  12
TORSDOF 2
ENDMDL
