MODEL 1
REMARK VINA RESULT:       3.7      0.000      0.000
REMARK  6 active torsions:
REMARK  status: ('A' for Active; 'I' for Inactive)
REMARK    1  A    between atoms: N_6  and  C_1 
REMARK    2  A    between atoms: C_4  and  C_2 
REMARK    3  A    between atoms: C_7  and  C_4 
REMARK    4  A    between atoms: C_8  and  C_4 
REMARK    5  A    between atoms: O_12  and  C_7 
REMARK    6  A    between atoms: C_16  and  O_12 
ROOT
ATOM      1  C   UNL d   1      58.148   0.206  31.971  0.00  0.00     0.166 A 
ATOM      2  C   UNL d   1      58.341   0.342  31.180  0.00  0.00     0.122 A 
ATOM      3  N   UNL d   1      58.738   0.221  32.554  0.00  0.00    -0.225 NA
ATOM      4  N   UNL d   1      59.127   0.495  30.973  0.00  0.00    -0.241 NA
ATOM      5  C   UNL d   1      59.522   0.375  32.339  0.00  0.00     0.101 A 
ATOM      6  C   UNL d   1      59.713   0.511  31.552  0.00  0.00     0.099 A 
ATOM      7  C   UNL d   1      60.100   0.390  32.915  0.00  0.00     0.021 A 
ATOM      8  C   UNL d   1      60.496   0.664  31.341  0.00  0.00     0.021 A 
ATOM      9  C   UNL d   1      61.079   0.680  31.918  0.00  0.00     0.002 A 
ATOM     10  C   UNL d   1      60.886   0.543  32.708  0.00  0.00     0.002 A 
ENDROOT
BRANCH   2  11
ATOM     11  C   UNL d   1      57.751   0.327  30.597  0.00  0.00     0.105 C 
BRANCH  11  12
ATOM     12  C   UNL d   1      57.896  -0.042  29.873  0.00  0.00     0.303 C 
ATOM     13  O   UNL d   1      57.829   0.388  29.174  0.00  0.00    -0.259 OA
BRANCH  12  14
ATOM     14  O   UNL d   1      58.106  -0.835  29.850  0.00  0.00    -0.273 OA
BRANCH  14  15
ATOM     15  C   UNL d   1      58.458  -1.464  29.456  0.00  0.00     0.103 A 
ATOM     16  C   UNL d   1      58.094  -2.204  29.464  0.00  0.00     0.025 A 
ATOM     17  C   UNL d   1      58.441  -2.835  29.073  0.00  0.00     0.002 A 
ATOM     18  C   UNL d   1      59.147  -2.729  28.676  0.00  0.00     0.000 A 
ATOM     19  C   UNL d   1      59.510  -1.997  28.666  0.00  0.00     0.002 A 
ATOM     20  C   UNL d   1      59.163  -1.356  29.060  0.00  0.00     0.025 A 
ENDBRANCH  14  15
ENDBRANCH  12  14
ENDBRANCH  11  12
BRANCH  11  21
ATOM     21  C   UNL d   1      57.012   0.681  30.735  0.00  0.00     0.129 C 
ATOM     22  N   UNL d   1      56.287   0.622  30.122  0.00  0.00    -0.146 N 
ENDBRANCH  11  21
ENDBRANCH   2  11
BRANCH   1  23
ATOM     23  N   UNL d   1      57.364   0.052  32.185  0.00  0.00    -0.288 N 
ATOM     24  C   UNL d   1      57.115  -0.735  32.284  0.00  0.00     0.082 A 
ATOM     25  C   UNL d   1      56.325  -0.883  32.500  0.00  0.00     0.018 A 
ATOM     26  C   UNL d   1      56.070  -1.663  32.601  0.00  0.00     0.002 C 
ATOM     27  C   UNL d   1      55.795  -0.255  32.615  0.00  0.00     0.003 A 
ATOM     28  C   UNL d   1      56.055   0.520  32.513  0.00  0.00     0.019 A 
ATOM     29  C   UNL d   1      56.834   0.680  32.300  0.00  0.00     0.082 A 
ENDBRANCH   1  23
TORSDOF 6
ENDMDL
MODEL 2
REMARK VINA RESULT:       6.5      1.520      2.318
REMARK  6 active torsions:
REMARK  status: ('A' for Active; 'I' for Inactive)
REMARK    1  A    between atoms: N_6  and  C_1 
REMARK    2  A    between atoms: C_4  and  C_2 
REMARK    3  A    between atoms: C_7  and  C_4 
REMARK    4  A    between atoms: C_8  and  C_4 
REMARK    5  A    between atoms: O_12  and  C_7 
REMARK    6  A    between atoms: C_16  and  O_12 
ROOT
ATOM      1  C   UNL d   1      56.799  -0.160  33.449  0.00  0.00     0.166 A 
ATOM      2  C   UNL d   1      57.228  -0.206  32.745  0.00  0.00     0.122 A 
ATOM      3  N   UNL d   1      57.171   0.073  34.152  0.00  0.00    -0.225 NA
ATOM      4  N   UNL d   1      58.034  -0.017  32.747  0.00  0.00    -0.241 NA
ATOM      5  C   UNL d   1      57.978   0.260  34.145  0.00  0.00     0.101 A 
ATOM      6  C   UNL d   1      58.405   0.215  33.446  0.00  0.00     0.099 A 
ATOM      7  C   UNL d   1      58.342   0.489  34.840  0.00  0.00     0.021 A 
ATOM      8  C   UNL d   1      59.208   0.403  33.443  0.00  0.00     0.021 A 
ATOM      9  C   UNL d   1      59.576   0.633  34.139  0.00  0.00     0.002 A 
ATOM     10  C   UNL d   1      59.147   0.678  34.842  0.00  0.00     0.002 A 
ENDROOT
BRANCH   2  11
ATOM     11  C   UNL d   1      56.856  -0.439  32.042  0.00  0.00     0.105 C 
BRANCH  11  12
ATOM     12  C   UNL d   1      56.961   0.003  31.353  0.00  0.00     0.303 C 
ATOM     13  O   UNL d   1      56.394   0.557  31.132  0.00  0.00    -0.259 OA
BRANCH  12  14
ATOM     14  O   UNL d   1      57.629  -0.109  30.889  0.00  0.00    -0.273 OA
BRANCH  14  15
ATOM     15  C   UNL d   1      58.006  -0.048  30.162  0.00  0.00     0.103 A 
ATOM     16  C   UNL d   1      58.474  -0.671  29.893  0.00  0.00     0.025 A 
ATOM     17  C   UNL d   1      58.852  -0.615  29.168  0.00  0.00     0.002 A 
ATOM     18  C   UNL d   1      58.764   0.058  28.714  0.00  0.00     0.000 A 
ATOM     19  C   UNL d   1      58.301   0.678  28.978  0.00  0.00     0.002 A 
ATOM     20  C   UNL d   1      57.917   0.626  29.710  0.00  0.00     0.025 A 
ENDBRANCH  14  15
ENDBRANCH  12  14
ENDBRANCH  11  12
BRANCH  11  21
ATOM     21  C   UNL d   1      56.376  -1.117  32.024  0.00  0.00     0.129 C 
ATOM     22  N   UNL d   1      56.603  -1.899  31.531  0.00  0.00    -0.146 N 
ENDBRANCH  11  21
ENDBRANCH   2  11
BRANCH   1  23
ATOM     23  N   UNL d   1      55.994  -0.348  33.455  0.00  0.00    -0.288 N 
ATOM     24  C   UNL d   1      55.432   0.265  33.489  0.00  0.00     0.082 A 
ATOM     25  C   UNL d   1      54.623   0.069  33.494  0.00  0.00     0.018 A 
ATOM     26  C   UNL d   1      54.059   0.673  33.528  0.00  0.00     0.002 C 
ATOM     27  C   UNL d   1      54.381  -0.724  33.467  0.00  0.00     0.003 A 
ATOM     28  C   UNL d   1      54.948  -1.321  33.433  0.00  0.00     0.019 A 
ATOM     29  C   UNL d   1      55.751  -1.141  33.427  0.00  0.00     0.082 A 
ENDBRANCH   1  23
TORSDOF 6
ENDMDL
