MODEL 1
REMARK VINA RESULT:      -2.7      0.000      0.000
REMARK  3 active torsions:
REMARK  status: ('A' for Active; 'I' for Inactive)
REMARK    1  A    between atoms: C_6  and  C_1 
REMARK    2  A    between atoms: C_7  and  N_3 
REMARK    3  A    between atoms: C_10  and  C_7 
ROOT
ATOM      1  C   UNL d   1      32.827  21.293 -21.578  0.00  0.00     0.148 A 
ATOM      2  N   UNL d   1      32.795  20.472 -21.442  0.00  0.00    -0.227 NA
ATOM      3  N   UNL d   1      32.989  21.380 -22.381  0.00  0.00    -0.289 N 
ATOM      4  C   UNL d   1      33.055  20.657 -22.728  0.00  0.00     0.083 A 
ATOM      5  C   UNL d   1      32.933  20.087 -22.139  0.00  0.00     0.099 A 
ATOM      6  C   UNL d   1      33.210  20.418 -23.502  0.00  0.00     0.019 A 
ATOM      7  C   UNL d   1      32.972  19.304 -22.350  0.00  0.00     0.021 A 
ATOM      8  C   UNL d   1      33.241  19.636 -23.677  0.00  0.00     0.002 A 
ATOM      9  C   UNL d   1      33.119  19.067 -23.088  0.00  0.00     0.002 A 
ENDROOT
BRANCH   1  10
ATOM     10  C   UNL d   1      32.717  21.894 -21.019  0.00  0.00     0.035 A 
ATOM     11  C   UNL d   1      33.241  21.972 -20.388  0.00  0.00     0.005 A 
ATOM     12  C   UNL d   1      33.131  22.573 -19.830  0.00  0.00     0.021 A 
ATOM     13  C   UNL d   1      32.498  23.095 -19.902  0.00  0.00     0.103 A 
ATOM     14  C   UNL d   1      31.972  23.017 -20.535  0.00  0.00     0.021 A 
ATOM     15  N   UNL d   1      32.389  23.695 -19.343  0.00  0.00    -0.148 N 
ATOM     16  C   UNL d   1      32.081  22.416 -21.093  0.00  0.00     0.005 A 
ENDBRANCH   1  10
BRANCH   3  17
ATOM     17  C   UNL d   1      33.043  22.156 -22.628  0.00  0.00     0.082 C 
BRANCH  17  18
ATOM     18  C   UNL d   1      33.144  22.367 -23.408  0.00  0.00     0.019 C 
ATOM     19  C   UNL d   1      33.240  23.143 -23.654  0.00  0.00     0.002 C 
ENDBRANCH  17  18
ENDBRANCH   3  17
TORSDOF 3
ENDMDL
MODEL 2
REMARK VINA RESULT:      -2.4      5.527      6.645
REMARK  3 active torsions:
REMARK  status: ('A' for Active; 'I' for Inactive)
REMARK    1  A    between atoms: C_6  and  C_1 
REMARK    2  A    between atoms: C_7  and  N_3 
REMARK    3  A    between atoms: C_10  and  C_7 
ROOT
ATOM      1  C   UNL d   1      30.380  15.999 -23.873  0.00  0.00     0.148 A 
ATOM      2  N   UNL d   1      30.982  15.477 -23.634  0.00  0.00    -0.227 NA
ATOM      3  N   UNL d   1      30.766  16.658 -24.182  0.00  0.00    -0.289 N 
ATOM      4  C   UNL d   1      31.563  16.554 -24.138  0.00  0.00     0.083 A 
ATOM      5  C   UNL d   1      31.698  15.813 -23.794  0.00  0.00     0.099 A 
ATOM      6  C   UNL d   1      32.203  17.025 -24.360  0.00  0.00     0.019 A 
ATOM      7  C   UNL d   1      32.467  15.574 -23.687  0.00  0.00     0.021 A 
ATOM      8  C   UNL d   1      32.951  16.759 -24.241  0.00  0.00     0.002 A 
ATOM      9  C   UNL d   1      33.085  16.018 -23.897  0.00  0.00     0.002 A 
ENDROOT
BRANCH   1  10
ATOM     10  C   UNL d   1      29.563  15.878 -23.813  0.00  0.00     0.035 A 
ATOM     11  C   UNL d   1      29.169  16.062 -23.113  0.00  0.00     0.005 A 
ATOM     12  C   UNL d   1      28.352  15.941 -23.053  0.00  0.00     0.021 A 
ATOM     13  C   UNL d   1      27.930  15.637 -23.691  0.00  0.00     0.103 A 
ATOM     14  C   UNL d   1      28.325  15.453 -24.394  0.00  0.00     0.021 A 
ATOM     15  N   UNL d   1      27.114  15.516 -23.631  0.00  0.00    -0.148 N 
ATOM     16  C   UNL d   1      29.142  15.573 -24.455  0.00  0.00     0.005 A 
ENDBRANCH   1  10
BRANCH   3  17
ATOM     17  C   UNL d   1      30.266  17.243 -24.451  0.00  0.00     0.082 C 
BRANCH  17  18
ATOM     18  C   UNL d   1      30.517  17.863 -24.917  0.00  0.00     0.019 C 
ATOM     19  C   UNL d   1      30.045  18.509 -25.097  0.00  0.00     0.002 C 
ENDBRANCH  17  18
ENDBRANCH   3  17
TORSDOF 3
ENDMDL
MODEL 3
REMARK VINA RESULT:      -2.4      3.737      5.780
REMARK  3 active torsions:
REMARK  status: ('A' for Active; 'I' for Inactive)
REMARK    1  A    between atoms: C_6  and  C_1 
REMARK    2  A    between atoms: C_7  and  N_3 
REMARK    3  A    between atoms: C_10  and  C_7 
ROOT
ATOM      1  C   UNL d   1      30.791  17.518 -24.196  0.00  0.00     0.148 A 
ATOM      2  N   UNL d   1      29.984  17.641 -24.359  0.00  0.00    -0.227 NA
ATOM      3  N   UNL d   1      30.850  16.736 -23.943  0.00  0.00    -0.289 N 
ATOM      4  C   UNL d   1      30.124  16.390 -23.948  0.00  0.00     0.083 A 
ATOM      5  C   UNL d   1      29.580  16.958 -24.209  0.00  0.00     0.099 A 
ATOM      6  C   UNL d   1      29.862  15.633 -23.753  0.00  0.00     0.019 A 
ATOM      7  C   UNL d   1      28.798  16.744 -24.264  0.00  0.00     0.021 A 
ATOM      8  C   UNL d   1      29.083  15.454 -23.818  0.00  0.00     0.002 A 
ATOM      9  C   UNL d   1      28.539  16.021 -24.079  0.00  0.00     0.002 A 
ENDROOT
BRANCH   1  10
ATOM     10  C   UNL d   1      31.404  18.070 -24.272  0.00  0.00     0.035 A 
ATOM     11  C   UNL d   1      31.721  18.234 -25.014  0.00  0.00     0.005 A 
ATOM     12  C   UNL d   1      32.334  18.786 -25.090  0.00  0.00     0.021 A 
ATOM     13  C   UNL d   1      32.629  19.172 -24.425  0.00  0.00     0.103 A 
ATOM     14  C   UNL d   1      32.311  19.007 -23.679  0.00  0.00     0.021 A 
ATOM     15  N   UNL d   1      33.241  19.722 -24.501  0.00  0.00    -0.148 N 
ATOM     16  C   UNL d   1      31.698  18.456 -23.603  0.00  0.00     0.005 A 
ENDBRANCH   1  10
BRANCH   3  17
ATOM     17  C   UNL d   1      31.609  16.503 -23.753  0.00  0.00     0.082 C 
BRANCH  17  18
ATOM     18  C   UNL d   1      31.793  15.749 -23.507  0.00  0.00     0.019 C 
ATOM     19  C   UNL d   1      32.558  15.453 -23.500  0.00  0.00     0.002 C 
ENDBRANCH  17  18
ENDBRANCH   3  17
TORSDOF 3
ENDMDL
MODEL 4
REMARK VINA RESULT:      -2.2      4.578      6.341
REMARK  3 active torsions:
REMARK  status: ('A' for Active; 'I' for Inactive)
REMARK    1  A    between atoms: C_6  and  C_1 
REMARK    2  A    between atoms: C_7  and  N_3 
REMARK    3  A    between atoms: C_10  and  C_7 
ROOT
ATOM      1  C   UNL d   1      30.805  17.266 -24.562  0.00  0.00     0.148 A 
ATOM      2  N   UNL d   1      30.896  18.005 -24.934  0.00  0.00    -0.227 NA
ATOM      3  N   UNL d   1      31.544  17.082 -24.248  0.00  0.00    -0.289 N 
ATOM      4  C   UNL d   1      32.067  17.672 -24.413  0.00  0.00     0.083 A 
ATOM      5  C   UNL d   1      31.660  18.251 -24.843  0.00  0.00     0.099 A 
ATOM      6  C   UNL d   1      32.866  17.778 -24.238  0.00  0.00     0.019 A 
ATOM      7  C   UNL d   1      32.069  18.912 -25.080  0.00  0.00     0.021 A 
ATOM      8  C   UNL d   1      33.241  18.442 -24.486  0.00  0.00     0.002 A 
ATOM      9  C   UNL d   1      32.834  19.021 -24.916  0.00  0.00     0.002 A 
ENDROOT
BRANCH   1  10
ATOM     10  C   UNL d   1      30.114  16.813 -24.519  0.00  0.00     0.035 A 
ATOM     11  C   UNL d   1      29.485  17.061 -24.050  0.00  0.00     0.005 A 
ATOM     12  C   UNL d   1      28.794  16.608 -24.007  0.00  0.00     0.021 A 
ATOM     13  C   UNL d   1      28.732  15.906 -24.434  0.00  0.00     0.103 A 
ATOM     14  C   UNL d   1      29.363  15.655 -24.906  0.00  0.00     0.021 A 
ATOM     15  N   UNL d   1      28.042  15.452 -24.391  0.00  0.00    -0.148 N 
ATOM     16  C   UNL d   1      30.054  16.109 -24.949  0.00  0.00     0.005 A 
ENDBRANCH   1  10
BRANCH   3  17
ATOM     17  C   UNL d   1      31.572  16.368 -23.856  0.00  0.00     0.082 C 
BRANCH  17  18
ATOM     18  C   UNL d   1      32.057  16.232 -23.215  0.00  0.00     0.019 C 
ATOM     19  C   UNL d   1      32.159  15.490 -22.880  0.00  0.00     0.002 C 
ENDBRANCH  17  18
ENDBRANCH   3  17
TORSDOF 3
ENDMDL
MODEL 5
REMARK VINA RESULT:      -2.0      1.214      2.359
REMARK  3 active torsions:
REMARK  status: ('A' for Active; 'I' for Inactive)
REMARK    1  A    between atoms: C_6  and  C_1 
REMARK    2  A    between atoms: C_7  and  N_3 
REMARK    3  A    between atoms: C_10  and  C_7 
ROOT
ATOM      1  C   UNL d   1      32.734  22.981 -21.546  0.00  0.00     0.148 A 
ATOM      2  N   UNL d   1      32.622  23.511 -22.177  0.00  0.00    -0.227 NA
ATOM      3  N   UNL d   1      32.985  22.275 -21.890  0.00  0.00    -0.289 N 
ATOM      4  C   UNL d   1      33.027  22.359 -22.689  0.00  0.00     0.083 A 
ATOM      5  C   UNL d   1      32.800  23.134 -22.869  0.00  0.00     0.099 A 
ATOM      6  C   UNL d   1      33.241  21.844 -23.297  0.00  0.00     0.019 A 
ATOM      7  C   UNL d   1      32.795  23.362 -23.649  0.00  0.00     0.021 A 
ATOM      8  C   UNL d   1      33.226  22.100 -24.057  0.00  0.00     0.002 A 
ATOM      9  C   UNL d   1      32.998  22.875 -24.237  0.00  0.00     0.002 A 
ENDROOT
BRANCH   1  10
ATOM     10  C   UNL d   1      32.617  23.133 -20.741  0.00  0.00     0.035 A 
ATOM     11  C   UNL d   1      31.881  23.000 -20.398  0.00  0.00     0.005 A 
ATOM     12  C   UNL d   1      31.764  23.153 -19.592  0.00  0.00     0.021 A 
ATOM     13  C   UNL d   1      32.384  23.439 -19.131  0.00  0.00     0.103 A 
ATOM     14  C   UNL d   1      33.124  23.573 -19.475  0.00  0.00     0.021 A 
ATOM     15  N   UNL d   1      32.267  23.591 -18.326  0.00  0.00    -0.148 N 
ATOM     16  C   UNL d   1      33.241  23.420 -20.280  0.00  0.00     0.005 A 
ENDBRANCH   1  10
BRANCH   3  17
ATOM     17  C   UNL d   1      33.127  21.675 -21.355  0.00  0.00     0.082 C 
BRANCH  17  18
ATOM     18  C   UNL d   1      32.912  20.901 -21.490  0.00  0.00     0.019 C 
ATOM     19  C   UNL d   1      33.241  20.267 -21.086  0.00  0.00     0.002 C 
ENDBRANCH  17  18
ENDBRANCH   3  17
TORSDOF 3
ENDMDL
MODEL 6
REMARK VINA RESULT:      -1.7      0.887      1.226
REMARK  3 active torsions:
REMARK  status: ('A' for Active; 'I' for Inactive)
REMARK    1  A    between atoms: C_6  and  C_1 
REMARK    2  A    between atoms: C_7  and  N_3 
REMARK    3  A    between atoms: C_10  and  C_7 
ROOT
ATOM      1  C   UNL d   1      32.841  20.174 -22.103  0.00  0.00     0.148 A 
ATOM      2  N   UNL d   1      32.750  19.348 -22.064  0.00  0.00    -0.227 NA
ATOM      3  N   UNL d   1      33.025  20.341 -22.888  0.00  0.00    -0.289 N 
ATOM      4  C   UNL d   1      33.047  19.660 -23.316  0.00  0.00     0.083 A 
ATOM      5  C   UNL d   1      32.875  19.037 -22.799  0.00  0.00     0.099 A 
ATOM      6  C   UNL d   1      33.199  19.501 -24.111  0.00  0.00     0.019 A 
ATOM      7  C   UNL d   1      32.862  18.281 -23.098  0.00  0.00     0.021 A 
ATOM      8  C   UNL d   1      33.179  18.744 -24.375  0.00  0.00     0.002 A 
ATOM      9  C   UNL d   1      33.007  18.121 -23.858  0.00  0.00     0.002 A 
ENDROOT
BRANCH   1  10
ATOM     10  C   UNL d   1      32.763  20.713 -21.479  0.00  0.00     0.035 A 
ATOM     11  C   UNL d   1      33.240  20.644 -20.811  0.00  0.00     0.005 A 
ATOM     12  C   UNL d   1      33.162  21.183 -20.188  0.00  0.00     0.021 A 
ATOM     13  C   UNL d   1      32.608  21.791 -20.233  0.00  0.00     0.103 A 
ATOM     14  C   UNL d   1      32.128  21.861 -20.903  0.00  0.00     0.021 A 
ATOM     15  N   UNL d   1      32.530  22.329 -19.610  0.00  0.00    -0.148 N 
ATOM     16  C   UNL d   1      32.206  21.322 -21.527  0.00  0.00     0.005 A 
ENDBRANCH   1  10
BRANCH   3  17
ATOM     17  C   UNL d   1      33.137  21.134 -23.044  0.00  0.00     0.082 C 
BRANCH  17  18
ATOM     18  C   UNL d   1      33.240  21.429 -23.796  0.00  0.00     0.019 C 
ATOM     19  C   UNL d   1      33.146  22.221 -23.985  0.00  0.00     0.002 C 
ENDBRANCH  17  18
ENDBRANCH   3  17
TORSDOF 3
ENDMDL
MODEL 7
REMARK VINA RESULT:      -1.4      2.467      4.621
REMARK  3 active torsions:
REMARK  status: ('A' for Active; 'I' for Inactive)
REMARK    1  A    between atoms: C_6  and  C_1 
REMARK    2  A    between atoms: C_7  and  N_3 
REMARK    3  A    between atoms: C_10  and  C_7 
ROOT
ATOM      1  C   UNL d   1      32.716  18.892 -23.908  0.00  0.00     0.148 A 
ATOM      2  N   UNL d   1      32.659  19.257 -24.654  0.00  0.00    -0.227 NA
ATOM      3  N   UNL d   1      32.934  19.489 -23.384  0.00  0.00    -0.289 N 
ATOM      4  C   UNL d   1      33.010  20.187 -23.779  0.00  0.00     0.083 A 
ATOM      5  C   UNL d   1      32.837  20.041 -24.575  0.00  0.00     0.099 A 
ATOM      6  C   UNL d   1      33.213  20.949 -23.537  0.00  0.00     0.019 A 
ATOM      7  C   UNL d   1      32.874  20.663 -25.097  0.00  0.00     0.021 A 
ATOM      8  C   UNL d   1      33.241  21.541 -24.077  0.00  0.00     0.002 A 
ATOM      9  C   UNL d   1      33.068  21.396 -24.874  0.00  0.00     0.002 A 
ENDROOT
BRANCH   1  10
ATOM     10  C   UNL d   1      32.580  18.095 -23.733  0.00  0.00     0.035 A 
ATOM     11  C   UNL d   1      31.810  17.815 -23.650  0.00  0.00     0.005 A 
ATOM     12  C   UNL d   1      31.674  17.018 -23.474  0.00  0.00     0.021 A 
ATOM     13  C   UNL d   1      32.308  16.500 -23.382  0.00  0.00     0.103 A 
ATOM     14  C   UNL d   1      33.082  16.780 -23.464  0.00  0.00     0.021 A 
ATOM     15  N   UNL d   1      32.173  15.704 -23.206  0.00  0.00    -0.148 N 
ATOM     16  C   UNL d   1      33.218  17.578 -23.640  0.00  0.00     0.005 A 
ENDBRANCH   1  10
BRANCH   3  17
ATOM     17  C   UNL d   1      33.020  19.241 -22.612  0.00  0.00     0.082 C 
BRANCH  17  18
ATOM     18  C   UNL d   1      33.146  19.755 -21.992  0.00  0.00     0.019 C 
ATOM     19  C   UNL d   1      33.107  19.526 -21.205  0.00  0.00     0.002 C 
ENDBRANCH  17  18
ENDBRANCH   3  17
TORSDOF 3
ENDMDL
MODEL 8
REMARK VINA RESULT:      -1.1      1.180      3.572
REMARK  3 active torsions:
REMARK  status: ('A' for Active; 'I' for Inactive)
REMARK    1  A    between atoms: C_6  and  C_1 
REMARK    2  A    between atoms: C_7  and  N_3 
REMARK    3  A    between atoms: C_10  and  C_7 
ROOT
ATOM      1  C   UNL d   1      32.779  20.393 -22.256  0.00  0.00     0.148 A 
ATOM      2  N   UNL d   1      32.603  20.616 -21.475  0.00  0.00    -0.227 NA
ATOM      3  N   UNL d   1      33.017  21.084 -22.637  0.00  0.00    -0.289 N 
ATOM      4  C   UNL d   1      32.991  21.703 -22.124  0.00  0.00     0.083 A 
ATOM      5  C   UNL d   1      32.732  21.410 -21.395  0.00  0.00     0.099 A 
ATOM      6  C   UNL d   1      33.166  22.505 -22.204  0.00  0.00     0.019 A 
ATOM      7  C   UNL d   1      32.657  21.931 -20.776  0.00  0.00     0.021 A 
ATOM      8  C   UNL d   1      33.082  22.993 -21.573  0.00  0.00     0.002 A 
ATOM      9  C   UNL d   1      32.822  22.700 -20.844  0.00  0.00     0.002 A 
ENDROOT
BRANCH   1  10
ATOM     10  C   UNL d   1      32.726  19.633 -22.581  0.00  0.00     0.035 A 
ATOM     11  C   UNL d   1      33.241  19.041 -22.333  0.00  0.00     0.005 A 
ATOM     12  C   UNL d   1      33.187  18.281 -22.657  0.00  0.00     0.021 A 
ATOM     13  C   UNL d   1      32.619  18.114 -23.230  0.00  0.00     0.103 A 
ATOM     14  C   UNL d   1      32.101  18.709 -23.480  0.00  0.00     0.021 A 
ATOM     15  N   UNL d   1      32.566  17.355 -23.554  0.00  0.00    -0.148 N 
ATOM     16  C   UNL d   1      32.155  19.469 -23.155  0.00  0.00     0.005 A 
ENDBRANCH   1  10
BRANCH   3  17
ATOM     17  C   UNL d   1      33.217  20.981 -23.422  0.00  0.00     0.082 C 
BRANCH  17  18
ATOM     18  C   UNL d   1      33.164  21.576 -23.975  0.00  0.00     0.019 C 
ATOM     19  C   UNL d   1      33.241  21.448 -24.782  0.00  0.00     0.002 C 
ENDBRANCH  17  18
ENDBRANCH   3  17
TORSDOF 3
ENDMDL
MODEL 9
REMARK VINA RESULT:       0.0      1.232      3.737
REMARK  3 active torsions:
REMARK  status: ('A' for Active; 'I' for Inactive)
REMARK    1  A    between atoms: C_6  and  C_1 
REMARK    2  A    between atoms: C_7  and  N_3 
REMARK    3  A    between atoms: C_10  and  C_7 
ROOT
ATOM      1  C   UNL d   1      33.014  20.903 -22.878  0.00  0.00     0.148 A 
ATOM      2  N   UNL d   1      33.170  21.395 -23.531  0.00  0.00    -0.227 NA
ATOM      3  N   UNL d   1      32.890  21.410 -22.241  0.00  0.00    -0.289 N 
ATOM      4  C   UNL d   1      32.964  22.175 -22.480  0.00  0.00     0.083 A 
ATOM      5  C   UNL d   1      33.139  22.166 -23.290  0.00  0.00     0.099 A 
ATOM      6  C   UNL d   1      32.898  22.896 -22.085  0.00  0.00     0.019 A 
ATOM      7  C   UNL d   1      33.241  22.877 -23.669  0.00  0.00     0.021 A 
ATOM      8  C   UNL d   1      33.005  23.581 -22.488  0.00  0.00     0.002 A 
ATOM      9  C   UNL d   1      33.180  23.571 -23.298  0.00  0.00     0.002 A 
ENDROOT
BRANCH   1  10
ATOM     10  C   UNL d   1      32.990  20.075 -22.873  0.00  0.00     0.035 A 
ATOM     11  C   UNL d   1      32.719  19.666 -23.534  0.00  0.00     0.005 A 
ATOM     12  C   UNL d   1      32.695  18.839 -23.529  0.00  0.00     0.021 A 
ATOM     13  C   UNL d   1      32.942  18.421 -22.864  0.00  0.00     0.103 A 
ATOM     14  C   UNL d   1      33.214  18.831 -22.199  0.00  0.00     0.021 A 
ATOM     15  N   UNL d   1      32.918  17.594 -22.859  0.00  0.00    -0.148 N 
ATOM     16  C   UNL d   1      33.238  19.659 -22.204  0.00  0.00     0.005 A 
ENDBRANCH   1  10
BRANCH   3  17
ATOM     17  C   UNL d   1      32.727  21.030 -21.538  0.00  0.00     0.082 C 
BRANCH  17  18
ATOM     18  C   UNL d   1      32.499  21.424 -20.862  0.00  0.00     0.019 C 
ATOM     19  C   UNL d   1      32.712  21.182 -20.108  0.00  0.00     0.002 C 
ENDBRANCH  17  18
ENDBRANCH   3  17
TORSDOF 3
ENDMDL
