MODEL 1
REMARK VINA RESULT:      23.0      0.000      0.000
REMARK  6 active torsions:
REMARK  status: ('A' for Active; 'I' for Inactive)
REMARK    1  A    between atoms: N_2  and  S_1 
REMARK    2  A    between atoms: C_6  and  S_1 
REMARK    3  A    between atoms: S_7  and  C_3 
REMARK    4  A    between atoms: N_4  and  C_10 
REMARK    5  A    between atoms: C_21  and  S_7 
REMARK    6  A    between atoms: C_20  and  C_21 
ROOT
ATOM      1  N   UNL d   1      14.514  12.335  -1.011  0.00  0.00    -0.208 N 
ATOM      2  C   UNL d   1      13.846  11.984  -1.358  0.00  0.00     0.189 A 
ATOM      3  N   UNL d   1      13.286  11.852  -0.763  0.00  0.00    -0.219 NA
ATOM      4  C   UNL d   1      14.365  12.421  -0.197  0.00  0.00     0.114 A 
ATOM      5  C   UNL d   1      13.609  12.122  -0.049  0.00  0.00     0.121 A 
ENDROOT
BRANCH   1   6
ATOM      6  S   UNL d   1      15.206  12.560  -1.410  0.00  0.00     0.273 S 
ATOM      7  O   UNL d   1      15.226  11.805  -1.726  0.00  0.00    -0.200 OA
ATOM      8  O   UNL d   1      15.880  12.545  -1.892  0.00  0.00    -0.200 OA
BRANCH   6   9
ATOM      9  C   UNL d   1      15.203  13.326  -1.101  0.00  0.00     0.104 A 
ATOM     10  C   UNL d   1      15.533  13.464  -0.361  0.00  0.00     0.015 A 
ATOM     11  C   UNL d   1      15.532  14.230  -0.047  0.00  0.00     0.024 A 
ATOM     12  C   UNL d   1      15.198  14.844  -0.487  0.00  0.00     0.127 A 
ATOM     13  C   UNL d   1      14.869  14.698  -1.228  0.00  0.00     0.024 A 
ATOM     14  C   UNL d   1      14.869  13.936  -1.541  0.00  0.00     0.015 A 
BRANCH  12  15
ATOM     15  N   UNL d   1      15.195  15.618  -0.173  0.00  0.00    -0.114 N 
ATOM     16  O   UNL d   1      15.915  15.999  -0.021  0.00  0.00    -0.532 OA
ATOM     17  O   UNL d   1      14.481  15.997  -0.016  0.00  0.00    -0.532 OA
ENDBRANCH  12  15
ENDBRANCH   6   9
ENDBRANCH   1   6
BRANCH   2  18
ATOM     18  S   UNL d   1      13.757  11.797  -2.165  0.00  0.00    -0.049 SA
BRANCH  18  19
ATOM     19  C   UNL d   1      13.049  11.974  -2.550  0.00  0.00     0.040 C 
BRANCH  19  20
ATOM     20  C   UNL d   1      13.062  12.248  -3.327  0.00  0.00     0.026 A 
ATOM     21  C   UNL d   1      12.777  13.018  -3.505  0.00  0.00     0.099 A 
ATOM     22  N   UNL d   1      12.783  13.306  -4.275  0.00  0.00    -0.242 NA
ATOM     23  C   UNL d   1      13.078  12.822  -4.875  0.00  0.00     0.099 A 
ATOM     24  C   UNL d   1      13.359  12.066  -4.706  0.00  0.00     0.021 A 
ATOM     25  C   UNL d   1      13.351  11.781  -3.931  0.00  0.00     0.004 A 
ENDBRANCH  19  20
ENDBRANCH  18  19
ENDBRANCH   2  18
TORSDOF 6
ENDMDL
