MODEL 1
REMARK VINA RESULT:      -3.0      0.000      0.000
REMARK  4 active torsions:
REMARK  status: ('A' for Active; 'I' for Inactive)
REMARK    1  A    between atoms: N_9  and  C_3 
REMARK    2  A    between atoms: C_12  and  C_5 
REMARK    3  A    between atoms: C_15  and  N_11 
REMARK    4  A    between atoms: C_19  and  C_15 
ROOT
ATOM      1  N   UNL d   1     -41.471-122.343 -52.096  0.00  0.00    -0.196 N 
ATOM      2  C   UNL d   1     -41.515-121.883 -52.779  0.00  0.00     0.167 A 
ATOM      3  C   UNL d   1     -41.313-121.989 -51.370  0.00  0.00     0.152 A 
ATOM      4  N   UNL d   1     -41.607-123.121 -52.309  0.00  0.00    -0.163 NA
ATOM      5  C   UNL d   1     -41.678-122.378 -53.413  0.00  0.00     0.055 A 
ATOM      6  C   UNL d   1     -41.735-123.143 -53.125  0.00  0.00     0.104 A 
ATOM      7  N   UNL d   1     -41.401-121.070 -52.736  0.00  0.00    -0.227 NA
ATOM      8  C   UNL d   1     -41.197-121.169 -51.323  0.00  0.00     0.057 A 
ATOM      9  C   UNL d   1     -41.241-120.709 -52.006  0.00  0.00     0.086 A 
ATOM     10  C   UNL d   1     -41.893-123.817 -53.574  0.00  0.00     0.023 C 
ATOM     11  C   UNL d   1     -41.127-119.886 -51.971  0.00  0.00     0.021 C 
ENDROOT
BRANCH   3  12
ATOM     12  N   UNL d   1     -41.269-122.449 -50.687  0.00  0.00    -0.286 N 
ATOM     13  C   UNL d   1     -41.287-122.097 -49.951  0.00  0.00     0.101 A 
ATOM     14  C   UNL d   1     -41.243-122.563 -49.267  0.00  0.00     0.100 A 
ATOM     15  N   UNL d   1     -41.182-123.360 -49.324  0.00  0.00    -0.300 N 
ATOM     16  C   UNL d   1     -41.163-123.720 -50.071  0.00  0.00     0.100 A 
ATOM     17  C   UNL d   1     -41.206-123.267 -50.744  0.00  0.00     0.101 A 
BRANCH  15  18
ATOM     18  C   UNL d   1     -41.139-123.808 -48.624  0.00  0.00     0.080 C 
BRANCH  18  19
ATOM     19  C   UNL d   1     -41.684-123.671 -48.019  0.00  0.00     0.018 A 
ATOM     20  C   UNL d   1     -42.494-123.750 -48.165  0.00  0.00     0.002 A 
ATOM     21  C   UNL d   1     -43.031-123.611 -47.549  0.00  0.00     0.000 A 
ATOM     22  C   UNL d   1     -42.757-123.400 -46.813  0.00  0.00     0.000 A 
ATOM     23  C   UNL d   1     -41.962-123.323 -46.676  0.00  0.00     0.000 A 
ATOM     24  C   UNL d   1     -41.417-123.460 -47.281  0.00  0.00     0.002 A 
ENDBRANCH  18  19
ENDBRANCH  15  18
ENDBRANCH   3  12
BRANCH   5  25
ATOM     25  C   UNL d   1     -41.783-122.235 -54.220  0.00  0.00     0.004 A 
ATOM     26  C   UNL d   1     -41.129-122.154 -54.715  0.00  0.00     0.000 A 
ATOM     27  C   UNL d   1     -41.232-122.011 -55.519  0.00  0.00     0.000 A 
ATOM     28  C   UNL d   1     -41.999-121.948 -55.833  0.00  0.00     0.000 A 
ATOM     29  C   UNL d   1     -42.653-122.028 -55.338  0.00  0.00     0.000 A 
ATOM     30  C   UNL d   1     -42.549-122.172 -54.531  0.00  0.00     0.000 A 
ENDBRANCH   5  25
TORSDOF 4
ENDMDL
MODEL 2
REMARK VINA RESULT:      -0.6      1.262      5.687
REMARK  4 active torsions:
REMARK  status: ('A' for Active; 'I' for Inactive)
REMARK    1  A    between atoms: N_9  and  C_3 
REMARK    2  A    between atoms: C_12  and  C_5 
REMARK    3  A    between atoms: C_15  and  N_11 
REMARK    4  A    between atoms: C_19  and  C_15 
ROOT
ATOM      1  N   UNL d   1     -42.417-122.713 -50.374  0.00  0.00    -0.196 N 
ATOM      2  C   UNL d   1     -42.819-122.667 -49.655  0.00  0.00     0.167 A 
ATOM      3  C   UNL d   1     -42.728-122.351 -51.044  0.00  0.00     0.152 A 
ATOM      4  N   UNL d   1     -41.735-123.147 -50.252  0.00  0.00    -0.163 NA
ATOM      5  C   UNL d   1     -42.385-123.074 -49.090  0.00  0.00     0.055 A 
ATOM      6  C   UNL d   1     -41.715-123.371 -49.456  0.00  0.00     0.104 A 
ATOM      7  N   UNL d   1     -43.532-122.259 -49.607  0.00  0.00    -0.227 NA
ATOM      8  C   UNL d   1     -43.447-121.939 -51.000  0.00  0.00     0.057 A 
ATOM      9  C   UNL d   1     -43.849-121.893 -50.281  0.00  0.00     0.086 A 
ATOM     10  C   UNL d   1     -41.123-123.817 -49.093  0.00  0.00     0.023 C 
ATOM     11  C   UNL d   1     -44.571-121.483 -50.224  0.00  0.00     0.021 C 
ENDROOT
BRANCH   3  12
ATOM     12  N   UNL d   1     -42.326-122.396 -51.763  0.00  0.00    -0.286 N 
ATOM     13  C   UNL d   1     -42.242-123.113 -52.143  0.00  0.00     0.101 A 
ATOM     14  C   UNL d   1     -41.837-123.155 -52.866  0.00  0.00     0.100 A 
ATOM     15  N   UNL d   1     -41.527-122.492 -53.193  0.00  0.00    -0.300 N 
ATOM     16  C   UNL d   1     -41.611-121.762 -52.808  0.00  0.00     0.100 A 
ATOM     17  C   UNL d   1     -42.007-121.717 -52.101  0.00  0.00     0.101 A 
BRANCH  15  18
ATOM     18  C   UNL d   1     -41.125-122.558 -53.919  0.00  0.00     0.080 C 
BRANCH  18  19
ATOM     19  C   UNL d   1     -41.534-122.430 -54.625  0.00  0.00     0.018 A 
ATOM     20  C   UNL d   1     -41.420-121.730 -55.049  0.00  0.00     0.002 A 
ATOM     21  C   UNL d   1     -41.836-121.613 -55.757  0.00  0.00     0.000 A 
ATOM     22  C   UNL d   1     -42.348-122.185 -56.024  0.00  0.00     0.000 A 
ATOM     23  C   UNL d   1     -42.456-122.870 -55.604  0.00  0.00     0.000 A 
ATOM     24  C   UNL d   1     -42.047-122.998 -54.898  0.00  0.00     0.002 A 
ENDBRANCH  18  19
ENDBRANCH  15  18
ENDBRANCH   3  12
BRANCH   5  25
ATOM     25  C   UNL d   1     -42.509-123.214 -48.286  0.00  0.00     0.004 A 
ATOM     26  C   UNL d   1     -41.974-122.929 -47.727  0.00  0.00     0.000 A 
ATOM     27  C   UNL d   1     -42.097-123.069 -46.926  0.00  0.00     0.000 A 
ATOM     28  C   UNL d   1     -42.764-123.500 -46.678  0.00  0.00     0.000 A 
ATOM     29  C   UNL d   1     -43.299-123.785 -47.236  0.00  0.00     0.000 A 
ATOM     30  C   UNL d   1     -43.174-123.644 -48.041  0.00  0.00     0.000 A 
ENDBRANCH   5  25
TORSDOF 4
ENDMDL
