MODEL 1
REMARK VINA RESULT:      -2.6      0.000      0.000
REMARK  4 active torsions:
REMARK  status: ('A' for Active; 'I' for Inactive)
REMARK       I    between atoms: C_2  and  N_1 
REMARK    1  A    between atoms: C_4  and  C_2 
REMARK    2  A    between atoms: S_8  and  C_3 
REMARK    3  A    between atoms: O_12  and  C_7 
REMARK    4  A    between atoms: C_15  and  O_12 
ROOT
ATOM      1  C   UNL d   1      31.866  16.827 -23.958  0.00  0.00     0.079 A 
ATOM      2  C   UNL d   1      31.045  16.698 -23.987  0.00  0.00     0.105 A 
ATOM      3  C   UNL d   1      32.366  16.274 -23.611  0.00  0.00     0.007 A 
ATOM      4  C   UNL d   1      30.741  16.003 -23.660  0.00  0.00     0.025 A 
ATOM      5  C   UNL d   1      32.056  15.585 -23.287  0.00  0.00     0.000 A 
ATOM      6  C   UNL d   1      31.250  15.453 -23.312  0.00  0.00     0.002 A 
ENDROOT
BRANCH   1   7
ATOM      7  C   UNL d   1      32.181  17.519 -24.283  0.00  0.00     0.268 C 
ATOM      8  N   UNL d   1      32.554  18.070 -23.798  0.00  0.00    -0.251 N 
ATOM      9  C   UNL d   1      32.894  18.784 -24.040  0.00  0.00     0.178 A 
ATOM     10  C   UNL d   1      32.652  18.001 -22.977  0.00  0.00     0.106 A 
ATOM     11  N   UNL d   1      33.199  19.151 -23.374  0.00  0.00    -0.219 NA
ATOM     12  C   UNL d   1      33.054  18.677 -22.718  0.00  0.00     0.120 A 
ATOM     13  O   UNL d   1      32.120  17.655 -25.095  0.00  0.00    -0.267 OA
BRANCH   9  14
ATOM     14  S   UNL d   1      32.916  19.062 -24.811  0.00  0.00    -0.076 SA
ATOM     15  C   UNL d   1      33.241  19.804 -24.980  0.00  0.00     0.077 C 
ENDBRANCH   9  14
ENDBRANCH   1   7
BRANCH   2  16
ATOM     16  O   UNL d   1      30.549  17.253 -24.335  0.00  0.00    -0.305 OA
BRANCH  16  17
ATOM     17  C   UNL d   1      29.744  17.090 -24.409  0.00  0.00     0.123 C 
ATOM     18  C   UNL d   1      29.237  17.669 -24.672  0.00  0.00     0.029 C 
ENDBRANCH  16  17
ENDBRANCH   2  16
TORSDOF 4
ENDMDL
MODEL 2
REMARK VINA RESULT:      -2.6      1.598      2.970
REMARK  4 active torsions:
REMARK  status: ('A' for Active; 'I' for Inactive)
REMARK       I    between atoms: C_2  and  N_1 
REMARK    1  A    between atoms: C_4  and  C_2 
REMARK    2  A    between atoms: S_8  and  C_3 
REMARK    3  A    between atoms: O_12  and  C_7 
REMARK    4  A    between atoms: C_15  and  O_12 
ROOT
ATOM      1  C   UNL d   1      31.896  16.612 -24.058  0.00  0.00     0.079 A 
ATOM      2  C   UNL d   1      32.434  17.061 -23.610  0.00  0.00     0.105 A 
ATOM      3  C   UNL d   1      32.034  15.814 -24.202  0.00  0.00     0.007 A 
ATOM      4  C   UNL d   1      33.110  16.691 -23.313  0.00  0.00     0.025 A 
ATOM      5  C   UNL d   1      32.708  15.453 -23.904  0.00  0.00     0.000 A 
ATOM      6  C   UNL d   1      33.241  15.889 -23.463  0.00  0.00     0.002 A 
ENDROOT
BRANCH   1   7
ATOM      7  C   UNL d   1      31.215  16.973 -24.360  0.00  0.00     0.268 C 
ATOM      8  N   UNL d   1      30.471  16.701 -24.136  0.00  0.00    -0.251 N 
ATOM      9  C   UNL d   1      29.744  17.003 -24.390  0.00  0.00     0.178 A 
ATOM     10  C   UNL d   1      30.323  16.073 -23.615  0.00  0.00     0.106 A 
ATOM     11  N   UNL d   1      29.154  16.565 -24.028  0.00  0.00    -0.219 NA
ATOM     12  C   UNL d   1      29.502  15.993 -23.551  0.00  0.00     0.120 A 
ATOM     13  O   UNL d   1      31.287  17.605 -24.885  0.00  0.00    -0.267 OA
BRANCH   9  14
ATOM     14  S   UNL d   1      29.645  17.629 -24.910  0.00  0.00    -0.076 SA
ATOM     15  C   UNL d   1      28.887  17.904 -25.097  0.00  0.00     0.077 C 
ENDBRANCH   9  14
ENDBRANCH   1   7
BRANCH   2  16
ATOM     16  O   UNL d   1      32.292  17.858 -23.468  0.00  0.00    -0.305 OA
BRANCH  16  17
ATOM     17  C   UNL d   1      32.842  18.300 -23.040  0.00  0.00     0.123 C 
ATOM     18  C   UNL d   1      32.694  19.083 -22.880  0.00  0.00     0.029 C 
ENDBRANCH  16  17
ENDBRANCH   2  16
TORSDOF 4
ENDMDL
MODEL 3
REMARK VINA RESULT:      -1.4      2.099      3.666
REMARK  4 active torsions:
REMARK  status: ('A' for Active; 'I' for Inactive)
REMARK       I    between atoms: C_2  and  N_1 
REMARK    1  A    between atoms: C_4  and  C_2 
REMARK    2  A    between atoms: S_8  and  C_3 
REMARK    3  A    between atoms: O_12  and  C_7 
REMARK    4  A    between atoms: C_15  and  O_12 
ROOT
ATOM      1  C   UNL d   1      30.970  17.176 -24.622  0.00  0.00     0.079 A 
ATOM      2  C   UNL d   1      31.659  16.956 -24.213  0.00  0.00     0.105 A 
ATOM      3  C   UNL d   1      30.946  17.873 -25.060  0.00  0.00     0.007 A 
ATOM      4  C   UNL d   1      32.320  17.448 -24.254  0.00  0.00     0.025 A 
ATOM      5  C   UNL d   1      31.608  18.358 -25.097  0.00  0.00     0.000 A 
ATOM      6  C   UNL d   1      32.288  18.146 -24.697  0.00  0.00     0.002 A 
ENDROOT
BRANCH   1   7
ATOM      7  C   UNL d   1      30.301  16.690 -24.587  0.00  0.00     0.268 C 
ATOM      8  N   UNL d   1      29.585  16.992 -24.317  0.00  0.00    -0.251 N 
ATOM      9  C   UNL d   1      28.873  16.578 -24.250  0.00  0.00     0.178 A 
ATOM     10  C   UNL d   1      29.455  17.772 -24.064  0.00  0.00     0.106 A 
ATOM     11  N   UNL d   1      28.310  17.096 -23.959  0.00  0.00    -0.219 NA
ATOM     12  C   UNL d   1      28.660  17.831 -23.842  0.00  0.00     0.120 A 
ATOM     13  O   UNL d   1      30.357  15.901 -24.823  0.00  0.00    -0.267 OA
BRANCH   9  14
ATOM     14  S   UNL d   1      28.763  15.788 -24.445  0.00  0.00    -0.076 SA
ATOM     15  C   UNL d   1      28.007  15.453 -24.427  0.00  0.00     0.077 C 
ENDBRANCH   9  14
ENDBRANCH   1   7
BRANCH   2  16
ATOM     16  O   UNL d   1      31.679  16.259 -23.776  0.00  0.00    -0.305 OA
BRANCH  16  17
ATOM     17  C   UNL d   1      32.332  16.095 -23.300  0.00  0.00     0.123 C 
ATOM     18  C   UNL d   1      32.289  15.501 -22.746  0.00  0.00     0.029 C 
ENDBRANCH  16  17
ENDBRANCH   2  16
TORSDOF 4
ENDMDL
MODEL 4
REMARK VINA RESULT:      -0.1      3.041      4.655
REMARK  4 active torsions:
REMARK  status: ('A' for Active; 'I' for Inactive)
REMARK       I    between atoms: C_2  and  N_1 
REMARK    1  A    between atoms: C_4  and  C_2 
REMARK    2  A    between atoms: S_8  and  C_3 
REMARK    3  A    between atoms: O_12  and  C_7 
REMARK    4  A    between atoms: C_15  and  O_12 
ROOT
ATOM      1  C   UNL d   1      33.014  21.021 -21.775  0.00  0.00     0.079 A 
ATOM      2  C   UNL d   1      32.717  21.744 -21.491  0.00  0.00     0.105 A 
ATOM      3  C   UNL d   1      33.238  20.426 -21.253  0.00  0.00     0.007 A 
ATOM      4  C   UNL d   1      32.652  21.854 -20.676  0.00  0.00     0.025 A 
ATOM      5  C   UNL d   1      33.170  20.542 -20.443  0.00  0.00     0.000 A 
ATOM      6  C   UNL d   1      32.880  21.250 -20.158  0.00  0.00     0.002 A 
ENDROOT
BRANCH   1   7
ATOM      7  C   UNL d   1      33.083  20.901 -22.591  0.00  0.00     0.268 C 
ATOM      8  N   UNL d   1      33.126  20.136 -22.892  0.00  0.00    -0.251 N 
ATOM      9  C   UNL d   1      33.196  19.928 -23.689  0.00  0.00     0.178 A 
ATOM     10  C   UNL d   1      33.106  19.438 -22.443  0.00  0.00     0.106 A 
ATOM     11  N   UNL d   1      33.219  19.111 -23.731  0.00  0.00    -0.219 NA
ATOM     12  C   UNL d   1      33.165  18.803 -22.971  0.00  0.00     0.120 A 
ATOM     13  O   UNL d   1      33.109  21.550 -23.099  0.00  0.00    -0.267 OA
BRANCH   9  14
ATOM     14  S   UNL d   1      33.235  20.456 -24.316  0.00  0.00    -0.076 SA
ATOM     15  C   UNL d   1      33.226  20.181 -25.097  0.00  0.00     0.077 C 
ENDBRANCH   9  14
ENDBRANCH   1   7
BRANCH   2  16
ATOM     16  O   UNL d   1      32.494  22.337 -22.016  0.00  0.00    -0.305 OA
BRANCH  16  17
ATOM     17  C   UNL d   1      32.175  23.039 -21.725  0.00  0.00     0.123 C 
ATOM     18  C   UNL d   1      32.112  23.687 -22.213  0.00  0.00     0.029 C 
ENDBRANCH  16  17
ENDBRANCH   2  16
TORSDOF 4
ENDMDL
MODEL 5
REMARK VINA RESULT:       0.3      3.114      4.093
REMARK  4 active torsions:
REMARK  status: ('A' for Active; 'I' for Inactive)
REMARK       I    between atoms: C_2  and  N_1 
REMARK    1  A    between atoms: C_4  and  C_2 
REMARK    2  A    between atoms: S_8  and  C_3 
REMARK    3  A    between atoms: O_12  and  C_7 
REMARK    4  A    between atoms: C_15  and  O_12 
ROOT
ATOM      1  C   UNL d   1      33.069  20.276 -22.356  0.00  0.00     0.079 A 
ATOM      2  C   UNL d   1      33.070  19.802 -23.039  0.00  0.00     0.105 A 
ATOM      3  C   UNL d   1      33.153  19.937 -21.610  0.00  0.00     0.007 A 
ATOM      4  C   UNL d   1      33.156  18.985 -22.957  0.00  0.00     0.025 A 
ATOM      5  C   UNL d   1      33.239  19.123 -21.536  0.00  0.00     0.000 A 
ATOM      6  C   UNL d   1      33.240  18.653 -22.204  0.00  0.00     0.002 A 
ENDROOT
BRANCH   1   7
ATOM      7  C   UNL d   1      32.983  21.095 -22.427  0.00  0.00     0.268 C 
ATOM      8  N   UNL d   1      32.641  21.529 -21.817  0.00  0.00    -0.251 N 
ATOM      9  C   UNL d   1      32.518  22.346 -21.806  0.00  0.00     0.178 A 
ATOM     10  C   UNL d   1      32.359  21.216 -21.101  0.00  0.00     0.106 A 
ATOM     11  N   UNL d   1      32.164  22.535 -21.093  0.00  0.00    -0.219 NA
ATOM     12  C   UNL d   1      32.064  21.847 -20.655  0.00  0.00     0.120 A 
ATOM     13  O   UNL d   1      33.241  21.475 -23.113  0.00  0.00    -0.267 OA
BRANCH   9  14
ATOM     14  S   UNL d   1      32.718  22.864 -22.410  0.00  0.00    -0.076 SA
ATOM     15  C   UNL d   1      32.376  23.616 -22.449  0.00  0.00     0.077 C 
ENDBRANCH   9  14
ENDBRANCH   1   7
BRANCH   2  16
ATOM     16  O   UNL d   1      32.985  20.145 -23.782  0.00  0.00    -0.305 OA
BRANCH  16  17
ATOM     17  C   UNL d   1      32.899  19.662 -24.445  0.00  0.00     0.123 C 
ATOM     18  C   UNL d   1      32.384  19.877 -25.037  0.00  0.00     0.029 C 
ENDBRANCH  16  17
ENDBRANCH   2  16
TORSDOF 4
ENDMDL
