MODEL 1
REMARK VINA RESULT:      -3.2      0.000      0.000
REMARK  4 active torsions:
REMARK  status: ('A' for Active; 'I' for Inactive)
REMARK    1  A    between atoms: N_6  and  C_2 
REMARK    2  A    between atoms: C_7  and  C_3 
REMARK    3  A    between atoms: C_10  and  N_6 
REMARK    4  A    between atoms: O_14  and  C_11 
ROOT
ATOM      1  N   UNL d   1      32.985  19.851 -22.981  0.00  0.00    -0.221 NA
ATOM      2  C   UNL d   1      33.156  19.048 -22.977  0.00  0.00     0.194 A 
ATOM      3  C   UNL d   1      32.969  20.100 -22.204  0.00  0.00     0.090 A 
ATOM      4  S   UNL d   1      33.241  18.825 -22.196  0.00  0.00    -0.046 SA
ATOM      5  C   UNL d   1      33.127  19.465 -21.714  0.00  0.00     0.058 A 
ENDROOT
BRANCH   3   6
ATOM      6  C   UNL d   1      32.825  20.846 -21.883  0.00  0.00     0.018 A 
ATOM      7  C   UNL d   1      32.375  20.939 -21.245  0.00  0.00     0.004 A 
ATOM      8  C   UNL d   1      32.239  21.700 -20.932  0.00  0.00     0.024 A 
ATOM      9  C   UNL d   1      32.566  22.321 -21.281  0.00  0.00     0.094 A 
ATOM     10  C   UNL d   1      33.035  22.250 -21.940  0.00  0.00     0.024 A 
ATOM     11  C   UNL d   1      33.179  21.505 -22.262  0.00  0.00     0.004 A 
BRANCH   9  12
ATOM     12  O   UNL d   1      32.420  23.094 -20.951  0.00  0.00    -0.328 OA
ATOM     13  C   UNL d   1      31.921  23.608 -21.368  0.00  0.00     0.181 C 
ENDBRANCH   9  12
ENDBRANCH   3   6
BRANCH   2  14
ATOM     14  N   UNL d   1      33.226  18.572 -23.650  0.00  0.00    -0.221 NA
BRANCH  14  15
ATOM     15  C   UNL d   1      32.574  18.169 -23.932  0.00  0.00     0.084 A 
ATOM     16  C   UNL d   1      32.339  17.442 -23.595  0.00  0.00     0.019 A 
ATOM     17  C   UNL d   1      31.671  17.019 -23.876  0.00  0.00     0.002 A 
ATOM     18  C   UNL d   1      31.233  17.332 -24.505  0.00  0.00     0.000 A 
ATOM     19  C   UNL d   1      31.474  18.081 -24.854  0.00  0.00     0.002 A 
ATOM     20  C   UNL d   1      32.128  18.488 -24.573  0.00  0.00     0.019 A 
ENDBRANCH  14  15
ENDBRANCH   2  14
TORSDOF 4
ENDMDL
MODEL 2
REMARK VINA RESULT:      -3.0      1.097      1.725
REMARK  4 active torsions:
REMARK  status: ('A' for Active; 'I' for Inactive)
REMARK    1  A    between atoms: N_6  and  C_2 
REMARK    2  A    between atoms: C_7  and  C_3 
REMARK    3  A    between atoms: C_10  and  N_6 
REMARK    4  A    between atoms: O_14  and  C_11 
ROOT
ATOM      1  N   UNL d   1      32.398  18.463 -23.609  0.00  0.00    -0.221 NA
ATOM      2  C   UNL d   1      32.514  17.652 -23.675  0.00  0.00     0.194 A 
ATOM      3  C   UNL d   1      32.847  18.721 -22.979  0.00  0.00     0.090 A 
ATOM      4  S   UNL d   1      33.031  17.434 -23.083  0.00  0.00    -0.046 SA
ATOM      5  C   UNL d   1      33.241  18.085 -22.649  0.00  0.00     0.058 A 
ENDROOT
BRANCH   3   6
ATOM      6  C   UNL d   1      32.943  19.476 -22.662  0.00  0.00     0.018 A 
ATOM      7  C   UNL d   1      32.854  19.615 -21.894  0.00  0.00     0.004 A 
ATOM      8  C   UNL d   1      32.954  20.384 -21.589  0.00  0.00     0.024 A 
ATOM      9  C   UNL d   1      33.138  20.968 -22.078  0.00  0.00     0.094 A 
ATOM     10  C   UNL d   1      33.235  20.851 -22.876  0.00  0.00     0.024 A 
ATOM     11  C   UNL d   1      33.140  20.096 -23.193  0.00  0.00     0.004 A 
BRANCH   9  12
ATOM     12  O   UNL d   1      33.238  21.751 -21.754  0.00  0.00    -0.328 OA
ATOM     13  C   UNL d   1      32.640  22.049 -21.262  0.00  0.00     0.181 C 
ENDBRANCH   9  12
ENDBRANCH   3   6
BRANCH   2  14
ATOM     14  N   UNL d   1      32.161  17.165 -24.245  0.00  0.00    -0.221 NA
BRANCH  14  15
ATOM     15  C   UNL d   1      31.435  16.824 -24.094  0.00  0.00     0.084 A 
ATOM     16  C   UNL d   1      31.378  16.058 -23.769  0.00  0.00     0.019 A 
ATOM     17  C   UNL d   1      30.638  15.697 -23.609  0.00  0.00     0.002 A 
ATOM     18  C   UNL d   1      29.944  16.115 -23.780  0.00  0.00     0.000 A 
ATOM     19  C   UNL d   1      29.999  16.905 -24.115  0.00  0.00     0.002 A 
ATOM     20  C   UNL d   1      30.728  17.249 -24.268  0.00  0.00     0.019 A 
ENDBRANCH  14  15
ENDBRANCH   2  14
TORSDOF 4
ENDMDL
MODEL 3
REMARK VINA RESULT:      -3.0      2.717      5.125
REMARK  4 active torsions:
REMARK  status: ('A' for Active; 'I' for Inactive)
REMARK    1  A    between atoms: N_6  and  C_2 
REMARK    2  A    between atoms: C_7  and  C_3 
REMARK    3  A    between atoms: C_10  and  N_6 
REMARK    4  A    between atoms: O_14  and  C_11 
ROOT
ATOM      1  N   UNL d   1      31.838  17.177 -23.759  0.00  0.00    -0.221 NA
ATOM      2  C   UNL d   1      32.510  17.446 -24.149  0.00  0.00     0.194 A 
ATOM      3  C   UNL d   1      31.291  16.978 -24.329  0.00  0.00     0.090 A 
ATOM      4  S   UNL d   1      32.355  17.405 -24.949  0.00  0.00    -0.046 SA
ATOM      5  C   UNL d   1      31.608  17.118 -25.069  0.00  0.00     0.058 A 
ENDROOT
BRANCH   3   6
ATOM      6  C   UNL d   1      30.525  16.679 -24.257  0.00  0.00     0.018 A 
ATOM      7  C   UNL d   1      29.901  17.076 -24.524  0.00  0.00     0.004 A 
ATOM      8  C   UNL d   1      29.134  16.761 -24.443  0.00  0.00     0.024 A 
ATOM      9  C   UNL d   1      29.041  16.064 -24.097  0.00  0.00     0.094 A 
ATOM     10  C   UNL d   1      29.669  15.635 -23.813  0.00  0.00     0.024 A 
ATOM     11  C   UNL d   1      30.435  15.933 -23.885  0.00  0.00     0.004 A 
BRANCH   9  12
ATOM     12  O   UNL d   1      28.251  15.752 -24.021  0.00  0.00    -0.328 OA
ATOM     13  C   UNL d   1      27.833  15.917 -23.324  0.00  0.00     0.181 C 
ENDBRANCH   9  12
ENDBRANCH   3   6
BRANCH   2  14
ATOM     14  N   UNL d   1      33.203  17.706 -23.779  0.00  0.00    -0.221 NA
BRANCH  14  15
ATOM     15  C   UNL d   1      33.207  18.415 -23.375  0.00  0.00     0.084 A 
ATOM     16  C   UNL d   1      33.182  18.436 -22.542  0.00  0.00     0.019 A 
ATOM     17  C   UNL d   1      33.185  19.159 -22.116  0.00  0.00     0.002 A 
ATOM     18  C   UNL d   1      33.214  19.872 -22.536  0.00  0.00     0.000 A 
ATOM     19  C   UNL d   1      33.240  19.853 -23.395  0.00  0.00     0.002 A 
ATOM     20  C   UNL d   1      33.236  19.141 -23.803  0.00  0.00     0.019 A 
ENDBRANCH  14  15
ENDBRANCH   2  14
TORSDOF 4
ENDMDL
MODEL 4
REMARK VINA RESULT:      -2.8      2.092      3.423
REMARK  4 active torsions:
REMARK  status: ('A' for Active; 'I' for Inactive)
REMARK    1  A    between atoms: N_6  and  C_2 
REMARK    2  A    between atoms: C_7  and  C_3 
REMARK    3  A    between atoms: C_10  and  N_6 
REMARK    4  A    between atoms: O_14  and  C_11 
ROOT
ATOM      1  N   UNL d   1      31.771  16.717 -23.571  0.00  0.00    -0.221 NA
ATOM      2  C   UNL d   1      31.754  16.131 -24.147  0.00  0.00     0.194 A 
ATOM      3  C   UNL d   1      32.309  17.280 -23.813  0.00  0.00     0.090 A 
ATOM      4  S   UNL d   1      32.284  16.351 -24.728  0.00  0.00    -0.046 SA
ATOM      5  C   UNL d   1      32.630  17.056 -24.531  0.00  0.00     0.058 A 
ENDROOT
BRANCH   3   6
ATOM      6  C   UNL d   1      32.548  17.983 -23.454  0.00  0.00     0.018 A 
ATOM      7  C   UNL d   1      33.000  17.984 -22.811  0.00  0.00     0.004 A 
ATOM      8  C   UNL d   1      33.233  18.704 -22.460  0.00  0.00     0.024 A 
ATOM      9  C   UNL d   1      32.996  19.379 -22.779  0.00  0.00     0.094 A 
ATOM     10  C   UNL d   1      32.529  19.404 -23.443  0.00  0.00     0.024 A 
ATOM     11  C   UNL d   1      32.290  18.701 -23.802  0.00  0.00     0.004 A 
BRANCH   9  12
ATOM     12  O   UNL d   1      33.241  20.109 -22.411  0.00  0.00    -0.328 OA
ATOM     13  C   UNL d   1      32.958  20.275 -21.649  0.00  0.00     0.181 C 
ENDBRANCH   9  12
ENDBRANCH   3   6
BRANCH   2  14
ATOM     14  N   UNL d   1      31.281  15.453 -24.123  0.00  0.00    -0.221 NA
BRANCH  14  15
ATOM     15  C   UNL d   1      30.471  15.525 -24.055  0.00  0.00     0.084 A 
ATOM     16  C   UNL d   1      29.984  15.570 -24.731  0.00  0.00     0.019 A 
ATOM     17  C   UNL d   1      29.151  15.645 -24.674  0.00  0.00     0.002 A 
ATOM     18  C   UNL d   1      28.801  15.674 -23.924  0.00  0.00     0.000 A 
ATOM     19  C   UNL d   1      29.301  15.627 -23.225  0.00  0.00     0.002 A 
ATOM     20  C   UNL d   1      30.115  15.554 -23.291  0.00  0.00     0.019 A 
ENDBRANCH  14  15
ENDBRANCH   2  14
TORSDOF 4
ENDMDL
MODEL 5
REMARK VINA RESULT:      -2.4      1.906      4.759
REMARK  4 active torsions:
REMARK  status: ('A' for Active; 'I' for Inactive)
REMARK    1  A    between atoms: N_6  and  C_2 
REMARK    2  A    between atoms: C_7  and  C_3 
REMARK    3  A    between atoms: C_10  and  N_6 
REMARK    4  A    between atoms: O_14  and  C_11 
ROOT
ATOM      1  N   UNL d   1      32.943  19.488 -21.972  0.00  0.00    -0.221 NA
ATOM      2  C   UNL d   1      33.148  20.283 -21.938  0.00  0.00     0.194 A 
ATOM      3  C   UNL d   1      32.915  19.279 -22.760  0.00  0.00     0.090 A 
ATOM      4  S   UNL d   1      33.241  20.540 -22.706  0.00  0.00    -0.046 SA
ATOM      5  C   UNL d   1      33.100  19.929 -23.219  0.00  0.00     0.058 A 
ENDROOT
BRANCH   3   6
ATOM      6  C   UNL d   1      32.740  18.556 -23.117  0.00  0.00     0.018 A 
ATOM      7  C   UNL d   1      32.128  18.476 -23.604  0.00  0.00     0.004 A 
ATOM      8  C   UNL d   1      31.965  17.739 -23.958  0.00  0.00     0.024 A 
ATOM      9  C   UNL d   1      32.427  17.127 -23.799  0.00  0.00     0.094 A 
ATOM     10  C   UNL d   1      33.065  17.185 -23.300  0.00  0.00     0.024 A 
ATOM     11  C   UNL d   1      33.241  17.907 -22.942  0.00  0.00     0.004 A 
BRANCH   9  12
ATOM     12  O   UNL d   1      32.250  16.378 -24.167  0.00  0.00    -0.328 OA
ATOM     13  C   UNL d   1      32.256  15.699 -23.691  0.00  0.00     0.181 C 
ENDBRANCH   9  12
ENDBRANCH   3   6
BRANCH   2  14
ATOM     14  N   UNL d   1      33.238  20.722 -21.241  0.00  0.00    -0.221 NA
BRANCH  14  15
ATOM     15  C   UNL d   1      32.879  21.452 -21.172  0.00  0.00     0.084 A 
ATOM     16  C   UNL d   1      33.188  22.122 -21.562  0.00  0.00     0.019 A 
ATOM     17  C   UNL d   1      32.828  22.877 -21.499  0.00  0.00     0.002 A 
ATOM     18  C   UNL d   1      32.147  22.959 -21.036  0.00  0.00     0.000 A 
ATOM     19  C   UNL d   1      31.827  22.270 -20.633  0.00  0.00     0.002 A 
ATOM     20  C   UNL d   1      32.185  21.535 -20.701  0.00  0.00     0.019 A 
ENDBRANCH  14  15
ENDBRANCH   2  14
TORSDOF 4
ENDMDL
MODEL 6
REMARK VINA RESULT:      -0.7      3.688      5.638
REMARK  4 active torsions:
REMARK  status: ('A' for Active; 'I' for Inactive)
REMARK    1  A    between atoms: N_6  and  C_2 
REMARK    2  A    between atoms: C_7  and  C_3 
REMARK    3  A    between atoms: C_10  and  N_6 
REMARK    4  A    between atoms: O_14  and  C_11 
ROOT
ATOM      1  N   UNL d   1      33.022  23.583 -20.414  0.00  0.00    -0.221 NA
ATOM      2  C   UNL d   1      32.884  23.292 -19.658  0.00  0.00     0.194 A 
ATOM      3  C   UNL d   1      32.798  23.003 -20.941  0.00  0.00     0.090 A 
ATOM      4  S   UNL d   1      32.578  22.540 -19.743  0.00  0.00    -0.046 SA
ATOM      5  C   UNL d   1      32.521  22.354 -20.529  0.00  0.00     0.058 A 
ENDROOT
BRANCH   3   6
ATOM      6  C   UNL d   1      32.814  22.993 -21.766  0.00  0.00     0.018 A 
ATOM      7  C   UNL d   1      33.121  22.389 -22.164  0.00  0.00     0.004 A 
ATOM      8  C   UNL d   1      33.130  22.393 -22.998  0.00  0.00     0.024 A 
ATOM      9  C   UNL d   1      32.828  23.007 -23.380  0.00  0.00     0.094 A 
ATOM     10  C   UNL d   1      32.504  23.643 -22.992  0.00  0.00     0.024 A 
ATOM     11  C   UNL d   1      32.488  23.654 -22.168  0.00  0.00     0.004 A 
BRANCH   9  12
ATOM     12  O   UNL d   1      32.842  23.000 -24.233  0.00  0.00    -0.328 OA
ATOM     13  C   UNL d   1      32.247  23.413 -24.637  0.00  0.00     0.181 C 
ENDBRANCH   9  12
ENDBRANCH   3   6
BRANCH   2  14
ATOM     14  N   UNL d   1      33.035  23.702 -18.955  0.00  0.00    -0.221 NA
BRANCH  14  15
ATOM     15  C   UNL d   1      32.769  23.401 -18.244  0.00  0.00     0.084 A 
ATOM     16  C   UNL d   1      33.241  22.883 -17.792  0.00  0.00     0.019 A 
ATOM     17  C   UNL d   1      32.978  22.567 -17.061  0.00  0.00     0.002 A 
ATOM     18  C   UNL d   1      32.228  22.777 -16.780  0.00  0.00     0.000 A 
ATOM     19  C   UNL d   1      31.739  23.311 -17.244  0.00  0.00     0.002 A 
ATOM     20  C   UNL d   1      32.005  23.615 -17.959  0.00  0.00     0.019 A 
ENDBRANCH  14  15
ENDBRANCH   2  14
TORSDOF 4
ENDMDL
