MODEL 1
REMARK VINA RESULT:      -4.5      0.000      0.000
REMARK  4 active torsions:
REMARK  status: ('A' for Active; 'I' for Inactive)
REMARK    1  A    between atoms: C_7  and  N_1 
REMARK    2  A    between atoms: C_8  and  C_7 
REMARK       I    between atoms: N_9  and  C_8 
REMARK    3  A    between atoms: C_13  and  N_9 
REMARK    4  A    between atoms: O_19  and  C_14 
ROOT
ATOM      1  C   UNL d   1      58.233  -0.017  29.797  0.00  0.00     0.148 C 
ENDROOT
BRANCH   1   2
ATOM      2  N   UNL d   1      58.909  -0.448  29.593  0.00  0.00    -0.235 N 
ATOM      3  C   UNL d   1      59.659  -0.097  29.664  0.00  0.00     0.273 A 
ATOM      4  C   UNL d   1      60.327  -0.523  29.462  0.00  0.00     0.086 A 
ATOM      5  O   UNL d   1      59.726   0.682  29.941  0.00  0.00    -0.266 OA
ATOM      6  C   UNL d   1      61.079  -0.171  29.534  0.00  0.00     0.012 C 
ATOM      7  S   UNL d   1      60.269  -1.295  29.188  0.00  0.00    -0.077 SA
ATOM      8  C   UNL d   1      59.529  -1.646  29.115  0.00  0.00     0.086 A 
ATOM      9  C   UNL d   1      58.844  -1.229  29.316  0.00  0.00     0.273 A 
ATOM     10  C   UNL d   1      59.464  -2.422  28.840  0.00  0.00     0.012 C 
ATOM     11  O   UNL d   1      58.101  -1.577  29.244  0.00  0.00    -0.266 OA
ENDBRANCH   1   2
BRANCH   1  12
ATOM     12  C   UNL d   1      57.945  -0.050  30.569  0.00  0.00     0.297 C 
ATOM     13  N   UNL d   1      57.121  -0.057  30.713  0.00  0.00    -0.207 NA
ATOM     14  O   UNL d   1      58.477  -0.077  31.202  0.00  0.00    -0.264 OA
BRANCH  13  15
ATOM     15  C   UNL d   1      56.848  -0.090  31.489  0.00  0.00     0.085 A 
ATOM     16  C   UNL d   1      56.764   0.615  31.911  0.00  0.00     0.021 A 
ATOM     17  C   UNL d   1      56.494   0.604  32.686  0.00  0.00     0.026 A 
ATOM     18  C   UNL d   1      56.304  -0.127  33.042  0.00  0.00     0.094 A 
ATOM     19  C   UNL d   1      56.393  -0.820  32.606  0.00  0.00     0.026 A 
ATOM     20  C   UNL d   1      56.661  -0.800  31.840  0.00  0.00     0.021 A 
BRANCH  18  21
ATOM     21  O   UNL d   1      56.032  -0.142  33.819  0.00  0.00    -0.328 OA
ATOM     22  C   UNL d   1      55.346   0.268  34.014  0.00  0.00     0.181 C 
ENDBRANCH  18  21
ENDBRANCH  13  15
ENDBRANCH   1  12
TORSDOF 4
ENDMDL
MODEL 2
REMARK VINA RESULT:      -4.4      0.082      1.365
REMARK  4 active torsions:
REMARK  status: ('A' for Active; 'I' for Inactive)
REMARK    1  A    between atoms: C_7  and  N_1 
REMARK    2  A    between atoms: C_8  and  C_7 
REMARK       I    between atoms: N_9  and  C_8 
REMARK    3  A    between atoms: C_13  and  N_9 
REMARK    4  A    between atoms: O_19  and  C_14 
ROOT
ATOM      1  C   UNL d   1      58.167  -0.116  29.756  0.00  0.00     0.148 C 
ENDROOT
BRANCH   1   2
ATOM      2  N   UNL d   1      58.873  -0.496  29.556  0.00  0.00    -0.235 N 
ATOM      3  C   UNL d   1      58.857  -1.282  29.287  0.00  0.00     0.273 A 
ATOM      4  C   UNL d   1      59.557  -1.658  29.089  0.00  0.00     0.086 A 
ATOM      5  O   UNL d   1      58.134  -1.682  29.221  0.00  0.00    -0.266 OA
ATOM      6  C   UNL d   1      59.540  -2.447  28.820  0.00  0.00     0.012 C 
ATOM      7  S   UNL d   1      60.277  -1.270  29.152  0.00  0.00    -0.077 SA
ATOM      8  C   UNL d   1      60.298  -0.492  29.417  0.00  0.00     0.086 A 
ATOM      9  C   UNL d   1      59.600  -0.098  29.621  0.00  0.00     0.273 A 
ATOM     10  C   UNL d   1      61.019  -0.095  29.482  0.00  0.00     0.012 C 
ATOM     11  O   UNL d   1      59.617   0.682  29.888  0.00  0.00    -0.266 OA
ENDBRANCH   1   2
BRANCH   1  12
ATOM     12  C   UNL d   1      57.895  -0.140  30.535  0.00  0.00     0.297 C 
ATOM     13  N   UNL d   1      57.081  -0.047  30.702  0.00  0.00    -0.207 NA
ATOM     14  O   UNL d   1      58.435  -0.256  31.151  0.00  0.00    -0.264 OA
BRANCH  13  15
ATOM     15  C   UNL d   1      56.825  -0.073  31.484  0.00  0.00     0.085 A 
ATOM     16  C   UNL d   1      56.721   0.637  31.891  0.00  0.00     0.021 A 
ATOM     17  C   UNL d   1      56.466   0.634  32.672  0.00  0.00     0.026 A 
ATOM     18  C   UNL d   1      56.315  -0.095  33.049  0.00  0.00     0.094 A 
ATOM     19  C   UNL d   1      56.424  -0.794  32.628  0.00  0.00     0.026 A 
ATOM     20  C   UNL d   1      56.676  -0.782  31.855  0.00  0.00     0.021 A 
BRANCH  18  21
ATOM     21  O   UNL d   1      56.059  -0.102  33.832  0.00  0.00    -0.328 OA
ATOM     22  C   UNL d   1      55.381   0.314  34.038  0.00  0.00     0.181 C 
ENDBRANCH  18  21
ENDBRANCH  13  15
ENDBRANCH   1  12
TORSDOF 4
ENDMDL
MODEL 3
REMARK VINA RESULT:      -2.6      1.689      4.616
REMARK  4 active torsions:
REMARK  status: ('A' for Active; 'I' for Inactive)
REMARK    1  A    between atoms: C_7  and  N_1 
REMARK    2  A    between atoms: C_8  and  C_7 
REMARK       I    between atoms: N_9  and  C_8 
REMARK    3  A    between atoms: C_13  and  N_9 
REMARK    4  A    between atoms: O_19  and  C_14 
ROOT
ATOM      1  C   UNL d   1      57.123  -0.187  31.009  0.00  0.00     0.148 C 
ENDROOT
BRANCH   1   2
ATOM      2  N   UNL d   1      57.008  -0.181  31.828  0.00  0.00    -0.235 N 
ATOM      3  C   UNL d   1      56.381  -0.612  32.161  0.00  0.00     0.273 A 
ATOM      4  C   UNL d   1      56.268  -0.606  32.971  0.00  0.00     0.086 A 
ATOM      5  O   UNL d   1      55.873  -1.047  31.671  0.00  0.00    -0.266 OA
ATOM      6  C   UNL d   1      55.638  -1.039  33.304  0.00  0.00     0.012 C 
ATOM      7  S   UNL d   1      56.767  -0.179  33.464  0.00  0.00    -0.077 SA
ATOM      8  C   UNL d   1      57.389   0.250  33.139  0.00  0.00     0.086 A 
ATOM      9  C   UNL d   1      57.517   0.254  32.323  0.00  0.00     0.273 A 
ATOM     10  C   UNL d   1      57.894   0.682  33.629  0.00  0.00     0.012 C 
ATOM     11  O   UNL d   1      58.139   0.682  31.994  0.00  0.00    -0.266 OA
ENDBRANCH   1   2
BRANCH   1  12
ATOM     12  C   UNL d   1      57.644  -0.731  30.673  0.00  0.00     0.297 C 
ATOM     13  N   UNL d   1      58.116  -0.513  30.018  0.00  0.00    -0.207 NA
ATOM     14  O   UNL d   1      57.697  -1.493  30.988  0.00  0.00    -0.264 OA
BRANCH  13  15
ATOM     15  C   UNL d   1      58.632  -1.067  29.692  0.00  0.00     0.085 A 
ATOM     16  C   UNL d   1      59.411  -0.841  29.539  0.00  0.00     0.021 A 
ATOM     17  C   UNL d   1      59.942  -1.377  29.214  0.00  0.00     0.026 A 
ATOM     18  C   UNL d   1      59.685  -2.152  29.042  0.00  0.00     0.094 A 
ATOM     19  C   UNL d   1      58.904  -2.360  29.201  0.00  0.00     0.026 A 
ATOM     20  C   UNL d   1      58.385  -1.824  29.522  0.00  0.00     0.021 A 
BRANCH  18  21
ATOM     21  O   UNL d   1      60.214  -2.693  28.716  0.00  0.00    -0.328 OA
ATOM     22  C   UNL d   1      60.598  -3.227  29.209  0.00  0.00     0.181 C 
ENDBRANCH  18  21
ENDBRANCH  13  15
ENDBRANCH   1  12
TORSDOF 4
ENDMDL
