MODEL 1
REMARK VINA RESULT:      -9.5      0.000      0.000
REMARK  4 active torsions:
REMARK  status: ('A' for Active; 'I' for Inactive)
REMARK       I    between atoms: C_3  and  N_1 
REMARK    1  A    between atoms: C_7  and  C_3 
REMARK    2  A    between atoms: C_8  and  C_4 
REMARK    3  A    between atoms: C_9  and  C_5 
REMARK    4  A    between atoms: O_25  and  C_18 
ROOT
ATOM      1  N   UNL d   1      52.147  34.144  53.342  0.00  0.00    -0.195 N 
ATOM      2  N   UNL d   1      51.523  34.657  53.137  0.00  0.00    -0.163 NA
ATOM      3  C   UNL d   1      52.873  34.392  53.668  0.00  0.00     0.282 C 
ATOM      4  C   UNL d   1      51.938  33.369  53.176  0.00  0.00     0.088 A 
ATOM      5  C   UNL d   1      50.917  34.192  52.839  0.00  0.00     0.103 A 
ATOM      6  C   UNL d   1      51.174  33.398  52.863  0.00  0.00     0.040 A 
ATOM      7  O   UNL d   1      53.018  35.187  53.809  0.00  0.00    -0.265 OA
ENDROOT
BRANCH   3   8
ATOM      8  C   UNL d   1      53.457  33.812  53.849  0.00  0.00     0.077 A 
ATOM      9  C   UNL d   1      53.969  33.544  53.271  0.00  0.00     0.104 A 
ATOM     10  N   UNL d   1      54.534  32.982  53.448  0.00  0.00    -0.242 NA
ATOM     11  C   UNL d   1      54.579  32.687  54.225  0.00  0.00     0.099 A 
ATOM     12  C   UNL d   1      54.066  32.955  54.806  0.00  0.00     0.021 A 
ATOM     13  C   UNL d   1      53.501  33.518  54.627  0.00  0.00     0.008 A 
ENDBRANCH   3   8
BRANCH   4  14
ATOM     14  C   UNL d   1      52.397  32.694  53.296  0.00  0.00     0.018 A 
ATOM     15  C   UNL d   1      52.873  32.406  52.688  0.00  0.00     0.004 A 
ATOM     16  C   UNL d   1      53.332  31.731  52.807  0.00  0.00     0.024 A 
ATOM     17  C   UNL d   1      53.314  31.343  53.535  0.00  0.00     0.094 A 
ATOM     18  C   UNL d   1      52.838  31.632  54.139  0.00  0.00     0.024 A 
ATOM     19  C   UNL d   1      52.380  32.307  54.020  0.00  0.00     0.004 A 
BRANCH  17  20
ATOM     20  O   UNL d   1      53.772  30.668  53.655  0.00  0.00    -0.328 OA
ATOM     21  C   UNL d   1      53.445  29.921  53.533  0.00  0.00     0.181 C 
ENDBRANCH  17  20
ENDBRANCH   4  14
BRANCH   5  22
ATOM     22  C   UNL d   1      50.200  34.467  52.571  0.00  0.00     0.019 A 
ATOM     23  C   UNL d   1      49.997  34.316  51.778  0.00  0.00     0.002 A 
ATOM     24  C   UNL d   1      49.253  34.600  51.497  0.00  0.00     0.007 A 
ATOM     25  C   UNL d   1      48.755  35.008  51.995  0.00  0.00     0.035 A 
ATOM     26  C   UNL d   1      48.958  35.159  52.788  0.00  0.00     0.007 A 
ATOM     27 BR   UNL d   1      48.032  35.278  51.702  0.00  0.00    -0.049 Br
ATOM     28  C   UNL d   1      49.706  34.873  53.069  0.00  0.00     0.002 A 
ENDBRANCH   5  22
TORSDOF 4
ENDMDL
MODEL 2
REMARK VINA RESULT:      -7.7      1.019      2.036
REMARK  4 active torsions:
REMARK  status: ('A' for Active; 'I' for Inactive)
REMARK       I    between atoms: C_3  and  N_1 
REMARK    1  A    between atoms: C_7  and  C_3 
REMARK    2  A    between atoms: C_8  and  C_4 
REMARK    3  A    between atoms: C_9  and  C_5 
REMARK    4  A    between atoms: O_25  and  C_18 
ROOT
ATOM      1  N   UNL d   1      51.965  33.074  52.941  0.00  0.00    -0.195 N 
ATOM      2  N   UNL d   1      51.225  33.244  52.598  0.00  0.00    -0.163 NA
ATOM      3  C   UNL d   1      52.396  32.374  52.809  0.00  0.00     0.282 C 
ATOM      4  C   UNL d   1      52.198  33.694  53.423  0.00  0.00     0.088 A 
ATOM      5  C   UNL d   1      50.995  33.982  52.872  0.00  0.00     0.103 A 
ATOM      6  C   UNL d   1      51.596  34.259  53.380  0.00  0.00     0.040 A 
ATOM      7  O   UNL d   1      52.103  31.790  52.312  0.00  0.00    -0.265 OA
ENDROOT
BRANCH   3   8
ATOM      8  C   UNL d   1      53.139  32.275  53.193  0.00  0.00     0.077 A 
ATOM      9  C   UNL d   1      53.819  32.594  52.872  0.00  0.00     0.104 A 
ATOM     10  N   UNL d   1      54.539  32.498  53.246  0.00  0.00    -0.242 NA
ATOM     11  C   UNL d   1      54.567  32.069  53.958  0.00  0.00     0.099 A 
ATOM     12  C   UNL d   1      53.886  31.747  54.282  0.00  0.00     0.021 A 
ATOM     13  C   UNL d   1      53.167  31.845  53.907  0.00  0.00     0.008 A 
ENDBRANCH   3   8
BRANCH   4  14
ATOM     14  C   UNL d   1      52.893  33.747  53.864  0.00  0.00     0.018 A 
ATOM     15  C   UNL d   1      53.564  34.095  53.535  0.00  0.00     0.004 A 
ATOM     16  C   UNL d   1      54.260  34.148  53.976  0.00  0.00     0.024 A 
ATOM     17  C   UNL d   1      54.284  33.853  54.746  0.00  0.00     0.094 A 
ATOM     18  C   UNL d   1      53.614  33.507  55.071  0.00  0.00     0.024 A 
ATOM     19  C   UNL d   1      52.919  33.454  54.631  0.00  0.00     0.004 A 
BRANCH  17  20
ATOM     20  O   UNL d   1      54.979  33.906  55.186  0.00  0.00    -0.328 OA
ATOM     21  C   UNL d   1      55.079  34.521  55.726  0.00  0.00     0.181 C 
ENDBRANCH  17  20
ENDBRANCH   4  14
BRANCH   5  22
ATOM     22  C   UNL d   1      50.305  34.364  52.675  0.00  0.00     0.019 A 
ATOM     23  C   UNL d   1      49.911  34.788  53.273  0.00  0.00     0.002 A 
ATOM     24  C   UNL d   1      49.194  35.186  53.073  0.00  0.00     0.007 A 
ATOM     25  C   UNL d   1      48.904  35.151  52.313  0.00  0.00     0.035 A 
ATOM     26  C   UNL d   1      49.298  34.728  51.715  0.00  0.00     0.007 A 
ATOM     27 BR   UNL d   1      48.202  35.547  52.136  0.00  0.00    -0.049 Br
ATOM     28  C   UNL d   1      50.018  34.328  51.918  0.00  0.00     0.002 A 
ENDBRANCH   5  22
TORSDOF 4
ENDMDL
MODEL 3
REMARK VINA RESULT:      -7.4      2.122      4.464
REMARK  4 active torsions:
REMARK  status: ('A' for Active; 'I' for Inactive)
REMARK       I    between atoms: C_3  and  N_1 
REMARK    1  A    between atoms: C_7  and  C_3 
REMARK    2  A    between atoms: C_8  and  C_4 
REMARK    3  A    between atoms: C_9  and  C_5 
REMARK    4  A    between atoms: O_25  and  C_18 
ROOT
ATOM      1  N   UNL d   1      53.416  32.555  53.954  0.00  0.00    -0.195 N 
ATOM      2  N   UNL d   1      53.747  31.824  54.174  0.00  0.00    -0.163 NA
ATOM      3  C   UNL d   1      53.792  33.292  54.049  0.00  0.00     0.282 C 
ATOM      4  C   UNL d   1      52.670  32.439  53.633  0.00  0.00     0.088 A 
ATOM      5  C   UNL d   1      53.199  31.243  53.987  0.00  0.00     0.103 A 
ATOM      6  C   UNL d   1      52.535  31.623  53.653  0.00  0.00     0.040 A 
ATOM      7  O   UNL d   1      54.542  33.338  54.379  0.00  0.00    -0.265 OA
ENDROOT
BRANCH   3   8
ATOM      8  C   UNL d   1      53.391  33.990  53.802  0.00  0.00     0.077 A 
ATOM      9  C   UNL d   1      53.418  34.229  53.021  0.00  0.00     0.104 A 
ATOM     10  N   UNL d   1      53.028  34.906  52.782  0.00  0.00    -0.242 NA
ATOM     11  C   UNL d   1      52.604  35.346  53.347  0.00  0.00     0.099 A 
ATOM     12  C   UNL d   1      52.576  35.107  54.130  0.00  0.00     0.021 A 
ATOM     13  C   UNL d   1      52.967  34.430  54.368  0.00  0.00     0.008 A 
ENDBRANCH   3   8
BRANCH   4  14
ATOM     14  C   UNL d   1      52.156  33.017  53.347  0.00  0.00     0.018 A 
ATOM     15  C   UNL d   1      51.601  33.361  53.851  0.00  0.00     0.004 A 
ATOM     16  C   UNL d   1      51.087  33.939  53.565  0.00  0.00     0.024 A 
ATOM     17  C   UNL d   1      51.127  34.173  52.775  0.00  0.00     0.094 A 
ATOM     18  C   UNL d   1      51.680  33.829  52.275  0.00  0.00     0.024 A 
ATOM     19  C   UNL d   1      52.195  33.250  52.561  0.00  0.00     0.004 A 
BRANCH  17  20
ATOM     20  O   UNL d   1      50.613  34.751  52.489  0.00  0.00    -0.328 OA
ATOM     21  C   UNL d   1      49.848  34.545  52.259  0.00  0.00     0.181 C 
ENDBRANCH  17  20
ENDBRANCH   4  14
BRANCH   5  22
ATOM     22  C   UNL d   1      53.296  30.445  54.108  0.00  0.00     0.019 A 
ATOM     23  C   UNL d   1      53.189  30.153  54.880  0.00  0.00     0.002 A 
ATOM     24  C   UNL d   1      53.289  29.325  55.010  0.00  0.00     0.007 A 
ATOM     25  C   UNL d   1      53.485  28.833  54.392  0.00  0.00     0.035 A 
ATOM     26  C   UNL d   1      53.593  29.125  53.620  0.00  0.00     0.007 A 
ATOM     27 BR   UNL d   1      53.579  28.027  54.538  0.00  0.00    -0.049 Br
ATOM     28  C   UNL d   1      53.492  29.958  53.491  0.00  0.00     0.002 A 
ENDBRANCH   5  22
TORSDOF 4
ENDMDL
