MODEL 1
REMARK VINA RESULT:      12.3      0.000      0.000
REMARK  3 active torsions:
REMARK  status: ('A' for Active; 'I' for Inactive)
REMARK    1  A    between atoms: CB_6  and  CG_1 
REMARK    2  A    between atoms: C_5  and  CA_8 
REMARK    3  A    between atoms: CA_8  and  CB_6 
ROOT
ATOM      1  CG  TRP d   1      58.331  49.696  50.595  0.00  0.00     0.022 A 
ATOM      2  NE1 TRP d   1      57.261  49.676  51.384  0.00  0.00    -0.244 NA
ATOM      3  CD1 TRP d   1      58.085  49.685  51.368  0.00  0.00     0.099 A 
ATOM      4  CD2 TRP d   1      57.656  49.693  50.111  0.00  0.00     0.019 A 
ATOM      5  CE2 TRP d   1      56.996  49.681  50.602  0.00  0.00     0.081 A 
ATOM      6  CE3 TRP d   1      57.562  49.701  49.289  0.00  0.00     0.002 A 
ATOM      7  CZ2 TRP d   1      56.239  49.675  50.275  0.00  0.00     0.019 A 
ATOM      8  CZ3 TRP d   1      56.807  49.695  48.962  0.00  0.00     0.000 A 
ATOM      9  CH2 TRP d   1      56.144  49.683  49.452  0.00  0.00     0.002 A 
ENDROOT
BRANCH   1  10
ATOM     10  CB  TRP d   1      59.121  49.708  50.348  0.00  0.00     0.029 C 
BRANCH  10  11
ATOM     11  CA  TRP d   1      59.720  49.662  50.901  0.00  0.00     0.167 C 
ATOM     12  N   TRP d   1      59.541  49.705  51.706  0.00  0.00    -0.142 N 
BRANCH  11  13
ATOM     13  C   TRP d   1      60.498  49.574  50.653  0.00  0.00     0.231 C 
ATOM     14  O   TRP d   1      61.082  49.390  51.192  0.00  0.00    -0.643 OA
ATOM     15  OXT TRP d   1      60.684  49.672  49.857  0.00  0.00    -0.643 OA
ENDBRANCH  11  13
ENDBRANCH  10  11
ENDBRANCH   1  10
TORSDOF 3
ENDMDL
MODEL 2
REMARK VINA RESULT:      14.3      1.853      3.593
REMARK  3 active torsions:
REMARK  status: ('A' for Active; 'I' for Inactive)
REMARK    1  A    between atoms: CB_6  and  CG_1 
REMARK    2  A    between atoms: C_5  and  CA_8 
REMARK    3  A    between atoms: CA_8  and  CB_6 
ROOT
ATOM      1  CG  TRP d   1      59.092  49.707  50.646  0.00  0.00     0.022 A 
ATOM      2  NE1 TRP d   1      60.217  49.705  49.938  0.00  0.00    -0.244 NA
ATOM      3  CD1 TRP d   1      59.394  49.706  49.893  0.00  0.00     0.099 A 
ATOM      4  CD2 TRP d   1      59.730  49.707  51.178  0.00  0.00     0.019 A 
ATOM      5  CE2 TRP d   1      60.424  49.706  50.737  0.00  0.00     0.081 A 
ATOM      6  CE3 TRP d   1      59.764  49.707  52.005  0.00  0.00     0.002 A 
ATOM      7  CZ2 TRP d   1      61.155  49.706  51.119  0.00  0.00     0.019 A 
ATOM      8  CZ3 TRP d   1      60.492  49.707  52.386  0.00  0.00     0.000 A 
ATOM      9  CH2 TRP d   1      61.190  49.706  51.946  0.00  0.00     0.002 A 
ENDROOT
BRANCH   1  10
ATOM     10  CB  TRP d   1      58.286  49.707  50.834  0.00  0.00     0.029 C 
BRANCH  10  11
ATOM     11  CA  TRP d   1      57.731  49.645  50.239  0.00  0.00     0.167 C 
ATOM     12  N   TRP d   1      57.963  49.708  49.450  0.00  0.00    -0.142 N 
BRANCH  11  13
ATOM     13  C   TRP d   1      56.941  49.521  50.430  0.00  0.00     0.231 C 
ATOM     14  O   TRP d   1      56.414  49.273  49.859  0.00  0.00    -0.643 OA
ATOM     15  OXT TRP d   1      56.685  49.649  51.203  0.00  0.00    -0.643 OA
ENDBRANCH  11  13
ENDBRANCH  10  11
ENDBRANCH   1  10
TORSDOF 3
ENDMDL
