MODEL 1
REMARK VINA RESULT:      -2.6      0.000      0.000
REMARK  6 active torsions:
REMARK  status: ('A' for Active; 'I' for Inactive)
REMARK    1  A    between atoms: N_2  and  S_1 
REMARK    2  A    between atoms: C_3  and  S_1 
REMARK    3  A    between atoms: C_4  and  C_9 
REMARK    4  A    between atoms: O_12  and  C_4 
REMARK    5  A    between atoms: C_19  and  O_12 
REMARK    6  A    between atoms: C_18  and  C_19 
ROOT
ATOM      1  C   UNL d   1      33.042  19.835 -23.048  0.00  0.00     0.104 A 
ATOM      2  C   UNL d   1      32.842  19.029 -22.973  0.00  0.00     0.018 A 
ATOM      3  C   UNL d   1      32.844  18.549 -23.647  0.00  0.00     0.064 A 
ATOM      4  C   UNL d   1      33.239  20.156 -23.781  0.00  0.00     0.013 A 
ATOM      5  C   UNL d   1      33.042  18.870 -24.386  0.00  0.00     0.005 A 
ATOM      6  C   UNL d   1      33.241  19.676 -24.455  0.00  0.00     0.001 A 
ENDROOT
BRANCH   3   7
ATOM      7  C   UNL d   1      32.648  17.745 -23.591  0.00  0.00     0.300 C 
ATOM      8  O   UNL d   1      33.241  17.172 -23.544  0.00  0.00    -0.259 OA
BRANCH   7   9
ATOM      9  O   UNL d   1      31.852  17.523 -23.582  0.00  0.00    -0.271 OA
BRANCH   9  10
ATOM     10  C   UNL d   1      31.650  16.726 -23.627  0.00  0.00     0.126 C 
BRANCH  10  11
ATOM     11  C   UNL d   1      30.903  16.512 -23.881  0.00  0.00     0.027 A 
ATOM     12  C   UNL d   1      30.331  16.322 -23.335  0.00  0.00     0.028 A 
ATOM     13  C   UNL d   1      29.581  16.107 -23.592  0.00  0.00     0.119 A 
ATOM     14  O   UNL d   1      28.895  15.888 -23.178  0.00  0.00    -0.300 OA
ATOM     15  C   UNL d   1      29.406  16.081 -24.393  0.00  0.00     0.119 A 
ATOM     16  C   UNL d   1      28.307  15.730 -23.735  0.00  0.00     0.304 A 
ATOM     17  O   UNL d   1      28.622  15.849 -24.483  0.00  0.00    -0.300 OA
ATOM     18  C   UNL d   1      29.988  16.273 -24.945  0.00  0.00     0.026 A 
ATOM     19  C   UNL d   1      30.738  16.489 -24.687  0.00  0.00     0.004 A 
ENDBRANCH  10  11
ENDBRANCH   9  10
ENDBRANCH   7   9
ENDBRANCH   3   7
BRANCH   1  20
ATOM     20  S   UNL d   1      33.040  20.315 -22.375  0.00  0.00     0.271 S 
ATOM     21  O   UNL d   1      33.017  19.660 -21.864  0.00  0.00    -0.200 OA
ATOM     22  O   UNL d   1      33.064  20.973 -22.883  0.00  0.00    -0.200 OA
BRANCH  20  23
ATOM     23  N   UNL d   1      33.038  20.786 -21.690  0.00  0.00    -0.229 N 
ATOM     24  C   UNL d   1      32.945  21.611 -21.757  0.00  0.00     0.092 A 
ATOM     25  C   UNL d   1      32.945  22.069 -21.071  0.00  0.00     0.020 A 
ATOM     26  C   UNL d   1      33.034  21.727 -20.321  0.00  0.00     0.003 A 
ATOM     27  C   UNL d   1      33.125  20.911 -20.265  0.00  0.00     0.020 A 
ATOM     28  C   UNL d   1      33.127  20.440 -20.949  0.00  0.00     0.092 A 
ENDBRANCH  20  23
ENDBRANCH   1  20
TORSDOF 6
ENDMDL
MODEL 2
REMARK VINA RESULT:      -1.9      1.279      1.887
REMARK  6 active torsions:
REMARK  status: ('A' for Active; 'I' for Inactive)
REMARK    1  A    between atoms: N_2  and  S_1 
REMARK    2  A    between atoms: C_3  and  S_1 
REMARK    3  A    between atoms: C_4  and  C_9 
REMARK    4  A    between atoms: O_12  and  C_4 
REMARK    5  A    between atoms: C_19  and  O_12 
REMARK    6  A    between atoms: C_18  and  C_19 
ROOT
ATOM      1  C   UNL d   1      32.965  21.308 -22.250  0.00  0.00     0.104 A 
ATOM      2  C   UNL d   1      32.922  20.493 -22.084  0.00  0.00     0.018 A 
ATOM      3  C   UNL d   1      33.040  19.950 -22.697  0.00  0.00     0.064 A 
ATOM      4  C   UNL d   1      33.123  21.577 -23.013  0.00  0.00     0.013 A 
ATOM      5  C   UNL d   1      33.199  20.218 -23.466  0.00  0.00     0.005 A 
ATOM      6  C   UNL d   1      33.241  21.035 -23.626  0.00  0.00     0.001 A 
ENDROOT
BRANCH   3   7
ATOM      7  C   UNL d   1      33.001  19.135 -22.550  0.00  0.00     0.300 C 
ATOM      8  O   UNL d   1      33.241  18.829 -21.821  0.00  0.00    -0.259 OA
BRANCH   7   9
ATOM      9  O   UNL d   1      32.719  18.630 -23.140  0.00  0.00    -0.271 OA
BRANCH   9  10
ATOM     10  C   UNL d   1      32.867  17.822 -23.094  0.00  0.00     0.126 C 
BRANCH  10  11
ATOM     11  C   UNL d   1      32.453  17.305 -23.572  0.00  0.00     0.027 A 
ATOM     12  C   UNL d   1      31.799  16.922 -23.278  0.00  0.00     0.028 A 
ATOM     13  C   UNL d   1      31.383  16.403 -23.760  0.00  0.00     0.119 A 
ATOM     14  O   UNL d   1      30.708  15.939 -23.622  0.00  0.00    -0.300 OA
ATOM     15  C   UNL d   1      31.622  16.269 -24.533  0.00  0.00     0.119 A 
ATOM     16  C   UNL d   1      30.543  15.525 -24.317  0.00  0.00     0.304 A 
ATOM     17  O   UNL d   1      31.106  15.728 -24.878  0.00  0.00    -0.300 OA
ATOM     18  C   UNL d   1      32.285  16.658 -24.829  0.00  0.00     0.026 A 
ATOM     19  C   UNL d   1      32.701  17.178 -24.346  0.00  0.00     0.004 A 
ENDBRANCH  10  11
ENDBRANCH   9  10
ENDBRANCH   7   9
ENDBRANCH   3   7
BRANCH   1  20
ATOM     20  S   UNL d   1      32.847  21.851 -21.638  0.00  0.00     0.271 S 
ATOM     21  O   UNL d   1      33.060  21.297 -21.057  0.00  0.00    -0.200 OA
ATOM     22  O   UNL d   1      32.633  22.409 -22.217  0.00  0.00    -0.200 OA
BRANCH  20  23
ATOM     23  N   UNL d   1      32.732  22.387 -21.012  0.00  0.00    -0.229 N 
ATOM     24  C   UNL d   1      32.122  22.953 -21.062  0.00  0.00     0.092 A 
ATOM     25  C   UNL d   1      32.017  23.480 -20.436  0.00  0.00     0.020 A 
ATOM     26  C   UNL d   1      32.502  23.458 -19.763  0.00  0.00     0.003 A 
ATOM     27  C   UNL d   1      33.101  22.895 -19.724  0.00  0.00     0.020 A 
ATOM     28  C   UNL d   1      33.216  22.359 -20.349  0.00  0.00     0.092 A 
ENDBRANCH  20  23
ENDBRANCH   1  20
TORSDOF 6
ENDMDL
MODEL 3
REMARK VINA RESULT:      -0.3      1.752      3.193
REMARK  6 active torsions:
REMARK  status: ('A' for Active; 'I' for Inactive)
REMARK    1  A    between atoms: N_2  and  S_1 
REMARK    2  A    between atoms: C_3  and  S_1 
REMARK    3  A    between atoms: C_4  and  C_9 
REMARK    4  A    between atoms: O_12  and  C_4 
REMARK    5  A    between atoms: C_19  and  O_12 
REMARK    6  A    between atoms: C_18  and  C_19 
ROOT
ATOM      1  C   UNL d   1      32.905  21.837 -20.505  0.00  0.00     0.104 A 
ATOM      2  C   UNL d   1      33.062  21.023 -20.588  0.00  0.00     0.018 A 
ATOM      3  C   UNL d   1      33.011  20.676 -21.337  0.00  0.00     0.064 A 
ATOM      4  C   UNL d   1      32.700  22.297 -21.157  0.00  0.00     0.013 A 
ATOM      5  C   UNL d   1      32.805  21.137 -21.995  0.00  0.00     0.005 A 
ATOM      6  C   UNL d   1      32.649  21.950 -21.906  0.00  0.00     0.001 A 
ENDROOT
BRANCH   3   7
ATOM      7  C   UNL d   1      33.164  19.867 -21.437  0.00  0.00     0.300 C 
ATOM      8  O   UNL d   1      33.241  19.371 -20.782  0.00  0.00    -0.259 OA
BRANCH   7   9
ATOM      9  O   UNL d   1      33.240  19.562 -22.202  0.00  0.00    -0.271 OA
BRANCH   9  10
ATOM     10  C   UNL d   1      33.237  18.748 -22.319  0.00  0.00     0.126 C 
BRANCH  10  11
ATOM     11  C   UNL d   1      32.906  18.438 -23.000  0.00  0.00     0.027 A 
ATOM     12  C   UNL d   1      32.298  17.901 -22.942  0.00  0.00     0.028 A 
ATOM     13  C   UNL d   1      31.967  17.590 -23.627  0.00  0.00     0.119 A 
ATOM     14  O   UNL d   1      31.353  17.042 -23.746  0.00  0.00    -0.300 OA
ATOM     15  C   UNL d   1      32.243  17.816 -24.364  0.00  0.00     0.119 A 
ATOM     16  C   UNL d   1      31.263  16.942 -24.560  0.00  0.00     0.304 A 
ATOM     17  O   UNL d   1      31.811  17.419 -24.941  0.00  0.00    -0.300 OA
ATOM     18  C   UNL d   1      32.859  18.361 -24.420  0.00  0.00     0.026 A 
ATOM     19  C   UNL d   1      33.191  18.672 -23.735  0.00  0.00     0.004 A 
ENDBRANCH  10  11
ENDBRANCH   9  10
ENDBRANCH   7   9
ENDBRANCH   3   7
BRANCH   1  20
ATOM     20  S   UNL d   1      32.956  22.183 -19.756  0.00  0.00     0.271 S 
ATOM     21  O   UNL d   1      32.936  21.445 -19.374  0.00  0.00    -0.200 OA
ATOM     22  O   UNL d   1      32.976  22.924 -20.135  0.00  0.00    -0.200 OA
BRANCH  20  23
ATOM     23  N   UNL d   1      33.007  22.518 -18.996  0.00  0.00    -0.229 N 
ATOM     24  C   UNL d   1      32.871  23.334 -18.897  0.00  0.00     0.092 A 
ATOM     25  C   UNL d   1      32.924  23.656 -18.139  0.00  0.00     0.020 A 
ATOM     26  C   UNL d   1      33.109  23.189 -17.480  0.00  0.00     0.003 A 
ATOM     27  C   UNL d   1      33.241  22.384 -17.589  0.00  0.00     0.020 A 
ATOM     28  C   UNL d   1      33.190  22.048 -18.348  0.00  0.00     0.092 A 
ENDBRANCH  20  23
ENDBRANCH   1  20
TORSDOF 6
ENDMDL
