MODEL 1
REMARK VINA RESULT:      47.4      0.000      0.000
REMARK  7 active torsions:
REMARK  status: ('A' for Active; 'I' for Inactive)
REMARK    1  A    between atoms: N_2  and  S_1 
REMARK    2  A    between atoms: C_5  and  S_1 
REMARK    3  A    between atoms: C_3  and  N_2 
REMARK    4  A    between atoms: C_4  and  C_3 
REMARK    5  A    between atoms: C_8  and  C_3 
REMARK    6  A    between atoms: C_17  and  C_8 
REMARK    7  A    between atoms: C_9  and  C_10 
ROOT
ATOM      1  S   UNL d   1      59.350  49.699  51.575  0.00  0.00     0.285 S 
ATOM      2  O   UNL d   1      58.878  49.705  52.244  0.00  0.00    -0.198 OA
ATOM      3  O   UNL d   1      60.032  49.701  52.057  0.00  0.00    -0.198 OA
ENDROOT
BRANCH   1   4
ATOM      4  N   UNL d   1      59.822  49.694  50.907  0.00  0.00    -0.152 NA
BRANCH   4   5
ATOM      5  C   UNL d   1      60.476  49.214  50.871  0.00  0.00     0.158 C 
BRANCH   5   6
ATOM      6  C   UNL d   1      61.006  49.285  50.252  0.00  0.00     0.230 C 
ATOM      7  O   UNL d   1      60.779  49.105  49.495  0.00  0.00    -0.643 OA
ATOM      8  O   UNL d   1      61.776  49.542  50.400  0.00  0.00    -0.643 OA
ENDBRANCH   5   6
BRANCH   5   9
ATOM      9  C   UNL d   1      60.606  48.652  51.460  0.00  0.00     0.026 C 
BRANCH   9  10
ATOM     10  C   UNL d   1      60.955  47.928  51.277  0.00  0.00     0.002 A 
ATOM     11  C   UNL d   1      60.703  47.231  51.649  0.00  0.00     0.000 A 
ATOM     12  C   UNL d   1      61.052  46.510  51.465  0.00  0.00     0.000 A 
ATOM     13  C   UNL d   1      61.656  46.477  50.907  0.00  0.00     0.000 A 
ATOM     14  C   UNL d   1      61.922  47.181  50.520  0.00  0.00     0.000 A 
ATOM     15  C   UNL d   1      61.555  47.895  50.722  0.00  0.00     0.000 A 
ENDBRANCH   9  10
ENDBRANCH   5   9
ENDBRANCH   4   5
ENDBRANCH   1   4
BRANCH   1  16
ATOM     16  C   UNL d   1      58.681  49.698  51.103  0.00  0.00     0.105 A 
ATOM     17  C   UNL d   1      58.760  49.707  50.282  0.00  0.00     0.013 A 
ATOM     18  C   UNL d   1      58.091  49.706  49.810  0.00  0.00    -0.004 A 
ATOM     19  C   UNL d   1      57.344  49.694  50.159  0.00  0.00    -0.023 A 
ATOM     20  C   UNL d   1      57.255  49.685  50.993  0.00  0.00    -0.004 A 
ATOM     21  C   UNL d   1      57.934  49.686  51.452  0.00  0.00     0.013 A 
BRANCH  19  22
ATOM     22  C   UNL d   1      56.683  49.693  49.661  0.00  0.00     0.019 C 
ATOM     23  C   UNL d   1      56.200  49.681  50.322  0.00  0.00     0.004 C 
ATOM     24  C   UNL d   1      56.033  49.692  49.176  0.00  0.00     0.004 C 
ATOM     25  C   UNL d   1      57.176  49.705  49.007  0.00  0.00     0.004 C 
ENDBRANCH  19  22
ENDBRANCH   1  16
TORSDOF 7
ENDMDL
