MODEL 1
REMARK VINA RESULT:      -6.1      0.000      0.000
REMARK  3 active torsions:
REMARK  status: ('A' for Active; 'I' for Inactive)
REMARK    1  A    between atoms: C_2  and  C_3 
REMARK    2  A    between atoms: C_5  and  C_2 
REMARK    3  A    between atoms: C_3  and  C_6 
ROOT
ATOM      1  N   UNL d   1      57.796  -0.061  30.106  0.00  0.00    -0.246 NA
ATOM      2  C   UNL d   1      58.489  -0.058  29.660  0.00  0.00     0.081 A 
ATOM      3  C   UNL d   1      57.800   0.322  30.852  0.00  0.00     0.081 A 
ATOM      4  C   UNL d   1      59.175   0.319  29.950  0.00  0.00     0.018 A 
ATOM      5  C   UNL d   1      59.148   0.682  30.679  0.00  0.00     0.003 A 
ATOM      6  C   UNL d   1      58.452   0.681  31.129  0.00  0.00     0.019 A 
ATOM      7  C   UNL d   1      58.503  -0.432  28.920  0.00  0.00     0.019 A 
ATOM      8  C   UNL d   1      59.855   0.311  29.492  0.00  0.00     0.002 A 
ATOM      9  C   UNL d   1      59.211  -0.419  28.485  0.00  0.00     0.002 A 
ATOM     10  C   UNL d   1      59.863  -0.060  28.761  0.00  0.00     0.000 A 
ENDROOT
BRANCH   3  11
ATOM     11  C   UNL d   1      57.115   0.337  31.329  0.00  0.00     0.019 C 
BRANCH  11  12
ATOM     12  C   UNL d   1      56.955  -0.264  31.857  0.00  0.00     0.005 C 
BRANCH  12  13
ATOM     13  C   UNL d   1      56.358  -0.169  32.417  0.00  0.00     0.039 A 
ATOM     14  C   UNL d   1      56.020  -0.818  32.769  0.00  0.00     0.196 A 
ATOM     15  O   UNL d   1      56.265  -1.608  32.576  0.00  0.00    -0.287 OA
ATOM     16  C   UNL d   1      55.423  -0.723  33.330  0.00  0.00     0.042 A 
ATOM     17  C   UNL d   1      55.174   0.046  33.527  0.00  0.00     0.003 A 
ATOM     18  C   UNL d   1      55.498   0.677  33.190  0.00  0.00     0.000 A 
ATOM     19  C   UNL d   1      56.096   0.582  32.629  0.00  0.00     0.003 A 
ENDBRANCH  12  13
ENDBRANCH  11  12
ENDBRANCH   3  11
TORSDOF 3
ENDMDL
MODEL 2
REMARK VINA RESULT:      -5.8      1.320      4.476
REMARK  3 active torsions:
REMARK  status: ('A' for Active; 'I' for Inactive)
REMARK    1  A    between atoms: C_2  and  C_3 
REMARK    2  A    between atoms: C_5  and  C_2 
REMARK    3  A    between atoms: C_3  and  C_6 
ROOT
ATOM      1  N   UNL d   1      57.006  -0.824  31.448  0.00  0.00    -0.246 NA
ATOM      2  C   UNL d   1      56.511  -0.731  32.101  0.00  0.00     0.081 A 
ATOM      3  C   UNL d   1      57.295  -0.135  31.065  0.00  0.00     0.081 A 
ATOM      4  C   UNL d   1      56.306   0.033  32.368  0.00  0.00     0.018 A 
ATOM      5  C   UNL d   1      56.602   0.682  31.974  0.00  0.00     0.003 A 
ATOM      6  C   UNL d   1      57.100   0.591  31.319  0.00  0.00     0.019 A 
ATOM      7  C   UNL d   1      56.216  -1.400  32.492  0.00  0.00     0.019 A 
ATOM      8  C   UNL d   1      55.812   0.105  33.018  0.00  0.00     0.002 A 
ATOM      9  C   UNL d   1      55.719  -1.287  33.147  0.00  0.00     0.002 A 
ATOM     10  C   UNL d   1      55.524  -0.560  33.401  0.00  0.00     0.000 A 
ENDROOT
BRANCH   3  11
ATOM     11  C   UNL d   1      57.798  -0.195  30.401  0.00  0.00     0.019 C 
BRANCH  11  12
ATOM     12  C   UNL d   1      58.562   0.091  30.426  0.00  0.00     0.005 C 
BRANCH  12  13
ATOM     13  C   UNL d   1      59.075  -0.059  29.798  0.00  0.00     0.039 A 
ATOM     14  C   UNL d   1      59.840   0.211  29.822  0.00  0.00     0.196 A 
ATOM     15  O   UNL d   1      60.137   0.652  30.484  0.00  0.00    -0.287 OA
ATOM     16  C   UNL d   1      60.354   0.061  29.194  0.00  0.00     0.042 A 
ATOM     17  C   UNL d   1      60.075  -0.370  28.539  0.00  0.00     0.003 A 
ATOM     18  C   UNL d   1      59.336  -0.634  28.512  0.00  0.00     0.000 A 
ATOM     19  C   UNL d   1      58.822  -0.484  29.140  0.00  0.00     0.003 A 
ENDBRANCH  12  13
ENDBRANCH  11  12
ENDBRANCH   3  11
TORSDOF 3
ENDMDL
MODEL 3
REMARK VINA RESULT:      -5.7      1.266      4.383
REMARK  3 active torsions:
REMARK  status: ('A' for Active; 'I' for Inactive)
REMARK    1  A    between atoms: C_2  and  C_3 
REMARK    2  A    between atoms: C_5  and  C_2 
REMARK    3  A    between atoms: C_3  and  C_6 
ROOT
ATOM      1  N   UNL d   1      57.094  -0.854  31.526  0.00  0.00    -0.246 NA
ATOM      2  C   UNL d   1      56.558  -0.713  32.136  0.00  0.00     0.081 A 
ATOM      3  C   UNL d   1      57.386  -0.198  31.091  0.00  0.00     0.081 A 
ATOM      4  C   UNL d   1      56.315   0.066  32.311  0.00  0.00     0.018 A 
ATOM      5  C   UNL d   1      56.615   0.682  31.870  0.00  0.00     0.003 A 
ATOM      6  C   UNL d   1      57.154   0.543  31.257  0.00  0.00     0.019 A 
ATOM      7  C   UNL d   1      56.260  -1.349  32.576  0.00  0.00     0.019 A 
ATOM      8  C   UNL d   1      55.780   0.186  32.920  0.00  0.00     0.002 A 
ATOM      9  C   UNL d   1      55.720  -1.188  33.187  0.00  0.00     0.002 A 
ATOM     10  C   UNL d   1      55.489  -0.447  33.353  0.00  0.00     0.000 A 
ENDROOT
BRANCH   3  11
ATOM     11  C   UNL d   1      57.930  -0.306  30.468  0.00  0.00     0.019 C 
BRANCH  11  12
ATOM     12  C   UNL d   1      58.110  -1.052  30.190  0.00  0.00     0.005 C 
BRANCH  12  13
ATOM     13  C   UNL d   1      58.688  -1.144  29.608  0.00  0.00     0.039 A 
ATOM     14  C   UNL d   1      58.845  -1.879  29.302  0.00  0.00     0.196 A 
ATOM     15  O   UNL d   1      58.428  -2.571  29.564  0.00  0.00    -0.287 OA
ATOM     16  C   UNL d   1      59.423  -1.972  28.720  0.00  0.00     0.042 A 
ATOM     17  C   UNL d   1      59.839  -1.301  28.455  0.00  0.00     0.003 A 
ATOM     18  C   UNL d   1      59.689  -0.589  28.749  0.00  0.00     0.000 A 
ATOM     19  C   UNL d   1      59.111  -0.496  29.330  0.00  0.00     0.003 A 
ENDBRANCH  12  13
ENDBRANCH  11  12
ENDBRANCH   3  11
TORSDOF 3
ENDMDL
MODEL 4
REMARK VINA RESULT:      -5.0      1.268      4.477
REMARK  3 active torsions:
REMARK  status: ('A' for Active; 'I' for Inactive)
REMARK    1  A    between atoms: C_2  and  C_3 
REMARK    2  A    between atoms: C_5  and  C_2 
REMARK    3  A    between atoms: C_3  and  C_6 
ROOT
ATOM      1  N   UNL d   1      56.023   0.618  32.561  0.00  0.00    -0.246 NA
ATOM      2  C   UNL d   1      55.671   0.625  33.306  0.00  0.00     0.081 A 
ATOM      3  C   UNL d   1      56.860   0.644  32.513  0.00  0.00     0.081 A 
ATOM      4  C   UNL d   1      56.144   0.657  33.993  0.00  0.00     0.018 A 
ATOM      5  C   UNL d   1      56.954   0.682  33.915  0.00  0.00     0.003 A 
ATOM      6  C   UNL d   1      57.310   0.675  33.167  0.00  0.00     0.019 A 
ATOM      7  C   UNL d   1      54.845   0.599  33.371  0.00  0.00     0.019 A 
ATOM      8  C   UNL d   1      55.776   0.663  34.726  0.00  0.00     0.002 A 
ATOM      9  C   UNL d   1      54.509   0.607  34.130  0.00  0.00     0.002 A 
ATOM     10  C   UNL d   1      54.958   0.638  34.784  0.00  0.00     0.000 A 
ENDROOT
BRANCH   3  11
ATOM     11  C   UNL d   1      57.248   0.639  31.774  0.00  0.00     0.019 C 
BRANCH  11  12
ATOM     12  C   UNL d   1      57.269  -0.035  31.314  0.00  0.00     0.005 C 
BRANCH  12  13
ATOM     13  C   UNL d   1      57.735  -0.052  30.634  0.00  0.00     0.039 A 
ATOM     14  C   UNL d   1      57.915  -0.760  30.280  0.00  0.00     0.196 A 
ATOM     15  O   UNL d   1      57.635  -1.499  30.591  0.00  0.00    -0.287 OA
ATOM     16  C   UNL d   1      58.380  -0.777  29.599  0.00  0.00     0.042 A 
ATOM     17  C   UNL d   1      58.661  -0.060  29.284  0.00  0.00     0.003 A 
ATOM     18  C   UNL d   1      58.489   0.627  29.624  0.00  0.00     0.000 A 
ATOM     19  C   UNL d   1      58.023   0.645  30.305  0.00  0.00     0.003 A 
ENDBRANCH  12  13
ENDBRANCH  11  12
ENDBRANCH   3  11
TORSDOF 3
ENDMDL
MODEL 5
REMARK VINA RESULT:      -3.3      9.853     10.155
REMARK  3 active torsions:
REMARK  status: ('A' for Active; 'I' for Inactive)
REMARK    1  A    between atoms: C_2  and  C_3 
REMARK    2  A    between atoms: C_5  and  C_2 
REMARK    3  A    between atoms: C_3  and  C_6 
ROOT
ATOM      1  N   UNL d   1      59.066  -9.817  31.898  0.00  0.00    -0.246 NA
ATOM      2  C   UNL d   1      58.659  -9.816  31.182  0.00  0.00     0.081 A 
ATOM      3  C   UNL d   1      58.622  -9.817  32.610  0.00  0.00     0.081 A 
ATOM      4  C   UNL d   1      57.824  -9.816  31.173  0.00  0.00     0.018 A 
ATOM      5  C   UNL d   1      57.421  -9.816  31.880  0.00  0.00     0.003 A 
ATOM      6  C   UNL d   1      57.828  -9.816  32.602  0.00  0.00     0.019 A 
ATOM      7  C   UNL d   1      59.081  -9.816  30.468  0.00  0.00     0.019 A 
ATOM      8  C   UNL d   1      57.436  -9.815  30.450  0.00  0.00     0.002 A 
ATOM      9  C   UNL d   1      58.653  -9.815  29.756  0.00  0.00     0.002 A 
ATOM     10  C   UNL d   1      57.859  -9.815  29.748  0.00  0.00     0.000 A 
ENDROOT
BRANCH   3  11
ATOM     11  C   UNL d   1      59.004  -9.818  33.352  0.00  0.00     0.019 C 
BRANCH  11  12
ATOM     12  C   UNL d   1      59.523  -9.222  33.560  0.00  0.00     0.005 C 
BRANCH  12  13
ATOM     13  C   UNL d   1      59.890  -9.238  34.299  0.00  0.00     0.039 A 
ATOM     14  C   UNL d   1      60.556  -8.795  34.433  0.00  0.00     0.196 A 
ATOM     15  O   UNL d   1      60.897  -8.306  33.828  0.00  0.00    -0.287 OA
ATOM     16  C   UNL d   1      60.924  -8.811  35.171  0.00  0.00     0.042 A 
ATOM     17  C   UNL d   1      60.600  -9.287  35.772  0.00  0.00     0.003 A 
ATOM     18  C   UNL d   1      59.955  -9.717  35.647  0.00  0.00     0.000 A 
ATOM     19  C   UNL d   1      59.588  -9.701  34.908  0.00  0.00     0.003 A 
ENDBRANCH  12  13
ENDBRANCH  11  12
ENDBRANCH   3  11
TORSDOF 3
ENDMDL
