MODEL 1
REMARK VINA RESULT:      -7.9      0.000      0.000
REMARK  5 active torsions:
REMARK  status: ('A' for Active; 'I' for Inactive)
REMARK    1  A    between atoms: C_5  and  N_1 
REMARK    2  A    between atoms: C_2  and  C_7 
REMARK    3  A    between atoms: C_9  and  C_2 
REMARK    4  A    between atoms: C_3  and  C_4 
REMARK    5  A    between atoms: C_7  and  C_8 
ROOT
ATOM      1  C   UNL d   1      51.485  34.344  53.001  0.00  0.00     0.100 C 
ATOM      2  C   UNL d   1      51.877  34.858  53.517  0.00  0.00     0.103 C 
ATOM      3  N   UNL d   1      52.269  35.372  54.034  0.00  0.00    -0.191 NA
ENDROOT
BRANCH   1   4
ATOM      4  C   UNL d   1      51.904  33.949  52.414  0.00  0.00     0.037 C 
BRANCH   4   5
ATOM      5  C   UNL d   1      52.462  33.377  52.619  0.00  0.00     0.101 A 
ATOM      6  O   UNL d   1      52.303  32.618  52.897  0.00  0.00    -0.307 OA
ATOM      7  C   UNL d   1      53.025  32.247  53.028  0.00  0.00     0.102 A 
ATOM      8  C   UNL d   1      53.631  32.773  52.833  0.00  0.00     0.027 A 
ATOM      9  C   UNL d   1      53.293  33.467  52.582  0.00  0.00     0.027 A 
BRANCH   7  10
ATOM     10  C   UNL d   1      53.125  31.479  53.307  0.00  0.00     0.045 A 
ATOM     11  C   UNL d   1      53.560  31.341  53.996  0.00  0.00     0.129 A 
ATOM     12  C   UNL d   1      53.663  30.575  54.278  0.00  0.00     0.024 A 
ATOM     13  C   UNL d   1      53.328  29.938  53.869  0.00  0.00     0.002 A 
ATOM     14  C   UNL d   1      52.892  30.067  53.181  0.00  0.00     0.000 A 
ATOM     15  C   UNL d   1      53.428  29.171  54.147  0.00  0.00     0.000 C 
ATOM     16  C   UNL d   1      52.790  30.842  52.898  0.00  0.00     0.004 A 
BRANCH  11  17
ATOM     17  N   UNL d   1      53.894  31.976  54.403  0.00  0.00    -0.114 N 
ATOM     18  O   UNL d   1      54.620  32.286  54.169  0.00  0.00    -0.532 OA
ATOM     19  O   UNL d   1      53.504  32.310  55.052  0.00  0.00    -0.532 OA
ENDBRANCH  11  17
ENDBRANCH   7  10
ENDBRANCH   4   5
ENDBRANCH   1   4
BRANCH   1  20
ATOM     20  C   UNL d   1      50.672  34.229  53.076  0.00  0.00     0.167 C 
ATOM     21  S   UNL d   1      50.163  34.471  52.471  0.00  0.00    -0.055 SA
ATOM     22  N   UNL d   1      50.366  33.874  53.750  0.00  0.00    -0.136 N 
ENDBRANCH   1  20
TORSDOF 5
ENDMDL
MODEL 2
REMARK VINA RESULT:      -7.7      2.085      3.870
REMARK  5 active torsions:
REMARK  status: ('A' for Active; 'I' for Inactive)
REMARK    1  A    between atoms: C_5  and  N_1 
REMARK    2  A    between atoms: C_2  and  C_7 
REMARK    3  A    between atoms: C_9  and  C_2 
REMARK    4  A    between atoms: C_3  and  C_4 
REMARK    5  A    between atoms: C_7  and  C_8 
ROOT
ATOM      1  C   UNL d   1      53.296  30.229  53.500  0.00  0.00     0.100 C 
ATOM      2  C   UNL d   1      53.129  30.282  52.692  0.00  0.00     0.103 C 
ATOM      3  N   UNL d   1      52.962  30.334  51.883  0.00  0.00    -0.191 NA
ENDROOT
BRANCH   1   4
ATOM      4  C   UNL d   1      53.943  30.626  53.816  0.00  0.00     0.037 C 
BRANCH   4   5
ATOM      5  C   UNL d   1      54.021  31.440  53.705  0.00  0.00     0.101 A 
ATOM      6  O   UNL d   1      53.574  32.028  54.070  0.00  0.00    -0.307 OA
ATOM      7  C   UNL d   1      53.845  32.752  53.793  0.00  0.00     0.102 A 
ATOM      8  C   UNL d   1      54.459  32.617  53.257  0.00  0.00     0.027 A 
ATOM      9  C   UNL d   1      54.572  31.816  53.199  0.00  0.00     0.027 A 
BRANCH   7  10
ATOM     10  C   UNL d   1      53.552  33.489  54.013  0.00  0.00     0.045 A 
ATOM     11  C   UNL d   1      53.854  33.875  54.679  0.00  0.00     0.129 A 
ATOM     12  C   UNL d   1      53.564  34.611  54.903  0.00  0.00     0.024 A 
ATOM     13  C   UNL d   1      52.965  34.970  54.457  0.00  0.00     0.002 A 
ATOM     14  C   UNL d   1      52.659  34.593  53.792  0.00  0.00     0.000 A 
ATOM     15  C   UNL d   1      52.673  35.706  54.677  0.00  0.00     0.000 C 
ATOM     16  C   UNL d   1      52.953  33.849  53.568  0.00  0.00     0.004 A 
BRANCH  11  17
ATOM     17  N   UNL d   1      54.451  33.516  55.123  0.00  0.00    -0.114 N 
ATOM     18  O   UNL d   1      55.243  33.668  54.955  0.00  0.00    -0.532 OA
ATOM     19  O   UNL d   1      54.262  33.001  55.741  0.00  0.00    -0.532 OA
ENDBRANCH  11  17
ENDBRANCH   7  10
ENDBRANCH   4   5
ENDBRANCH   1   4
BRANCH   1  20
ATOM     20  C   UNL d   1      52.812  29.775  53.990  0.00  0.00     0.167 C 
ATOM     21  S   UNL d   1      53.148  29.220  54.503  0.00  0.00    -0.055 SA
ATOM     22  N   UNL d   1      51.998  29.874  53.970  0.00  0.00    -0.136 N 
ENDBRANCH   1  20
TORSDOF 5
ENDMDL
MODEL 3
REMARK VINA RESULT:      -7.3      1.943      3.924
REMARK  5 active torsions:
REMARK  status: ('A' for Active; 'I' for Inactive)
REMARK    1  A    between atoms: C_5  and  N_1 
REMARK    2  A    between atoms: C_2  and  C_7 
REMARK    3  A    between atoms: C_9  and  C_2 
REMARK    4  A    between atoms: C_3  and  C_4 
REMARK    5  A    between atoms: C_7  and  C_8 
ROOT
ATOM      1  C   UNL d   1      54.416  32.781  54.385  0.00  0.00     0.100 C 
ATOM      2  C   UNL d   1      54.939  32.883  53.752  0.00  0.00     0.103 C 
ATOM      3  N   UNL d   1      55.462  32.986  53.119  0.00  0.00    -0.191 NA
ENDROOT
BRANCH   1   4
ATOM      4  C   UNL d   1      53.761  32.291  54.305  0.00  0.00     0.037 C 
BRANCH   4   5
ATOM      5  C   UNL d   1      53.164  32.485  53.771  0.00  0.00     0.101 A 
ATOM      6  O   UNL d   1      52.551  33.022  53.896  0.00  0.00    -0.307 OA
ATOM      7  C   UNL d   1      52.092  33.037  53.215  0.00  0.00     0.102 A 
ATOM      8  C   UNL d   1      52.416  32.511  52.667  0.00  0.00     0.027 A 
ATOM      9  C   UNL d   1      53.073  32.170  53.000  0.00  0.00     0.027 A 
BRANCH   7  10
ATOM     10  C   UNL d   1      51.420  33.498  53.100  0.00  0.00     0.045 A 
ATOM     11  C   UNL d   1      51.474  34.217  52.695  0.00  0.00     0.129 A 
ATOM     12  C   UNL d   1      50.806  34.681  52.578  0.00  0.00     0.024 A 
ATOM     13  C   UNL d   1      50.072  34.427  52.868  0.00  0.00     0.002 A 
ATOM     14  C   UNL d   1      50.010  33.712  53.273  0.00  0.00     0.000 A 
ATOM     15  C   UNL d   1      49.401  34.888  52.753  0.00  0.00     0.000 C 
ATOM     16  C   UNL d   1      50.687  33.244  53.390  0.00  0.00     0.004 A 
BRANCH  11  17
ATOM     17  N   UNL d   1      52.205  34.470  52.406  0.00  0.00    -0.114 N 
ATOM     18  O   UNL d   1      52.670  34.987  52.846  0.00  0.00    -0.532 OA
ATOM     19  O   UNL d   1      52.480  34.206  51.672  0.00  0.00    -0.532 OA
ENDBRANCH  11  17
ENDBRANCH   7  10
ENDBRANCH   4   5
ENDBRANCH   1   4
BRANCH   1  20
ATOM     20  C   UNL d   1      54.554  33.172  55.098  0.00  0.00     0.167 C 
ATOM     21  S   UNL d   1      54.990  33.875  55.105  0.00  0.00    -0.055 SA
ATOM     22  N   UNL d   1      54.260  32.866  55.799  0.00  0.00    -0.136 N 
ENDBRANCH   1  20
TORSDOF 5
ENDMDL
MODEL 4
REMARK VINA RESULT:      -7.1      1.820      2.285
REMARK  5 active torsions:
REMARK  status: ('A' for Active; 'I' for Inactive)
REMARK    1  A    between atoms: C_5  and  N_1 
REMARK    2  A    between atoms: C_2  and  C_7 
REMARK    3  A    between atoms: C_9  and  C_2 
REMARK    4  A    between atoms: C_3  and  C_4 
REMARK    5  A    between atoms: C_7  and  C_8 
ROOT
ATOM      1  C   UNL d   1      53.966  34.220  54.587  0.00  0.00     0.100 C 
ATOM      2  C   UNL d   1      54.652  34.091  55.029  0.00  0.00     0.103 C 
ATOM      3  N   UNL d   1      55.340  33.962  55.473  0.00  0.00    -0.191 NA
ENDROOT
BRANCH   1   4
ATOM      4  C   UNL d   1      53.924  33.969  53.805  0.00  0.00     0.037 C 
BRANCH   4   5
ATOM      5  C   UNL d   1      54.025  33.172  53.621  0.00  0.00     0.101 A 
ATOM      6  O   UNL d   1      53.522  32.554  53.832  0.00  0.00    -0.307 OA
ATOM      7  C   UNL d   1      53.843  31.860  53.531  0.00  0.00     0.102 A 
ATOM      8  C   UNL d   1      54.544  32.044  53.135  0.00  0.00     0.027 A 
ATOM      9  C   UNL d   1      54.661  32.845  53.186  0.00  0.00     0.027 A 
BRANCH   7  10
ATOM     10  C   UNL d   1      53.518  31.108  53.613  0.00  0.00     0.045 A 
ATOM     11  C   UNL d   1      52.811  30.916  53.230  0.00  0.00     0.129 A 
ATOM     12  C   UNL d   1      52.484  30.166  53.309  0.00  0.00     0.024 A 
ATOM     13  C   UNL d   1      52.866  29.598  53.775  0.00  0.00     0.002 A 
ATOM     14  C   UNL d   1      53.571  29.781  54.160  0.00  0.00     0.000 A 
ATOM     15  C   UNL d   1      52.542  28.847  53.857  0.00  0.00     0.000 C 
ATOM     16  C   UNL d   1      53.900  30.540  54.079  0.00  0.00     0.004 A 
BRANCH  11  17
ATOM     17  N   UNL d   1      52.431  31.483  52.765  0.00  0.00    -0.114 N 
ATOM     18  O   UNL d   1      52.660  31.602  51.983  0.00  0.00    -0.532 OA
ATOM     19  O   UNL d   1      51.817  31.939  53.079  0.00  0.00    -0.532 OA
ENDBRANCH  11  17
ENDBRANCH   7  10
ENDBRANCH   4   5
ENDBRANCH   1   4
BRANCH   1  20
ATOM     20  C   UNL d   1      53.321  34.601  54.932  0.00  0.00     0.167 C 
ATOM     21  S   UNL d   1      52.958  35.233  54.541  0.00  0.00    -0.055 SA
ATOM     22  N   UNL d   1      53.039  34.355  55.662  0.00  0.00    -0.136 N 
ENDBRANCH   1  20
TORSDOF 5
ENDMDL
MODEL 5
REMARK VINA RESULT:      -6.8      1.968      2.666
REMARK  5 active torsions:
REMARK  status: ('A' for Active; 'I' for Inactive)
REMARK    1  A    between atoms: C_5  and  N_1 
REMARK    2  A    between atoms: C_2  and  C_7 
REMARK    3  A    between atoms: C_9  and  C_2 
REMARK    4  A    between atoms: C_3  and  C_4 
REMARK    5  A    between atoms: C_7  and  C_8 
ROOT
ATOM      1  C   UNL d   1      49.426  34.602  52.407  0.00  0.00     0.100 C 
ATOM      2  C   UNL d   1      49.390  35.131  53.041  0.00  0.00     0.103 C 
ATOM      3  N   UNL d   1      49.353  35.661  53.676  0.00  0.00    -0.191 NA
ENDROOT
BRANCH   1   4
ATOM      4  C   UNL d   1      49.892  33.926  52.458  0.00  0.00     0.037 C 
BRANCH   4   5
ATOM      5  C   UNL d   1      50.704  33.994  52.582  0.00  0.00     0.101 A 
ATOM      6  O   UNL d   1      51.122  33.722  53.239  0.00  0.00    -0.307 OA
ATOM      7  C   UNL d   1      51.913  33.911  53.123  0.00  0.00     0.102 A 
ATOM      8  C   UNL d   1      51.988  34.299  52.397  0.00  0.00     0.027 A 
ATOM      9  C   UNL d   1      51.252  34.353  52.061  0.00  0.00     0.027 A 
BRANCH   7  10
ATOM     10  C   UNL d   1      52.527  33.742  53.644  0.00  0.00     0.045 A 
ATOM     11  C   UNL d   1      52.894  33.001  53.628  0.00  0.00     0.129 A 
ATOM     12  C   UNL d   1      53.508  32.828  54.147  0.00  0.00     0.024 A 
ATOM     13  C   UNL d   1      53.761  33.400  54.690  0.00  0.00     0.002 A 
ATOM     14  C   UNL d   1      53.401  34.141  54.713  0.00  0.00     0.000 A 
ATOM     15  C   UNL d   1      54.374  33.231  55.211  0.00  0.00     0.000 C 
ATOM     16  C   UNL d   1      52.780  34.313  54.187  0.00  0.00     0.004 A 
BRANCH  11  17
ATOM     17  N   UNL d   1      52.642  32.432  53.086  0.00  0.00    -0.114 N 
ATOM     18  O   UNL d   1      52.962  32.407  52.328  0.00  0.00    -0.532 OA
ATOM     19  O   UNL d   1      52.064  31.879  53.297  0.00  0.00    -0.532 OA
ENDBRANCH  11  17
ENDBRANCH   7  10
ENDBRANCH   4   5
ENDBRANCH   1   4
BRANCH   1  20
ATOM     20  C   UNL d   1      48.993  34.753  51.721  0.00  0.00     0.167 C 
ATOM     21  S   UNL d   1      48.372  35.299  51.738  0.00  0.00    -0.055 SA
ATOM     22  N   UNL d   1      49.176  34.363  51.023  0.00  0.00    -0.136 N 
ENDBRANCH   1  20
TORSDOF 5
ENDMDL
MODEL 6
REMARK VINA RESULT:      -6.8      2.202      4.121
REMARK  5 active torsions:
REMARK  status: ('A' for Active; 'I' for Inactive)
REMARK    1  A    between atoms: C_5  and  N_1 
REMARK    2  A    between atoms: C_2  and  C_7 
REMARK    3  A    between atoms: C_9  and  C_2 
REMARK    4  A    between atoms: C_3  and  C_4 
REMARK    5  A    between atoms: C_7  and  C_8 
ROOT
ATOM      1  C   UNL d   1      53.164  29.622  53.973  0.00  0.00     0.100 C 
ATOM      2  C   UNL d   1      52.446  29.585  53.564  0.00  0.00     0.103 C 
ATOM      3  N   UNL d   1      51.728  29.548  53.155  0.00  0.00    -0.191 NA
ENDROOT
BRANCH   1   4
ATOM      4  C   UNL d   1      53.799  30.041  53.659  0.00  0.00     0.037 C 
BRANCH   4   5
ATOM      5  C   UNL d   1      53.728  30.850  53.515  0.00  0.00     0.101 A 
ATOM      6  O   UNL d   1      53.641  31.441  54.082  0.00  0.00    -0.307 OA
ATOM      7  C   UNL d   1      53.592  32.159  53.685  0.00  0.00     0.102 A 
ATOM      8  C   UNL d   1      53.649  32.016  52.874  0.00  0.00     0.027 A 
ATOM      9  C   UNL d   1      53.732  31.217  52.763  0.00  0.00     0.027 A 
BRANCH   7  10
ATOM     10  C   UNL d   1      53.502  32.897  54.039  0.00  0.00     0.045 A 
ATOM     11  C   UNL d   1      52.845  33.365  53.863  0.00  0.00     0.129 A 
ATOM     12  C   UNL d   1      52.752  34.103  54.214  0.00  0.00     0.024 A 
ATOM     13  C   UNL d   1      53.321  34.379  54.749  0.00  0.00     0.002 A 
ATOM     14  C   UNL d   1      53.979  33.918  54.931  0.00  0.00     0.000 A 
ATOM     15  C   UNL d   1      53.231  35.115  55.103  0.00  0.00     0.000 C 
ATOM     16  C   UNL d   1      54.071  33.173  54.574  0.00  0.00     0.004 A 
BRANCH  11  17
ATOM     17  N   UNL d   1      52.278  33.090  53.329  0.00  0.00    -0.114 N 
ATOM     18  O   UNL d   1      51.588  32.734  53.602  0.00  0.00    -0.532 OA
ATOM     19  O   UNL d   1      52.397  33.167  52.514  0.00  0.00    -0.532 OA
ENDBRANCH  11  17
ENDBRANCH   7  10
ENDBRANCH   4   5
ENDBRANCH   1   4
BRANCH   1  20
ATOM     20  C   UNL d   1      53.243  29.238  54.699  0.00  0.00     0.167 C 
ATOM     21  S   UNL d   1      53.683  28.540  54.750  0.00  0.00    -0.055 SA
ATOM     22  N   UNL d   1      52.886  29.546  55.369  0.00  0.00    -0.136 N 
ENDBRANCH   1  20
TORSDOF 5
ENDMDL
MODEL 7
REMARK VINA RESULT:      -6.1      2.206      2.759
REMARK  5 active torsions:
REMARK  status: ('A' for Active; 'I' for Inactive)
REMARK    1  A    between atoms: C_5  and  N_1 
REMARK    2  A    between atoms: C_2  and  C_7 
REMARK    3  A    between atoms: C_9  and  C_2 
REMARK    4  A    between atoms: C_3  and  C_4 
REMARK    5  A    between atoms: C_7  and  C_8 
ROOT
ATOM      1  C   UNL d   1      50.611  33.905  52.585  0.00  0.00     0.100 C 
ATOM      2  C   UNL d   1      50.549  33.244  53.077  0.00  0.00     0.103 C 
ATOM      3  N   UNL d   1      50.486  32.582  53.571  0.00  0.00    -0.191 NA
ENDROOT
BRANCH   1   4
ATOM      4  C   UNL d   1      51.293  34.029  52.142  0.00  0.00     0.037 C 
BRANCH   4   5
ATOM      5  C   UNL d   1      51.999  34.230  52.520  0.00  0.00     0.101 A 
ATOM      6  O   UNL d   1      52.344  33.834  53.154  0.00  0.00    -0.307 OA
ATOM      7  C   UNL d   1      53.038  34.230  53.346  0.00  0.00     0.102 A 
ATOM      8  C   UNL d   1      53.125  34.872  52.832  0.00  0.00     0.027 A 
ATOM      9  C   UNL d   1      52.492  34.878  52.324  0.00  0.00     0.027 A 
BRANCH   7  10
ATOM     10  C   UNL d   1      53.558  34.022  53.948  0.00  0.00     0.045 A 
ATOM     11  C   UNL d   1      53.632  34.500  54.618  0.00  0.00     0.129 A 
ATOM     12  C   UNL d   1      54.150  34.295  55.222  0.00  0.00     0.024 A 
ATOM     13  C   UNL d   1      54.602  33.604  55.160  0.00  0.00     0.002 A 
ATOM     14  C   UNL d   1      54.535  33.121  54.495  0.00  0.00     0.000 A 
ATOM     15  C   UNL d   1      55.122  33.396  55.761  0.00  0.00     0.000 C 
ATOM     16  C   UNL d   1      54.010  33.331  53.886  0.00  0.00     0.004 A 
BRANCH  11  17
ATOM     17  N   UNL d   1      53.181  35.189  54.680  0.00  0.00    -0.114 N 
ATOM     18  O   UNL d   1      52.464  35.183  55.085  0.00  0.00    -0.532 OA
ATOM     19  O   UNL d   1      53.442  35.894  54.336  0.00  0.00    -0.532 OA
ENDBRANCH  11  17
ENDBRANCH   7  10
ENDBRANCH   4   5
ENDBRANCH   1   4
BRANCH   1  20
ATOM     20  C   UNL d   1      49.987  34.442  52.538  0.00  0.00     0.167 C 
ATOM     21  S   UNL d   1      49.576  34.535  51.826  0.00  0.00    -0.055 SA
ATOM     22  N   UNL d   1      49.773  34.884  53.194  0.00  0.00    -0.136 N 
ENDBRANCH   1  20
TORSDOF 5
ENDMDL
MODEL 8
REMARK VINA RESULT:      -5.5      2.640      4.903
REMARK  5 active torsions:
REMARK  status: ('A' for Active; 'I' for Inactive)
REMARK    1  A    between atoms: C_5  and  N_1 
REMARK    2  A    between atoms: C_2  and  C_7 
REMARK    3  A    between atoms: C_9  and  C_2 
REMARK    4  A    between atoms: C_3  and  C_4 
REMARK    5  A    between atoms: C_7  and  C_8 
ROOT
ATOM      1  C   UNL d   1      52.817  34.259  53.595  0.00  0.00     0.100 C 
ATOM      2  C   UNL d   1      52.825  34.986  53.988  0.00  0.00     0.103 C 
ATOM      3  N   UNL d   1      52.833  35.715  54.381  0.00  0.00    -0.191 NA
ENDROOT
BRANCH   1   4
ATOM      4  C   UNL d   1      52.364  34.160  52.916  0.00  0.00     0.037 C 
BRANCH   4   5
ATOM      5  C   UNL d   1      51.541  34.130  52.970  0.00  0.00     0.101 A 
ATOM      6  O   UNL d   1      51.017  34.733  52.772  0.00  0.00    -0.307 OA
ATOM      7  C   UNL d   1      50.256  34.457  52.915  0.00  0.00     0.102 A 
ATOM      8  C   UNL d   1      50.307  33.684  53.202  0.00  0.00     0.027 A 
ATOM      9  C   UNL d   1      51.090  33.478  53.239  0.00  0.00     0.027 A 
BRANCH   7  10
ATOM     10  C   UNL d   1      49.561  34.880  52.793  0.00  0.00     0.045 A 
ATOM     11  C   UNL d   1      49.165  34.830  52.069  0.00  0.00     0.129 A 
ATOM     12  C   UNL d   1      48.471  35.251  51.943  0.00  0.00     0.024 A 
ATOM     13  C   UNL d   1      48.165  35.731  52.546  0.00  0.00     0.002 A 
ATOM     14  C   UNL d   1      48.554  35.787  53.270  0.00  0.00     0.000 A 
ATOM     15  C   UNL d   1      47.471  36.154  52.424  0.00  0.00     0.000 C 
ATOM     16  C   UNL d   1      49.256  35.360  53.395  0.00  0.00     0.004 A 
BRANCH  11  17
ATOM     17  N   UNL d   1      49.470  34.352  51.469  0.00  0.00    -0.114 N 
ATOM     18  O   UNL d   1      49.238  33.564  51.406  0.00  0.00    -0.532 OA
ATOM     19  O   UNL d   1      50.012  34.657  50.924  0.00  0.00    -0.532 OA
ENDBRANCH  11  17
ENDBRANCH   7  10
ENDBRANCH   4   5
ENDBRANCH   1   4
BRANCH   1  20
ATOM     20  C   UNL d   1      53.266  33.631  53.886  0.00  0.00     0.167 C 
ATOM     21  S   UNL d   1      53.700  33.158  53.364  0.00  0.00    -0.055 SA
ATOM     22  N   UNL d   1      53.282  33.474  54.691  0.00  0.00    -0.136 N 
ENDBRANCH   1  20
TORSDOF 5
ENDMDL
