MODEL 1
REMARK VINA RESULT:      -5.2      0.000      0.000
REMARK  9 active torsions:
REMARK  status: ('A' for Active; 'I' for Inactive)
REMARK    1  A    between atoms: C_14  and  N_1 
REMARK    2  A    between atoms: C_8  and  C_2 
REMARK    3  A    between atoms: C_3  and  N_11 
REMARK    4  A    between atoms: S_16  and  C_4 
REMARK    5  A    between atoms: C_10  and  C_8 
REMARK       I    between atoms: N_11  and  C_17 
REMARK    6  A    between atoms: C_23  and  C_14 
REMARK    7  A    between atoms: C_22  and  S_16 
REMARK    8  A    between atoms: C_17  and  C_22 
REMARK    9  A    between atoms: C_25  and  C_23 
ROOT
ATOM      1  N   UNL d   1     -40.808  14.368  20.224  0.00  0.00    -0.268 N 
ATOM      2  C   UNL d   1     -40.556  14.374  19.437  0.00  0.00     0.172 A 
ATOM      3  C   UNL d   1     -41.496  13.915  20.271  0.00  0.00     0.201 A 
ATOM      4  N   UNL d   1     -41.086  13.926  18.998  0.00  0.00    -0.128 NA
ATOM      5  N   UNL d   1     -41.669  13.640  19.506  0.00  0.00    -0.121 NA
ENDROOT
BRANCH   3   6
ATOM      6  S   UNL d   1     -41.933  13.762  20.947  0.00  0.00    -0.043 SA
BRANCH   6   7
ATOM      7  C   UNL d   1     -42.498  13.161  20.949  0.00  0.00     0.101 C 
BRANCH   7   8
ATOM      8  C   UNL d   1     -43.185  13.242  21.403  0.00  0.00     0.288 C 
ATOM      9  N   UNL d   1     -43.744  12.642  21.404  0.00  0.00    -0.182 NA
ATOM     10  O   UNL d   1     -43.305  13.924  21.851  0.00  0.00    -0.265 OA
BRANCH   9  11
ATOM     11  C   UNL d   1     -44.426  12.717  21.852  0.00  0.00     0.197 A 
ATOM     12  N   UNL d   1     -44.657  12.224  22.475  0.00  0.00    -0.221 NA
ATOM     13  C   UNL d   1     -45.374  12.500  22.766  0.00  0.00     0.090 A 
ATOM     14  C   UNL d   1     -45.858  12.237  23.371  0.00  0.00     0.020 A 
ATOM     15  C   UNL d   1     -45.594  13.166  22.328  0.00  0.00     0.050 A 
ATOM     16  C   UNL d   1     -46.562  12.631  23.546  0.00  0.00     0.002 A 
ATOM     17  C   UNL d   1     -46.776  13.297  23.103  0.00  0.00     0.001 A 
ATOM     18  C   UNL d   1     -46.298  13.559  22.503  0.00  0.00     0.008 A 
ATOM     19  S   UNL d   1     -45.012  13.310  21.757  0.00  0.00    -0.047 SA
ENDBRANCH   9  11
ENDBRANCH   7   8
ENDBRANCH   6   7
ENDBRANCH   3   6
BRANCH   1  20
ATOM     20  C   UNL d   1     -40.435  14.749  20.854  0.00  0.00     0.084 C 
BRANCH  20  21
ATOM     21  C   UNL d   1     -39.801  14.377  21.247  0.00  0.00     0.019 C 
BRANCH  21  22
ATOM     22  C   UNL d   1     -39.440  14.746  21.896  0.00  0.00     0.002 A 
ATOM     23  C   UNL d   1     -39.491  15.559  21.977  0.00  0.00     0.000 A 
ATOM     24  C   UNL d   1     -39.131  15.922  22.624  0.00  0.00     0.000 A 
ATOM     25  C   UNL d   1     -38.723  15.464  23.182  0.00  0.00     0.000 A 
ATOM     26  C   UNL d   1     -38.676  14.642  23.093  0.00  0.00     0.000 A 
ATOM     27  C   UNL d   1     -39.040  14.290  22.442  0.00  0.00     0.000 A 
ENDBRANCH  21  22
ENDBRANCH  20  21
ENDBRANCH   1  20
BRANCH   2  28
ATOM     28  C   UNL d   1     -39.888  14.762  19.143  0.00  0.00     0.057 C 
BRANCH  28  29
ATOM     29  C   UNL d   1     -39.856  14.991  18.354  0.00  0.00     0.067 A 
ATOM     30  N   UNL d   1     -39.205  14.924  17.849  0.00  0.00    -0.303 N 
ATOM     31  C   UNL d   1     -39.422  15.223  17.110  0.00  0.00     0.080 A 
ATOM     32  C   UNL d   1     -38.471  14.613  18.054  0.00  0.00     0.100 C 
ATOM     33  C   UNL d   1     -40.203  15.475  17.153  0.00  0.00     0.021 A 
ATOM     34  C   UNL d   1     -40.475  15.334  17.918  0.00  0.00     0.019 A 
ENDBRANCH  28  29
ENDBRANCH   2  28
TORSDOF 9
ENDMDL
