MODEL 1
REMARK VINA RESULT:      -9.3      0.000      0.000
REMARK  6 active torsions:
REMARK  status: ('A' for Active; 'I' for Inactive)
REMARK    1  A    between atoms: N_2  and  S_1 
REMARK    2  A    between atoms: C_3  and  S_1 
REMARK    3  A    between atoms: C_8  and  N_2 
REMARK    4  A    between atoms: C_6  and  O_7 
REMARK    5  A    between atoms: O_7  and  C_13 
REMARK    6  A    between atoms: O_16  and  C_10 
ROOT
ATOM      1  C   UNL d   1      51.944  33.375  52.950  0.00  0.00     0.105 A 
ATOM      2  C   UNL d   1      51.247  33.082  53.262  0.00  0.00     0.015 A 
ATOM      3  C   UNL d   1      51.962  34.130  52.609  0.00  0.00     0.015 A 
ATOM      4  C   UNL d   1      50.585  34.291  52.897  0.00  0.00     0.100 A 
ATOM      5  C   UNL d   1      51.282  34.583  52.585  0.00  0.00     0.025 A 
ATOM      6  C   UNL d   1      50.567  33.537  53.237  0.00  0.00     0.025 A 
ENDROOT
BRANCH   1   7
ATOM      7  S   UNL d   1      52.628  32.910  52.979  0.00  0.00     0.285 S 
ATOM      8  O   UNL d   1      52.604  32.124  52.723  0.00  0.00    -0.198 OA
ATOM      9  O   UNL d   1      53.331  33.232  53.262  0.00  0.00    -0.198 OA
BRANCH   7  10
ATOM     10  N   UNL d   1      53.397  32.619  53.085  0.00  0.00    -0.157 NA
BRANCH  10  11
ATOM     11  C   UNL d   1      53.788  32.746  53.810  0.00  0.00     0.113 A 
ATOM     12  C   UNL d   1      53.607  32.274  54.463  0.00  0.00     0.119 A 
ATOM     13  N   UNL d   1      53.998  32.400  55.188  0.00  0.00    -0.241 NA
ATOM     14  C   UNL d   1      54.569  33.002  55.248  0.00  0.00     0.099 A 
ATOM     15  C   UNL d   1      54.748  33.475  54.588  0.00  0.00     0.022 A 
ATOM     16  C   UNL d   1      54.354  33.342  53.872  0.00  0.00     0.023 A 
ENDBRANCH  10  11
ENDBRANCH   7  10
ENDBRANCH   1   7
BRANCH   4  17
ATOM     17  O   UNL d   1      49.893  34.750  52.872  0.00  0.00    -0.305 OA
BRANCH  17  18
ATOM     18  C   UNL d   1      49.407  34.743  52.201  0.00  0.00     0.122 A 
ATOM     19  C   UNL d   1      48.693  35.150  52.210  0.00  0.00     0.117 A 
ATOM     20  C   UNL d   1      48.211  35.141  51.540  0.00  0.00     0.026 A 
ATOM     21  C   UNL d   1      48.444  34.730  50.870  0.00  0.00     0.002 A 
ATOM     22  C   UNL d   1      49.162  34.322  50.864  0.00  0.00     0.002 A 
ATOM     23  C   UNL d   1      49.644  34.330  51.533  0.00  0.00     0.027 A 
BRANCH  19  24
ATOM     24  O   UNL d   1      48.467  35.558  52.883  0.00  0.00    -0.326 OA
ATOM     25  C   UNL d   1      47.807  36.033  52.876  0.00  0.00     0.181 C 
ENDBRANCH  19  24
ENDBRANCH  17  18
ENDBRANCH   4  17
TORSDOF 6
ENDMDL
MODEL 2
REMARK VINA RESULT:      -7.5      1.937      5.182
REMARK  6 active torsions:
REMARK  status: ('A' for Active; 'I' for Inactive)
REMARK    1  A    between atoms: N_2  and  S_1 
REMARK    2  A    between atoms: C_3  and  S_1 
REMARK    3  A    between atoms: C_8  and  N_2 
REMARK    4  A    between atoms: C_6  and  O_7 
REMARK    5  A    between atoms: O_7  and  C_13 
REMARK    6  A    between atoms: O_16  and  C_10 
ROOT
ATOM      1  C   UNL d   1      50.525  34.279  52.606  0.00  0.00     0.105 A 
ATOM      2  C   UNL d   1      51.154  34.459  52.115  0.00  0.00     0.015 A 
ATOM      3  C   UNL d   1      50.664  33.978  53.365  0.00  0.00     0.015 A 
ATOM      4  C   UNL d   1      52.060  34.040  53.134  0.00  0.00     0.100 A 
ATOM      5  C   UNL d   1      51.431  33.861  53.624  0.00  0.00     0.025 A 
ATOM      6  C   UNL d   1      51.921  34.341  52.375  0.00  0.00     0.025 A 
ENDROOT
BRANCH   1   7
ATOM      7  S   UNL d   1      49.752  34.401  52.336  0.00  0.00     0.285 S 
ATOM      8  O   UNL d   1      49.603  34.460  51.525  0.00  0.00    -0.198 OA
ATOM      9  O   UNL d   1      49.134  34.462  52.876  0.00  0.00    -0.198 OA
BRANCH   7  10
ATOM     10  N   UNL d   1      48.935  34.519  52.270  0.00  0.00    -0.157 NA
BRANCH  10  11
ATOM     11  C   UNL d   1      48.606  35.252  52.492  0.00  0.00     0.113 A 
ATOM     12  C   UNL d   1      48.638  35.495  53.280  0.00  0.00     0.119 A 
ATOM     13  N   UNL d   1      48.309  36.227  53.504  0.00  0.00    -0.241 NA
ATOM     14  C   UNL d   1      47.950  36.709  52.929  0.00  0.00     0.099 A 
ATOM     15  C   UNL d   1      47.919  36.460  52.136  0.00  0.00     0.022 A 
ATOM     16  C   UNL d   1      48.249  35.731  51.924  0.00  0.00     0.023 A 
ENDBRANCH  10  11
ENDBRANCH   7  10
ENDBRANCH   1   7
BRANCH   4  17
ATOM     17  O   UNL d   1      52.839  33.922  53.396  0.00  0.00    -0.305 OA
BRANCH  17  18
ATOM     18  C   UNL d   1      53.142  33.155  53.478  0.00  0.00     0.122 A 
ATOM     19  C   UNL d   1      53.732  33.006  54.031  0.00  0.00     0.117 A 
ATOM     20  C   UNL d   1      54.032  32.242  54.112  0.00  0.00     0.026 A 
ATOM     21  C   UNL d   1      53.744  31.635  53.642  0.00  0.00     0.002 A 
ATOM     22  C   UNL d   1      53.151  31.787  53.087  0.00  0.00     0.002 A 
ATOM     23  C   UNL d   1      52.851  32.551  53.007  0.00  0.00     0.027 A 
BRANCH  19  24
ATOM     24  O   UNL d   1      54.015  33.618  54.497  0.00  0.00    -0.326 OA
ATOM     25  C   UNL d   1      54.654  33.503  54.987  0.00  0.00     0.181 C 
ENDBRANCH  19  24
ENDBRANCH  17  18
ENDBRANCH   4  17
TORSDOF 6
ENDMDL
MODEL 3
REMARK VINA RESULT:      -6.9      2.653      5.749
REMARK  6 active torsions:
REMARK  status: ('A' for Active; 'I' for Inactive)
REMARK    1  A    between atoms: N_2  and  S_1 
REMARK    2  A    between atoms: C_3  and  S_1 
REMARK    3  A    between atoms: C_8  and  N_2 
REMARK    4  A    between atoms: C_6  and  O_7 
REMARK    5  A    between atoms: O_7  and  C_13 
REMARK    6  A    between atoms: O_16  and  C_10 
ROOT
ATOM      1  C   UNL d   1      48.914  35.303  52.504  0.00  0.00     0.105 A 
ATOM      2  C   UNL d   1      49.165  35.174  53.272  0.00  0.00     0.015 A 
ATOM      3  C   UNL d   1      49.256  34.881  51.879  0.00  0.00     0.015 A 
ATOM      4  C   UNL d   1      50.097  34.205  52.796  0.00  0.00     0.100 A 
ATOM      5  C   UNL d   1      49.845  34.334  52.029  0.00  0.00     0.025 A 
ATOM      6  C   UNL d   1      49.755  34.627  53.421  0.00  0.00     0.025 A 
ENDROOT
BRANCH   1   7
ATOM      7  S   UNL d   1      48.317  35.858  52.361  0.00  0.00     0.285 S 
ATOM      8  O   UNL d   1      48.216  36.498  52.874  0.00  0.00    -0.198 OA
ATOM      9  O   UNL d   1      47.824  35.771  51.706  0.00  0.00    -0.198 OA
BRANCH   7  10
ATOM     10  N   UNL d   1      47.681  36.291  52.053  0.00  0.00    -0.157 NA
BRANCH  10  11
ATOM     11  C   UNL d   1      46.909  35.980  52.102  0.00  0.00     0.113 A 
ATOM     12  C   UNL d   1      46.600  35.545  51.472  0.00  0.00     0.119 A 
ATOM     13  N   UNL d   1      45.829  35.234  51.521  0.00  0.00    -0.241 NA
ATOM     14  C   UNL d   1      45.374  35.365  52.206  0.00  0.00     0.099 A 
ATOM     15  C   UNL d   1      45.690  35.804  52.838  0.00  0.00     0.022 A 
ATOM     16  C   UNL d   1      46.458  36.109  52.780  0.00  0.00     0.023 A 
ENDBRANCH  10  11
ENDBRANCH   7  10
ENDBRANCH   1   7
BRANCH   4  17
ATOM     17  O   UNL d   1      50.695  33.650  52.950  0.00  0.00    -0.305 OA
BRANCH  17  18
ATOM     18  C   UNL d   1      51.476  33.898  53.074  0.00  0.00     0.122 A 
ATOM     19  C   UNL d   1      52.083  33.344  53.093  0.00  0.00     0.117 A 
ATOM     20  C   UNL d   1      52.860  33.593  53.216  0.00  0.00     0.026 A 
ATOM     21  C   UNL d   1      53.024  34.389  53.319  0.00  0.00     0.002 A 
ATOM     22  C   UNL d   1      52.414  34.945  53.300  0.00  0.00     0.002 A 
ATOM     23  C   UNL d   1      51.637  34.696  53.176  0.00  0.00     0.027 A 
BRANCH  19  24
ATOM     24  O   UNL d   1      51.910  32.550  52.989  0.00  0.00    -0.326 OA
ATOM     25  C   UNL d   1      52.502  31.993  52.999  0.00  0.00     0.181 C 
ENDBRANCH  19  24
ENDBRANCH  17  18
ENDBRANCH   4  17
TORSDOF 6
ENDMDL
