MODEL 1
REMARK VINA RESULT:      -3.2      0.000      0.000
REMARK  2 active torsions:
REMARK  status: ('A' for Active; 'I' for Inactive)
REMARK    1  A    between atoms: C_6  and  C_1 
REMARK    2  A    between atoms: C_10  and  C_6 
ROOT
ATOM      1  C   UNL d   1      32.451  17.474 -23.834  0.00  0.00     0.139 A 
ATOM      2  C   UNL d   1      31.506  16.533 -23.948  0.00  0.00     0.064 A 
ATOM      3  C   UNL d   1      32.299  16.666 -23.759  0.00  0.00     0.220 A 
ATOM      4  C   UNL d   1      31.166  17.258 -24.139  0.00  0.00     0.106 A 
ATOM      5  O   UNL d   1      31.751  17.836 -24.068  0.00  0.00    -0.304 OA
ATOM      6  C   UNL d   1      30.376  17.309 -24.353  0.00  0.00     0.067 A 
ATOM      7  C   UNL d   1      31.053  15.847 -23.969  0.00  0.00     0.009 A 
ATOM      8  O   UNL d   1      32.854  16.093 -23.534  0.00  0.00    -0.284 OA
ATOM      9  C   UNL d   1      29.921  16.627 -24.375  0.00  0.00     0.198 A 
ATOM     10  C   UNL d   1      30.256  15.894 -24.184  0.00  0.00     0.042 A 
ATOM     11  O   UNL d   1      29.115  16.673 -24.592  0.00  0.00    -0.286 OA
ENDROOT
BRANCH   1  12
ATOM     12  C   UNL d   1      33.172  17.848 -23.698  0.00  0.00     0.028 C 
BRANCH  12  13
ATOM     13  C   UNL d   1      33.190  18.574 -23.291  0.00  0.00     0.002 A 
ATOM     14  C   UNL d   1      33.174  19.280 -23.715  0.00  0.00     0.001 A 
ATOM     15  C   UNL d   1      33.191  20.000 -23.317  0.00  0.00     0.007 A 
ATOM     16  C   UNL d   1      33.224  20.018 -22.488  0.00  0.00     0.035 A 
ATOM     17  C   UNL d   1      33.240  19.308 -22.062  0.00  0.00     0.007 A 
ATOM     18 BR   UNL d   1      33.241  20.730 -22.081  0.00  0.00    -0.049 Br
ATOM     19  C   UNL d   1      33.222  18.584 -22.467  0.00  0.00     0.001 A 
ENDBRANCH  12  13
ENDBRANCH   1  12
TORSDOF 2
ENDMDL
MODEL 2
REMARK VINA RESULT:      -3.1      2.081      4.132
REMARK  2 active torsions:
REMARK  status: ('A' for Active; 'I' for Inactive)
REMARK    1  A    between atoms: C_6  and  C_1 
REMARK    2  A    between atoms: C_10  and  C_6 
ROOT
ATOM      1  C   UNL d   1      31.440  16.126 -23.869  0.00  0.00     0.139 A 
ATOM      2  C   UNL d   1      32.443  16.933 -23.506  0.00  0.00     0.064 A 
ATOM      3  C   UNL d   1      32.175  16.152 -23.495  0.00  0.00     0.220 A 
ATOM      4  C   UNL d   1      31.874  17.392 -23.887  0.00  0.00     0.106 A 
ATOM      5  O   UNL d   1      31.257  16.891 -24.108  0.00  0.00    -0.304 OA
ATOM      6  C   UNL d   1      31.980  18.199 -23.986  0.00  0.00     0.067 A 
ATOM      7  C   UNL d   1      33.130  17.284 -23.220  0.00  0.00     0.009 A 
ATOM      8  O   UNL d   1      32.571  15.502 -23.168  0.00  0.00    -0.284 OA
ATOM      9  C   UNL d   1      32.664  18.552 -23.701  0.00  0.00     0.198 A 
ATOM     10  C   UNL d   1      33.241  18.098 -23.318  0.00  0.00     0.042 A 
ATOM     11  O   UNL d   1      32.777  19.374 -23.800  0.00  0.00    -0.286 OA
ENDROOT
BRANCH   1  12
ATOM     12  C   UNL d   1      30.975  15.455 -23.980  0.00  0.00     0.028 C 
BRANCH  12  13
ATOM     13  C   UNL d   1      30.149  15.506 -23.883  0.00  0.00     0.002 A 
ATOM     14  C   UNL d   1      29.823  15.453 -23.128  0.00  0.00     0.001 A 
ATOM     15  C   UNL d   1      29.008  15.502 -23.027  0.00  0.00     0.007 A 
ATOM     16  C   UNL d   1      28.512  15.605 -23.683  0.00  0.00     0.035 A 
ATOM     17  C   UNL d   1      28.839  15.658 -24.442  0.00  0.00     0.007 A 
ATOM     18 BR   UNL d   1      27.698  15.655 -23.594  0.00  0.00    -0.049 Br
ATOM     19  C   UNL d   1      29.661  15.608 -24.540  0.00  0.00     0.001 A 
ENDBRANCH  12  13
ENDBRANCH   1  12
TORSDOF 2
ENDMDL
MODEL 3
REMARK VINA RESULT:      -3.1      2.112      4.283
REMARK  2 active torsions:
REMARK  status: ('A' for Active; 'I' for Inactive)
REMARK    1  A    between atoms: C_6  and  C_1 
REMARK    2  A    between atoms: C_10  and  C_6 
ROOT
ATOM      1  C   UNL d   1      33.240  19.242 -23.249  0.00  0.00     0.139 A 
ATOM      2  C   UNL d   1      33.239  20.411 -22.598  0.00  0.00     0.064 A 
ATOM      3  C   UNL d   1      33.239  20.062 -23.346  0.00  0.00     0.220 A 
ATOM      4  C   UNL d   1      33.240  19.808 -22.036  0.00  0.00     0.106 A 
ATOM      5  O   UNL d   1      33.240  19.090 -22.441  0.00  0.00    -0.304 OA
ATOM      6  C   UNL d   1      33.239  19.980 -21.234  0.00  0.00     0.067 A 
ATOM      7  C   UNL d   1      33.238  21.198 -22.358  0.00  0.00     0.009 A 
ATOM      8  O   UNL d   1      33.238  20.458 -24.074  0.00  0.00    -0.284 OA
ATOM      9  C   UNL d   1      33.238  20.764 -20.991  0.00  0.00     0.198 A 
ATOM     10  C   UNL d   1      33.237  21.375 -21.550  0.00  0.00     0.042 A 
ATOM     11  O   UNL d   1      33.238  20.944 -20.176  0.00  0.00    -0.286 OA
ENDROOT
BRANCH   1  12
ATOM     12  C   UNL d   1      33.241  18.681 -23.852  0.00  0.00     0.028 C 
BRANCH  12  13
ATOM     13  C   UNL d   1      32.755  18.007 -23.788  0.00  0.00     0.002 A 
ATOM     14  C   UNL d   1      31.986  18.030 -24.084  0.00  0.00     0.001 A 
ATOM     15  C   UNL d   1      31.502  17.367 -24.024  0.00  0.00     0.007 A 
ATOM     16  C   UNL d   1      31.785  16.675 -23.665  0.00  0.00     0.035 A 
ATOM     17  C   UNL d   1      32.558  16.652 -23.368  0.00  0.00     0.007 A 
ATOM     18 BR   UNL d   1      31.312  16.009 -23.600  0.00  0.00    -0.049 Br
ATOM     19  C   UNL d   1      33.043  17.322 -23.431  0.00  0.00     0.001 A 
ENDBRANCH  12  13
ENDBRANCH   1  12
TORSDOF 2
ENDMDL
MODEL 4
REMARK VINA RESULT:      -3.0      1.895      4.007
REMARK  2 active torsions:
REMARK  status: ('A' for Active; 'I' for Inactive)
REMARK    1  A    between atoms: C_6  and  C_1 
REMARK    2  A    between atoms: C_10  and  C_6 
ROOT
ATOM      1  C   UNL d   1      32.641  17.826 -23.862  0.00  0.00     0.139 A 
ATOM      2  C   UNL d   1      32.965  19.101 -23.619  0.00  0.00     0.064 A 
ATOM      3  C   UNL d   1      32.859  18.539 -24.215  0.00  0.00     0.220 A 
ATOM      4  C   UNL d   1      32.813  18.736 -22.896  0.00  0.00     0.106 A 
ATOM      5  O   UNL d   1      32.613  17.950 -23.050  0.00  0.00    -0.304 OA
ATOM      6  C   UNL d   1      32.872  19.153 -22.193  0.00  0.00     0.067 A 
ATOM      7  C   UNL d   1      33.180  19.895 -23.642  0.00  0.00     0.009 A 
ATOM      8  O   UNL d   1      32.953  18.663 -25.029  0.00  0.00    -0.284 OA
ATOM      9  C   UNL d   1      33.086  19.945 -22.212  0.00  0.00     0.198 A 
ATOM     10  C   UNL d   1      33.241  20.319 -22.935  0.00  0.00     0.042 A 
ATOM     11  O   UNL d   1      33.148  20.375 -21.498  0.00  0.00    -0.286 OA
ENDROOT
BRANCH   1  12
ATOM     12  C   UNL d   1      32.480  17.119 -24.253  0.00  0.00     0.028 C 
BRANCH  12  13
ATOM     13  C   UNL d   1      31.782  16.699 -24.077  0.00  0.00     0.002 A 
ATOM     14  C   UNL d   1      31.800  16.097 -23.515  0.00  0.00     0.001 A 
ATOM     15  C   UNL d   1      31.114  15.680 -23.336  0.00  0.00     0.007 A 
ATOM     16  C   UNL d   1      30.402  15.864 -23.721  0.00  0.00     0.035 A 
ATOM     17  C   UNL d   1      30.385  16.469 -24.286  0.00  0.00     0.007 A 
ATOM     18 BR   UNL d   1      29.712  15.454 -23.552  0.00  0.00    -0.049 Br
ATOM     19  C   UNL d   1      31.078  16.887 -24.463  0.00  0.00     0.001 A 
ENDBRANCH  12  13
ENDBRANCH   1  12
TORSDOF 2
ENDMDL
MODEL 5
REMARK VINA RESULT:      -2.4      1.464      2.176
REMARK  2 active torsions:
REMARK  status: ('A' for Active; 'I' for Inactive)
REMARK    1  A    between atoms: C_6  and  C_1 
REMARK    2  A    between atoms: C_10  and  C_6 
ROOT
ATOM      1  C   UNL d   1      31.114  16.169 -23.933  0.00  0.00     0.139 A 
ATOM      2  C   UNL d   1      30.038  15.807 -23.225  0.00  0.00     0.064 A 
ATOM      3  C   UNL d   1      30.864  15.790 -23.244  0.00  0.00     0.220 A 
ATOM      4  C   UNL d   1      29.777  16.197 -23.902  0.00  0.00     0.106 A 
ATOM      5  O   UNL d   1      30.443  16.419 -24.336  0.00  0.00    -0.304 OA
ATOM      6  C   UNL d   1      28.976  16.303 -24.044  0.00  0.00     0.067 A 
ATOM      7  C   UNL d   1      29.494  15.518 -22.680  0.00  0.00     0.009 A 
ATOM      8  O   UNL d   1      31.362  15.453 -22.674  0.00  0.00    -0.284 OA
ATOM      9  C   UNL d   1      28.431  16.016 -23.502  0.00  0.00     0.198 A 
ATOM     10  C   UNL d   1      28.686  15.623 -22.819  0.00  0.00     0.042 A 
ATOM     11  O   UNL d   1      27.614  16.122 -23.642  0.00  0.00    -0.286 OA
ENDROOT
BRANCH   1  12
ATOM     12  C   UNL d   1      31.895  16.278 -24.172  0.00  0.00     0.028 C 
BRANCH  12  13
ATOM     13  C   UNL d   1      32.186  17.049 -24.293  0.00  0.00     0.002 A 
ATOM     14  C   UNL d   1      32.753  17.356 -23.780  0.00  0.00     0.001 A 
ATOM     15  C   UNL d   1      33.043  18.117 -23.895  0.00  0.00     0.007 A 
ATOM     16  C   UNL d   1      32.766  18.578 -24.526  0.00  0.00     0.035 A 
ATOM     17  C   UNL d   1      32.196  18.270 -25.041  0.00  0.00     0.007 A 
ATOM     18 BR   UNL d   1      33.048  19.339 -24.650  0.00  0.00    -0.049 Br
ATOM     19  C   UNL d   1      31.906  17.502 -24.923  0.00  0.00     0.001 A 
ENDBRANCH  12  13
ENDBRANCH   1  12
TORSDOF 2
ENDMDL
MODEL 6
REMARK VINA RESULT:      -2.1      1.083      1.786
REMARK  2 active torsions:
REMARK  status: ('A' for Active; 'I' for Inactive)
REMARK    1  A    between atoms: C_6  and  C_1 
REMARK    2  A    between atoms: C_10  and  C_6 
ROOT
ATOM      1  C   UNL d   1      32.776  18.693 -23.603  0.00  0.00     0.139 A 
ATOM      2  C   UNL d   1      31.985  17.817 -24.231  0.00  0.00     0.064 A 
ATOM      3  C   UNL d   1      32.382  18.536 -24.310  0.00  0.00     0.220 A 
ATOM      4  C   UNL d   1      32.133  17.527 -23.474  0.00  0.00     0.106 A 
ATOM      5  O   UNL d   1      32.621  18.070 -23.090  0.00  0.00    -0.304 OA
ATOM      6  C   UNL d   1      31.812  16.815 -23.225  0.00  0.00     0.067 A 
ATOM      7  C   UNL d   1      31.509  17.390 -24.749  0.00  0.00     0.009 A 
ATOM      8  O   UNL d   1      32.388  19.022 -24.981  0.00  0.00    -0.284 OA
ATOM      9  C   UNL d   1      31.337  16.387 -23.739  0.00  0.00     0.198 A 
ATOM     10  C   UNL d   1      31.183  16.671 -24.502  0.00  0.00     0.042 A 
ATOM     11  O   UNL d   1      31.007  15.660 -23.491  0.00  0.00    -0.286 OA
ENDROOT
BRANCH   1  12
ATOM     12  C   UNL d   1      33.241  19.354 -23.441  0.00  0.00     0.028 C 
BRANCH  12  13
ATOM     13  C   UNL d   1      33.130  19.772 -22.729  0.00  0.00     0.002 A 
ATOM     14  C   UNL d   1      33.235  19.385 -22.009  0.00  0.00     0.001 A 
ATOM     15  C   UNL d   1      33.127  19.792 -21.303  0.00  0.00     0.007 A 
ATOM     16  C   UNL d   1      32.912  20.593 -21.312  0.00  0.00     0.035 A 
ATOM     17  C   UNL d   1      32.806  20.982 -22.036  0.00  0.00     0.007 A 
ATOM     18 BR   UNL d   1      32.801  21.010 -20.614  0.00  0.00    -0.049 Br
ATOM     19  C   UNL d   1      32.916  20.568 -22.746  0.00  0.00     0.001 A 
ENDBRANCH  12  13
ENDBRANCH   1  12
TORSDOF 2
ENDMDL
