MODEL 1
REMARK VINA RESULT:      59.9      0.000      0.000
REMARK  4 active torsions:
REMARK  status: ('A' for Active; 'I' for Inactive)
REMARK    1  A    between atoms: N_6  and  C_1 
REMARK       I    between atoms: C_7  and  N_8 
REMARK    2  A    between atoms: C_9  and  C_7 
REMARK    3  A    between atoms: O_20  and  C_10 
REMARK    4  A    between atoms: O_19  and  C_11 
ROOT
ATOM      1  C   UNL d   1     -54.744-101.252 -40.371  0.00  0.00     0.180 A 
ATOM      2  N   UNL d   1     -54.739-101.835 -39.785  0.00  0.00    -0.220 NA
ATOM      3  S   UNL d   1     -54.738-100.514 -39.987  0.00  0.00    -0.046 SA
ATOM      4  C   UNL d   1     -54.730-101.465 -39.052  0.00  0.00     0.114 A 
ATOM      5  C   UNL d   1     -54.729-100.651 -39.182  0.00  0.00     0.074 A 
ATOM      6  C   UNL d   1     -54.723-101.757 -38.293  0.00  0.00     0.112 A 
ATOM      7  C   UNL d   1     -54.721-100.139 -38.553  0.00  0.00     0.102 A 
ATOM      8  C   UNL d   1     -54.713-100.432 -37.782  0.00  0.00     0.027 A 
ATOM      9  C   UNL d   1     -54.714-101.247 -37.652  0.00  0.00     0.028 A 
ENDROOT
BRANCH   1  10
ATOM     10  N   UNL d   1     -54.753-101.388 -41.180  0.00  0.00    -0.281 N 
ATOM     11  C   UNL d   1     -54.754-102.166 -41.463  0.00  0.00     0.101 A 
ATOM     12  C   UNL d   1     -54.763-102.319 -42.275  0.00  0.00     0.102 A 
ATOM     13  N   UNL d   1     -54.772-101.679 -42.801  0.00  0.00    -0.272 N 
ATOM     14  C   UNL d   1     -54.781-101.830 -43.620  0.00  0.00     0.240 C 
ATOM     15  C   UNL d   1     -54.772-100.902 -42.518  0.00  0.00     0.102 A 
ATOM     16  O   UNL d   1     -54.782-102.598 -43.900  0.00  0.00    -0.272 OA
ATOM     17  C   UNL d   1     -54.762-100.765 -41.709  0.00  0.00     0.101 A 
BRANCH  14  18
ATOM     18  C   UNL d   1     -54.790-101.190 -44.143  0.00  0.00     0.072 C 
ATOM     19  C   UNL d   1     -54.837-101.344 -44.947  0.00  0.00     0.009 C 
ATOM     20  C   UNL d   1     -54.753-100.400 -43.883  0.00  0.00     0.009 C 
ATOM     21  C   UNL d   1     -54.797-100.525 -44.636  0.00  0.00     0.009 C 
ENDBRANCH  14  18
ENDBRANCH   1  10
BRANCH   6  22
ATOM     22  O   UNL d   1     -54.724-102.568 -38.165  0.00  0.00    -0.327 OA
ATOM     23  C   UNL d   1     -54.759-102.857 -37.400  0.00  0.00     0.181 C 
ENDBRANCH   6  22
BRANCH   7  24
ATOM     24  O   UNL d   1     -54.720 -99.328 -38.681  0.00  0.00    -0.328 OA
ATOM     25  C   UNL d   1     -54.744 -98.806 -38.039  0.00  0.00     0.181 C 
ENDBRANCH   7  24
TORSDOF 4
ENDMDL
