MODEL 1
REMARK VINA RESULT:      74.7      0.000      0.000
REMARK  3 active torsions:
REMARK  status: ('A' for Active; 'I' for Inactive)
REMARK    1  A    between atoms: N_10  and  C_3 
REMARK    2  A    between atoms: C_13  and  C_5 
REMARK    3  A    between atoms: C_12  and  C_9 
ROOT
ATOM      1  N   UNL d   1     -50.854  25.871  33.743  0.00  0.00    -0.196 N 
ATOM      2  C   UNL d   1     -51.152  25.115  33.628  0.00  0.00     0.167 A 
ATOM      3  C   UNL d   1     -50.040  25.996  33.778  0.00  0.00     0.152 A 
ATOM      4  N   UNL d   1     -51.488  26.388  33.805  0.00  0.00    -0.163 NA
ATOM      5  C   UNL d   1     -51.972  25.162  33.618  0.00  0.00     0.055 A 
ATOM      6  N   UNL d   1     -50.641  24.473  33.545  0.00  0.00    -0.231 NA
ATOM      7  C   UNL d   1     -49.527  25.354  33.696  0.00  0.00     0.052 A 
ATOM      8  C   UNL d   1     -52.183  25.945  33.727  0.00  0.00     0.104 A 
ATOM      9  C   UNL d   1     -49.825  24.599  33.580  0.00  0.00     0.063 A 
ATOM     10  C   UNL d   1     -52.953  26.230  33.752  0.00  0.00     0.023 C 
ENDROOT
BRANCH   3  11
ATOM     11  N   UNL d   1     -49.742  26.752  33.894  0.00  0.00    -0.286 N 
ATOM     12  C   UNL d   1     -49.829  27.328  33.309  0.00  0.00     0.101 A 
ATOM     13  C   UNL d   1     -49.530  28.088  33.425  0.00  0.00     0.100 A 
ATOM     14  N   UNL d   1     -49.140  28.275  34.126  0.00  0.00    -0.299 N 
ATOM     15  C   UNL d   1     -49.051  27.703  34.711  0.00  0.00     0.100 A 
ATOM     16  C   UNL d   1     -48.841  29.034  34.242  0.00  0.00     0.100 C 
ATOM     17  C   UNL d   1     -49.351  26.943  34.595  0.00  0.00     0.101 A 
ENDBRANCH   3  11
BRANCH   9  18
ATOM     18  C   UNL d   1     -49.291  23.952  33.498  0.00  0.00     0.036 C 
ATOM     19  C   UNL d   1     -48.763  23.313  33.416  0.00  0.00     0.006 C 
ATOM     20  C   UNL d   1     -49.931  23.444  33.334  0.00  0.00     0.006 C 
ATOM     21  C   UNL d   1     -48.652  24.464  33.662  0.00  0.00     0.006 C 
ENDBRANCH   9  18
BRANCH   5  22
ATOM     22  C   UNL d   1     -52.560  24.591  33.523  0.00  0.00     0.004 A 
ATOM     23  C   UNL d   1     -52.372  23.784  33.549  0.00  0.00     0.000 A 
ATOM     24  C   UNL d   1     -52.961  23.217  33.454  0.00  0.00     0.000 A 
ATOM     25  C   UNL d   1     -53.748  23.446  33.332  0.00  0.00     0.000 A 
ATOM     26  C   UNL d   1     -53.937  24.258  33.306  0.00  0.00     0.000 A 
ATOM     27  C   UNL d   1     -53.343  24.822  33.402  0.00  0.00     0.000 A 
ENDBRANCH   5  22
TORSDOF 3
ENDMDL
