MODEL 1
REMARK VINA RESULT:     143.2      0.000      0.000
REMARK  6 active torsions:
REMARK  status: ('A' for Active; 'I' for Inactive)
REMARK    1  A    between atoms: C_10  and  N_4 
REMARK    2  A    between atoms: C_12  and  C_9 
REMARK    3  A    between atoms: C_15  and  C_10 
REMARK    4  A    between atoms: C_17  and  N_11 
REMARK    5  A    between atoms: N_13  and  C_12 
REMARK    6  A    between atoms: O_30  and  C_27 
ROOT
ATOM      1  C   UNL d   1     -56.442-100.216 -44.106  0.00  0.00     0.157 A 
ATOM      2  C   UNL d   1     -57.024-100.591 -43.661  0.00  0.00     0.174 A 
ATOM      3  N   UNL d   1     -57.813-100.351 -43.733  0.00  0.00    -0.240 N 
ATOM      4  N   UNL d   1     -55.715-100.561 -43.927  0.00  0.00    -0.283 N 
ATOM      5  N   UNL d   1     -57.426 -99.369 -44.691  0.00  0.00    -0.223 N 
ATOM      6  C   UNL d   1     -58.013 -99.744 -44.245  0.00  0.00     0.343 A 
ATOM      7  C   UNL d   1     -56.633 -99.598 -44.629  0.00  0.00     0.287 A 
ATOM      8  N   UNL d   1     -56.659-101.171 -43.204  0.00  0.00    -0.207 NA
ATOM      9  C   UNL d   1     -55.850-101.152 -43.368  0.00  0.00     0.167 A 
ATOM     10  O   UNL d   1     -58.804 -99.504 -44.317  0.00  0.00    -0.245 OA
ATOM     11  O   UNL d   1     -56.052 -99.228 -45.070  0.00  0.00    -0.265 OA
ATOM     12  C   UNL d   1     -58.400-100.726 -43.288  0.00  0.00     0.105 C 
ATOM     13  C   UNL d   1     -57.629 -98.755 -45.209  0.00  0.00     0.107 C 
ENDROOT
BRANCH   9  14
ATOM     14  C   UNL d   1     -55.275-101.642 -43.031  0.00  0.00     0.118 C 
BRANCH  14  15
ATOM     15  N   UNL d   1     -55.302-101.815 -42.232  0.00  0.00    -0.297 N 
ATOM     16  C   UNL d   1     -55.077-102.559 -41.954  0.00  0.00     0.100 A 
ATOM     17  C   UNL d   1     -55.102-102.741 -41.148  0.00  0.00     0.100 A 
ATOM     18  N   UNL d   1     -55.357-102.165 -40.607  0.00  0.00    -0.301 N 
ATOM     19  C   UNL d   1     -55.585-101.415 -40.879  0.00  0.00     0.100 A 
ATOM     20  C   UNL d   1     -55.556-101.244 -41.690  0.00  0.00     0.100 A 
BRANCH  18  21
ATOM     21  C   UNL d   1     -55.383-102.343 -39.801  0.00  0.00     0.064 A 
ATOM     22  C   UNL d   1     -56.071-102.207 -39.379  0.00  0.00     0.020 A 
ATOM     23  C   UNL d   1     -56.101-102.385 -38.567  0.00  0.00     0.026 A 
ATOM     24  C   UNL d   1     -55.435-102.699 -38.191  0.00  0.00     0.094 A 
ATOM     25  C   UNL d   1     -54.743-102.833 -38.629  0.00  0.00     0.026 A 
ATOM     26  C   UNL d   1     -54.717-102.656 -39.434  0.00  0.00     0.020 A 
BRANCH  24  27
ATOM     27  O   UNL d   1     -55.450-102.879 -37.390  0.00  0.00    -0.328 OA
ATOM     28  C   UNL d   1     -54.835-102.615 -36.907  0.00  0.00     0.181 C 
ENDBRANCH  24  27
ENDBRANCH  18  21
ENDBRANCH  14  15
ENDBRANCH   9  14
BRANCH   4  29
ATOM     29  C   UNL d   1     -54.982-100.352 -44.249  0.00  0.00     0.082 C 
BRANCH  29  30
ATOM     30  C   UNL d   1     -54.901-100.295 -45.058  0.00  0.00     0.018 A 
ATOM     31  C   UNL d   1     -54.796-100.978 -45.494  0.00  0.00     0.001 A 
ATOM     32  C   UNL d   1     -54.771-101.717 -45.133  0.00  0.00     0.000 C 
ATOM     33  C   UNL d   1     -54.713-100.925 -46.321  0.00  0.00     0.000 A 
ATOM     34  C   UNL d   1     -54.736-100.190 -46.696  0.00  0.00     0.000 A 
ATOM     35  C   UNL d   1     -54.841 -99.508 -46.253  0.00  0.00     0.000 A 
ATOM     36  C   UNL d   1     -54.924 -99.557 -45.435  0.00  0.00     0.002 A 
ENDBRANCH  29  30
ENDBRANCH   4  29
TORSDOF 6
ENDMDL
