MODEL 1
REMARK VINA RESULT:      -8.2      0.000      0.000
REMARK  4 active torsions:
REMARK  status: ('A' for Active; 'I' for Inactive)
REMARK    1  A    between atoms: N_2  and  C_1 
REMARK       I    between atoms: C_5  and  N_2 
REMARK    2  A    between atoms: C_8  and  C_5 
REMARK    3  A    between atoms: O_16  and  C_10 
REMARK    4  A    between atoms: O_17  and  C_12 
ROOT
ATOM      1  N   UNL d   1      51.558  34.449  52.923  0.00  0.00    -0.184 NA
ATOM      2  C   UNL d   1      50.828  34.062  52.942  0.00  0.00     0.281 C 
ATOM      3  O   UNL d   1      50.764  33.367  53.380  0.00  0.00    -0.265 OA
ENDROOT
BRANCH   2   4
ATOM      4  C   UNL d   1      50.176  34.336  52.551  0.00  0.00     0.060 A 
ATOM      5  C   UNL d   1      49.627  34.782  52.951  0.00  0.00     0.031 A 
ATOM      6  C   UNL d   1      48.964  35.059  52.550  0.00  0.00     0.116 A 
ATOM      7  C   UNL d   1      48.860  34.888  51.760  0.00  0.00     0.116 A 
ATOM      8  C   UNL d   1      49.409  34.442  51.360  0.00  0.00     0.026 A 
ATOM      9  C   UNL d   1      50.095  34.147  51.748  0.00  0.00     0.007 A 
BRANCH   6  10
ATOM     10  O   UNL d   1      48.393  35.522  52.963  0.00  0.00    -0.326 OA
ATOM     11  C   UNL d   1      48.780  35.894  53.739  0.00  0.00     0.181 C 
ENDBRANCH   6  10
BRANCH   7  12
ATOM     12  O   UNL d   1      48.189  35.171  51.362  0.00  0.00    -0.326 OA
ATOM     13  C   UNL d   1      47.795  34.799  50.672  0.00  0.00     0.181 C 
ENDBRANCH   7  12
ENDBRANCH   2   4
BRANCH   1  14
ATOM     14  C   UNL d   1      52.195  34.126  53.341  0.00  0.00     0.182 A 
ATOM     15  N   UNL d   1      52.721  34.509  53.872  0.00  0.00    -0.283 N 
ATOM     16  C   UNL d   1      53.259  33.900  54.130  0.00  0.00     0.072 A 
ATOM     17  C   UNL d   1      52.708  35.274  54.079  0.00  0.00     0.101 C 
ATOM     18  C   UNL d   1      53.914  33.912  54.658  0.00  0.00     0.018 A 
ATOM     19  C   UNL d   1      53.044  33.226  53.766  0.00  0.00     0.048 A 
ATOM     20  C   UNL d   1      54.343  33.198  54.799  0.00  0.00     0.002 A 
ATOM     21  C   UNL d   1      54.117  32.519  54.425  0.00  0.00     0.001 A 
ATOM     22  C   UNL d   1      53.468  32.505  53.901  0.00  0.00     0.008 A 
ATOM     23  S   UNL d   1      52.411  33.344  53.292  0.00  0.00    -0.048 SA
ENDBRANCH   1  14
TORSDOF 4
ENDMDL
MODEL 2
REMARK VINA RESULT:      -7.3      1.479      4.915
REMARK  4 active torsions:
REMARK  status: ('A' for Active; 'I' for Inactive)
REMARK    1  A    between atoms: N_2  and  C_1 
REMARK       I    between atoms: C_5  and  N_2 
REMARK    2  A    between atoms: C_8  and  C_5 
REMARK    3  A    between atoms: O_16  and  C_10 
REMARK    4  A    between atoms: O_17  and  C_12 
ROOT
ATOM      1  N   UNL d   1      50.775  34.078  53.094  0.00  0.00    -0.184 NA
ATOM      2  C   UNL d   1      51.538  34.120  52.779  0.00  0.00     0.281 C 
ATOM      3  O   UNL d   1      51.631  34.419  52.017  0.00  0.00    -0.265 OA
ENDROOT
BRANCH   2   4
ATOM      4  C   UNL d   1      52.194  33.881  53.185  0.00  0.00     0.060 A 
ATOM      5  C   UNL d   1      52.385  33.092  53.210  0.00  0.00     0.031 A 
ATOM      6  C   UNL d   1      53.054  32.852  53.625  0.00  0.00     0.116 A 
ATOM      7  C   UNL d   1      53.519  33.401  54.006  0.00  0.00     0.116 A 
ATOM      8  C   UNL d   1      53.329  34.190  53.981  0.00  0.00     0.026 A 
ATOM      9  C   UNL d   1      52.650  34.461  53.564  0.00  0.00     0.007 A 
BRANCH   6  10
ATOM     10  O   UNL d   1      53.253  32.033  53.652  0.00  0.00    -0.326 OA
ATOM     11  C   UNL d   1      52.815  31.572  52.955  0.00  0.00     0.181 C 
ENDBRANCH   6  10
BRANCH   7  12
ATOM     12  O   UNL d   1      54.192  33.151  54.423  0.00  0.00    -0.326 OA
ATOM     13  C   UNL d   1      54.714  33.651  54.921  0.00  0.00     0.181 C 
ENDBRANCH   7  12
ENDBRANCH   2   4
BRANCH   1  14
ATOM     14  C   UNL d   1      50.137  34.337  52.635  0.00  0.00     0.182 A 
ATOM     15  N   UNL d   1      49.511  34.854  52.852  0.00  0.00    -0.283 N 
ATOM     16  C   UNL d   1      49.022  34.915  52.156  0.00  0.00     0.072 A 
ATOM     17  C   UNL d   1      49.411  35.203  53.557  0.00  0.00     0.101 C 
ATOM     18  C   UNL d   1      48.314  35.342  52.001  0.00  0.00     0.018 A 
ATOM     19  C   UNL d   1      49.354  34.462  51.594  0.00  0.00     0.048 A 
ATOM     20  C   UNL d   1      47.957  35.284  51.236  0.00  0.00     0.002 A 
ATOM     21  C   UNL d   1      48.303  34.821  50.672  0.00  0.00     0.001 A 
ATOM     22  C   UNL d   1      49.005  34.397  50.825  0.00  0.00     0.008 A 
ATOM     23  S   UNL d   1      50.020  34.110  51.863  0.00  0.00    -0.048 SA
ENDBRANCH   1  14
TORSDOF 4
ENDMDL
MODEL 3
REMARK VINA RESULT:      -7.0      1.697      4.984
REMARK  4 active torsions:
REMARK  status: ('A' for Active; 'I' for Inactive)
REMARK    1  A    between atoms: N_2  and  C_1 
REMARK       I    between atoms: C_5  and  N_2 
REMARK    2  A    between atoms: C_8  and  C_5 
REMARK    3  A    between atoms: O_16  and  C_10 
REMARK    4  A    between atoms: O_17  and  C_12 
ROOT
ATOM      1  N   UNL d   1      49.942  34.505  52.116  0.00  0.00    -0.184 NA
ATOM      2  C   UNL d   1      50.271  34.375  52.862  0.00  0.00     0.281 C 
ATOM      3  O   UNL d   1      49.847  34.616  53.526  0.00  0.00    -0.265 OA
ENDROOT
BRANCH   2   4
ATOM      4  C   UNL d   1      50.990  34.021  52.968  0.00  0.00     0.060 A 
ATOM      5  C   UNL d   1      51.652  34.482  53.072  0.00  0.00     0.031 A 
ATOM      6  C   UNL d   1      52.382  34.118  53.180  0.00  0.00     0.116 A 
ATOM      7  C   UNL d   1      52.441  33.306  53.182  0.00  0.00     0.116 A 
ATOM      8  C   UNL d   1      51.780  32.846  53.078  0.00  0.00     0.026 A 
ATOM      9  C   UNL d   1      51.021  33.193  52.966  0.00  0.00     0.007 A 
BRANCH   6  10
ATOM     10  O   UNL d   1      53.070  34.594  53.288  0.00  0.00    -0.326 OA
ATOM     11  C   UNL d   1      52.898  35.267  53.928  0.00  0.00     0.181 C 
ENDBRANCH   6  10
BRANCH   7  12
ATOM     12  O   UNL d   1      53.181  32.947  53.291  0.00  0.00    -0.326 OA
ATOM     13  C   UNL d   1      53.350  32.085  53.291  0.00  0.00     0.181 C 
ENDBRANCH   7  12
ENDBRANCH   2   4
BRANCH   1  14
ATOM     14  C   UNL d   1      49.201  34.872  52.063  0.00  0.00     0.182 A 
ATOM     15  N   UNL d   1      48.654  34.857  51.426  0.00  0.00    -0.283 N 
ATOM     16  C   UNL d   1      47.995  35.331  51.687  0.00  0.00     0.072 A 
ATOM     17  C   UNL d   1      48.745  34.479  50.735  0.00  0.00     0.101 C 
ATOM     18  C   UNL d   1      47.269  35.539  51.318  0.00  0.00     0.018 A 
ATOM     19  C   UNL d   1      48.167  35.589  52.419  0.00  0.00     0.048 A 
ATOM     20  C   UNL d   1      46.720  36.028  51.736  0.00  0.00     0.002 A 
ATOM     21  C   UNL d   1      46.903  36.286  52.478  0.00  0.00     0.001 A 
ATOM     22  C   UNL d   1      47.624  36.080  52.846  0.00  0.00     0.008 A 
ATOM     23  S   UNL d   1      48.883  35.324  52.658  0.00  0.00    -0.048 SA
ENDBRANCH   1  14
TORSDOF 4
ENDMDL
