MODEL 1
REMARK VINA RESULT:      -3.3      0.000      0.000
REMARK  9 active torsions:
REMARK  status: ('A' for Active; 'I' for Inactive)
REMARK    1  A    between atoms: N_2  and  S_1 
REMARK    2  A    between atoms: C_9  and  S_1 
REMARK    3  A    between atoms: C_4  and  N_2 
REMARK    4  A    between atoms: O_24  and  C_6 
REMARK    5  A    between atoms: O_26  and  C_7 
REMARK       I    between atoms: C_12  and  N_15 
REMARK    6  A    between atoms: C_22  and  C_12 
REMARK    7  A    between atoms: C_14  and  O_16 
REMARK    8  A    between atoms: N_15  and  C_23 
REMARK    9  A    between atoms: O_16  and  C_22 
ROOT
ATOM      1  C   UNL d   1      58.732  -1.063  29.558  0.00  0.00     0.105 A 
ATOM      2  C   UNL d   1      58.350  -1.375  30.212  0.00  0.00     0.015 A 
ATOM      3  C   UNL d   1      58.718  -0.244  29.418  0.00  0.00     0.015 A 
ATOM      4  C   UNL d   1      57.938  -0.072  30.595  0.00  0.00     0.085 A 
ATOM      5  C   UNL d   1      57.944  -0.897  30.748  0.00  0.00     0.020 A 
ATOM      6  C   UNL d   1      58.316   0.239  29.945  0.00  0.00     0.020 A 
ENDROOT
BRANCH   1   7
ATOM      7  S   UNL d   1      59.134  -1.546  29.029  0.00  0.00     0.287 S 
ATOM      8  O   UNL d   1      58.504  -1.446  28.461  0.00  0.00    -0.198 OA
ATOM      9  O   UNL d   1      59.758  -1.656  29.565  0.00  0.00    -0.198 OA
BRANCH   7  10
ATOM     10  N   UNL d   1      59.526  -2.036  28.471  0.00  0.00    -0.139 NA
BRANCH  10  11
ATOM     11  C   UNL d   1      59.467  -2.850  28.497  0.00  0.00     0.182 A 
ATOM     12  N   UNL d   1      58.752  -3.210  28.469  0.00  0.00    -0.185 NA
ATOM     13  C   UNL d   1      58.677  -4.044  28.494  0.00  0.00     0.274 A 
ATOM     14  N   UNL d   1      59.346  -4.501  28.549  0.00  0.00    -0.181 NA
ATOM     15  C   UNL d   1      60.081  -4.158  28.578  0.00  0.00     0.185 A 
ATOM     16  C   UNL d   1      60.142  -3.298  28.551  0.00  0.00     0.084 A 
BRANCH  13  17
ATOM     17  O   UNL d   1      57.926  -4.417  28.465  0.00  0.00    -0.297 OA
ATOM     18  C   UNL d   1      57.860  -5.237  28.520  0.00  0.00     0.185 C 
ENDBRANCH  13  17
BRANCH  15  19
ATOM     19  O   UNL d   1      60.751  -4.657  28.634  0.00  0.00    -0.312 OA
ATOM     20  C   UNL d   1      61.133  -4.727  29.375  0.00  0.00     0.183 C 
ENDBRANCH  15  19
ENDBRANCH  10  11
ENDBRANCH   7  10
ENDBRANCH   1   7
BRANCH   4  21
ATOM     21  N   UNL d   1      57.539   0.439  31.113  0.00  0.00    -0.206 NA
ATOM     22  C   UNL d   1      57.092   0.094  31.736  0.00  0.00     0.304 C 
ATOM     23  O   UNL d   1      57.057  -0.691  31.818  0.00  0.00    -0.263 OA
BRANCH  22  24
ATOM     24  C   UNL d   1      56.695   0.602  32.251  0.00  0.00     0.185 C 
BRANCH  24  25
ATOM     25  O   UNL d   1      56.806   0.547  33.063  0.00  0.00    -0.300 OA
BRANCH  25  26
ATOM     26  C   UNL d   1      56.131   0.580  33.561  0.00  0.00     0.100 A 
ATOM     27  C   UNL d   1      56.186   0.596  34.382  0.00  0.00     0.023 A 
ATOM     28  C   UNL d   1      55.523   0.628  34.854  0.00  0.00     0.002 A 
ATOM     29  C   UNL d   1      56.947   0.579  34.765  0.00  0.00     0.002 C 
ATOM     30  C   UNL d   1      54.792   0.645  34.515  0.00  0.00     0.000 A 
ATOM     31  C   UNL d   1      54.696   0.630  33.687  0.00  0.00     0.002 A 
ATOM     32  C   UNL d   1      54.101   0.678  34.983  0.00  0.00     0.000 C 
ATOM     33  C   UNL d   1      55.360   0.598  33.214  0.00  0.00     0.025 A 
ENDBRANCH  25  26
ENDBRANCH  24  25
ENDBRANCH  22  24
ENDBRANCH   4  21
TORSDOF 9
ENDMDL
