MODEL 1
REMARK VINA RESULT:      74.2      0.000      0.000
REMARK  6 active torsions:
REMARK  status: ('A' for Active; 'I' for Inactive)
REMARK    1  A    between atoms: C_4  and  C_1 
REMARK    2  A    between atoms: C_13  and  N_3 
REMARK    3  A    between atoms: C_11  and  N_5 
REMARK    4  A    between atoms: C_16  and  C_13 
REMARK    5  A    between atoms: O_14  and  C_16 
REMARK    6  A    between atoms: C_15  and  O_14 
ROOT
ATOM      1  C   UNL d   1     -50.695  26.100  33.869  0.00  0.00     0.149 A 
ATOM      2  N   UNL d   1     -50.429  26.645  33.306  0.00  0.00    -0.227 NA
ATOM      3  N   UNL d   1     -50.444  26.363  34.624  0.00  0.00    -0.287 N 
ATOM      4  C   UNL d   1     -50.024  27.073  34.514  0.00  0.00     0.083 A 
ATOM      5  C   UNL d   1     -50.012  27.251  33.705  0.00  0.00     0.099 A 
ATOM      6  C   UNL d   1     -49.648  27.583  35.055  0.00  0.00     0.019 A 
ATOM      7  C   UNL d   1     -49.633  27.926  33.430  0.00  0.00     0.021 A 
ATOM      8  C   UNL d   1     -49.267  28.264  34.773  0.00  0.00     0.002 A 
ATOM      9  C   UNL d   1     -49.259  28.435  33.963  0.00  0.00     0.002 A 
ENDROOT
BRANCH   1  10
ATOM     10  C   UNL d   1     -51.129  25.416  33.720  0.00  0.00     0.057 A 
ATOM     11  C   UNL d   1     -51.947  25.359  33.680  0.00  0.00     0.081 A 
ATOM     12  N   UNL d   1     -52.140  24.568  33.519  0.00  0.00    -0.298 N 
ATOM     13  C   UNL d   1     -51.438  24.141  33.461  0.00  0.00     0.261 A 
ATOM     14  C   UNL d   1     -50.812  24.662  33.585  0.00  0.00     0.065 A 
ATOM     15  O   UNL d   1     -51.375  23.336  33.307  0.00  0.00    -0.267 OA
BRANCH  12  16
ATOM     16  C   UNL d   1     -52.903  24.266  33.433  0.00  0.00     0.071 C 
ATOM     17  C   UNL d   1     -53.532  24.785  33.311  0.00  0.00     0.023 C 
ATOM     18  C   UNL d   1     -53.604  23.850  33.363  0.00  0.00     0.023 C 
ATOM     19  C   UNL d   1     -53.030  23.458  33.468  0.00  0.00     0.023 C 
ENDBRANCH  12  16
ENDBRANCH   1  10
BRANCH   3  20
ATOM     20  C   UNL d   1     -50.587  25.988  35.338  0.00  0.00     0.108 C 
BRANCH  20  21
ATOM     21  C   UNL d   1     -51.247  26.198  35.793  0.00  0.00     0.142 C 
BRANCH  21  22
ATOM     22  O   UNL d   1     -51.180  26.750  36.393  0.00  0.00    -0.304 OA
BRANCH  22  23
ATOM     23  C   UNL d   1     -51.384  26.535  37.166  0.00  0.00     0.100 A 
ATOM     24  C   UNL d   1     -50.840  26.666  37.772  0.00  0.00     0.025 A 
ATOM     25  C   UNL d   1     -51.044  26.451  38.545  0.00  0.00     0.002 A 
ATOM     26  C   UNL d   1     -51.777  26.113  38.706  0.00  0.00     0.000 A 
ATOM     27  C   UNL d   1     -52.313  25.988  38.086  0.00  0.00     0.002 A 
ATOM     28  C   UNL d   1     -52.111  26.202  37.317  0.00  0.00     0.025 A 
ENDBRANCH  22  23
ENDBRANCH  21  22
ENDBRANCH  20  21
ENDBRANCH   3  20
TORSDOF 6
ENDMDL
MODEL 2
REMARK VINA RESULT:      74.2      1.162      3.580
REMARK  6 active torsions:
REMARK  status: ('A' for Active; 'I' for Inactive)
REMARK    1  A    between atoms: C_4  and  C_1 
REMARK    2  A    between atoms: C_13  and  N_3 
REMARK    3  A    between atoms: C_11  and  N_5 
REMARK    4  A    between atoms: C_16  and  C_13 
REMARK    5  A    between atoms: O_14  and  C_16 
REMARK    6  A    between atoms: C_15  and  O_14 
ROOT
ATOM      1  C   UNL d   1     -51.803  25.464  33.834  0.00  0.00     0.149 A 
ATOM      2  N   UNL d   1     -51.847  24.819  33.318  0.00  0.00    -0.227 NA
ATOM      3  N   UNL d   1     -52.373  25.352  34.438  0.00  0.00    -0.287 N 
ATOM      4  C   UNL d   1     -52.764  24.634  34.284  0.00  0.00     0.083 A 
ATOM      5  C   UNL d   1     -52.443  24.302  33.596  0.00  0.00     0.099 A 
ATOM      6  C   UNL d   1     -53.375  24.238  34.687  0.00  0.00     0.019 A 
ATOM      7  C   UNL d   1     -52.723  23.585  33.307  0.00  0.00     0.021 A 
ATOM      8  C   UNL d   1     -53.655  23.514  34.392  0.00  0.00     0.002 A 
ATOM      9  C   UNL d   1     -53.330  23.189  33.704  0.00  0.00     0.002 A 
ENDROOT
BRANCH   1  10
ATOM     10  C   UNL d   1     -51.291  26.106  33.772  0.00  0.00     0.057 A 
ATOM     11  C   UNL d   1     -50.494  26.114  33.967  0.00  0.00     0.081 A 
ATOM     12  N   UNL d   1     -50.202  26.875  33.816  0.00  0.00    -0.298 N 
ATOM     13  C   UNL d   1     -50.822  27.334  33.527  0.00  0.00     0.261 A 
ATOM     14  C   UNL d   1     -51.496  26.861  33.499  0.00  0.00     0.065 A 
ATOM     15  O   UNL d   1     -50.774  28.124  33.306  0.00  0.00    -0.267 OA
BRANCH  12  16
ATOM     16  C   UNL d   1     -49.425  27.125  33.935  0.00  0.00     0.071 C 
ATOM     17  C   UNL d   1     -48.869  27.020  33.334  0.00  0.00     0.023 C 
ATOM     18  C   UNL d   1     -48.695  27.411  34.170  0.00  0.00     0.023 C 
ATOM     19  C   UNL d   1     -49.211  27.475  34.644  0.00  0.00     0.023 C 
ENDBRANCH  12  16
ENDBRANCH   1  10
BRANCH   3  20
ATOM     20  C   UNL d   1     -52.519  25.860  35.065  0.00  0.00     0.108 C 
BRANCH  20  21
ATOM     21  C   UNL d   1     -52.169  25.720  35.803  0.00  0.00     0.142 C 
BRANCH  21  22
ATOM     22  O   UNL d   1     -52.250  26.262  36.410  0.00  0.00    -0.304 OA
BRANCH  22  23
ATOM     23  C   UNL d   1     -52.220  25.999  37.195  0.00  0.00     0.100 A 
ATOM     24  C   UNL d   1     -51.550  26.170  37.646  0.00  0.00     0.025 A 
ATOM     25  C   UNL d   1     -51.520  25.907  38.431  0.00  0.00     0.002 A 
ATOM     26  C   UNL d   1     -52.145  25.484  38.755  0.00  0.00     0.000 A 
ATOM     27  C   UNL d   1     -52.812  25.320  38.288  0.00  0.00     0.002 A 
ATOM     28  C   UNL d   1     -52.843  25.581  37.508  0.00  0.00     0.025 A 
ENDBRANCH  22  23
ENDBRANCH  21  22
ENDBRANCH  20  21
ENDBRANCH   3  20
TORSDOF 6
ENDMDL
