MODEL 1
REMARK VINA RESULT:      -5.6      0.000      0.000
REMARK  2 active torsions:
REMARK  status: ('A' for Active; 'I' for Inactive)
REMARK    1  A    between atoms: C_11  and  C_1 
REMARK    2  A    between atoms: C_13  and  C_11 
ROOT
ATOM      1  C   UNL d   1     -41.425-122.514 -53.392  0.00  0.00     0.058 A 
ATOM      2  C   UNL d   1     -41.943-122.149 -54.590  0.00  0.00    -0.008 A 
ATOM      3  C   UNL d   1     -41.821-122.569 -54.798  0.00  0.00    -0.008 A 
ATOM      4  C   UNL d   1     -41.230-123.541 -54.244  0.00  0.00     0.045 A 
ATOM      5  C   UNL d   1     -41.708-122.341 -54.086  0.00  0.00    -0.019 A 
ATOM      6  C   UNL d   1     -41.833-121.882 -53.833  0.00  0.00    -0.019 A 
ATOM      7  C   UNL d   1     -41.123-123.274 -53.495  0.00  0.00     0.021 A 
ATOM      8  C   UNL d   1     -42.260-121.927 -55.328  0.00  0.00    -0.001 A 
ATOM      9  C   UNL d   1     -41.534-123.295 -54.900  0.00  0.00    -0.022 A 
ATOM     10  C   UNL d   1     -41.634-122.927 -54.695  0.00  0.00    -0.022 A 
ENDROOT
BRANCH   1  11
ATOM     11  C   UNL d   1     -41.170-122.560 -52.608  0.00  0.00     0.004 C 
BRANCH  11  12
ATOM     12  C   UNL d   1     -41.395-121.970 -52.077  0.00  0.00     0.118 C 
ATOM     13  N   UNL d   1     -41.123-121.994 -51.293  0.00  0.00    -0.147 N 
ENDBRANCH  11  12
ENDBRANCH   1  11
TORSDOF 2
ENDMDL
MODEL 2
REMARK VINA RESULT:      -5.3      1.360      2.398
REMARK  2 active torsions:
REMARK  status: ('A' for Active; 'I' for Inactive)
REMARK    1  A    between atoms: C_11  and  C_1 
REMARK    2  A    between atoms: C_13  and  C_11 
ROOT
ATOM      1  C   UNL d   1     -41.539-122.660 -53.731  0.00  0.00     0.058 A 
ATOM      2  C   UNL d   1     -41.292-122.362 -52.432  0.00  0.00    -0.008 A 
ATOM      3  C   UNL d   1     -41.208-122.824 -52.316  0.00  0.00    -0.008 A 
ATOM      4  C   UNL d   1     -41.254-123.817 -53.100  0.00  0.00     0.045 A 
ATOM      5  C   UNL d   1     -41.392-122.529 -52.987  0.00  0.00    -0.019 A 
ATOM      6  C   UNL d   1     -41.490-122.021 -53.140  0.00  0.00    -0.019 A 
ATOM      7  C   UNL d   1     -41.451-123.477 -53.799  0.00  0.00     0.021 A 
ATOM      8  C   UNL d   1     -41.139-122.181 -51.633  0.00  0.00    -0.001 A 
ATOM      9  C   UNL d   1     -41.123-123.604 -52.378  0.00  0.00    -0.022 A 
ATOM     10  C   UNL d   1     -41.201-123.198 -52.502  0.00  0.00    -0.022 A 
ENDROOT
BRANCH   1  11
ATOM     11  C   UNL d   1     -41.717-122.650 -54.537  0.00  0.00     0.004 C 
BRANCH  11  12
ATOM     12  C   UNL d   1     -42.117-122.001 -54.852  0.00  0.00     0.118 C 
ATOM     13  N   UNL d   1     -42.224-121.941 -55.673  0.00  0.00    -0.147 N 
ENDBRANCH  11  12
ENDBRANCH   1  11
TORSDOF 2
ENDMDL
MODEL 3
REMARK VINA RESULT:      -4.2      2.077      3.013
REMARK  2 active torsions:
REMARK  status: ('A' for Active; 'I' for Inactive)
REMARK    1  A    between atoms: C_11  and  C_1 
REMARK    2  A    between atoms: C_13  and  C_11 
ROOT
ATOM      1  C   UNL d   1     -41.152-123.070 -50.686  0.00  0.00     0.058 A 
ATOM      2  C   UNL d   1     -41.139-123.531 -51.961  0.00  0.00    -0.008 A 
ATOM      3  C   UNL d   1     -41.132-123.084 -52.148  0.00  0.00    -0.008 A 
ATOM      4  C   UNL d   1     -41.129-121.996 -51.502  0.00  0.00     0.045 A 
ATOM      5  C   UNL d   1     -41.144-123.294 -51.422  0.00  0.00    -0.019 A 
ATOM      6  C   UNL d   1     -41.153-123.781 -51.190  0.00  0.00    -0.019 A 
ATOM      7  C   UNL d   1     -41.143-122.246 -50.740  0.00  0.00     0.021 A 
ATOM      8  C   UNL d   1     -41.131-123.812 -52.745  0.00  0.00    -0.001 A 
ATOM      9  C   UNL d   1     -41.123-122.299 -52.204  0.00  0.00    -0.022 A 
ATOM     10  C   UNL d   1     -41.129-122.689 -52.016  0.00  0.00    -0.022 A 
ENDROOT
BRANCH   1  11
ATOM     11  C   UNL d   1     -41.163-122.978 -49.866  0.00  0.00     0.004 C 
BRANCH  11  12
ATOM     12  C   UNL d   1     -41.147-123.649 -49.387  0.00  0.00     0.118 C 
ATOM     13  N   UNL d   1     -41.154-123.565 -48.560  0.00  0.00    -0.147 N 
ENDBRANCH  11  12
ENDBRANCH   1  11
TORSDOF 2
ENDMDL
MODEL 4
REMARK VINA RESULT:      -3.9      2.873      4.761
REMARK  2 active torsions:
REMARK  status: ('A' for Active; 'I' for Inactive)
REMARK    1  A    between atoms: C_11  and  C_1 
REMARK    2  A    between atoms: C_13  and  C_11 
ROOT
ATOM      1  C   UNL d   1     -41.874-122.703 -50.142  0.00  0.00     0.058 A 
ATOM      2  C   UNL d   1     -41.601-123.393 -49.008  0.00  0.00    -0.008 A 
ATOM      3  C   UNL d   1     -42.042-123.314 -48.824  0.00  0.00    -0.008 A 
ATOM      4  C   UNL d   1     -42.980-122.663 -49.370  0.00  0.00     0.045 A 
ATOM      5  C   UNL d   1     -41.755-123.087 -49.485  0.00  0.00    -0.019 A 
ATOM      6  C   UNL d   1     -41.271-123.162 -49.711  0.00  0.00    -0.019 A 
ATOM      7  C   UNL d   1     -42.651-122.436 -50.066  0.00  0.00     0.021 A 
ATOM      8  C   UNL d   1     -41.435-123.817 -48.310  0.00  0.00    -0.001 A 
ATOM      9  C   UNL d   1     -42.783-123.061 -48.748  0.00  0.00    -0.022 A 
ATOM     10  C   UNL d   1     -42.395-123.120 -48.930  0.00  0.00    -0.022 A 
ENDROOT
BRANCH   1  11
ATOM     11  C   UNL d   1     -41.859-122.331 -50.879  0.00  0.00     0.004 C 
BRANCH  11  12
ATOM     12  C   UNL d   1     -41.149-122.298 -51.297  0.00  0.00     0.118 C 
ATOM     13  N   UNL d   1     -41.133-121.966 -52.058  0.00  0.00    -0.147 N 
ENDBRANCH  11  12
ENDBRANCH   1  11
TORSDOF 2
ENDMDL
MODEL 5
REMARK VINA RESULT:      -2.8      9.973     10.247
REMARK  2 active torsions:
REMARK  status: ('A' for Active; 'I' for Inactive)
REMARK    1  A    between atoms: C_11  and  C_1 
REMARK    2  A    between atoms: C_13  and  C_11 
ROOT
ATOM      1  C   UNL d   1     -42.975-114.976 -47.075  0.00  0.00     0.058 A 
ATOM      2  C   UNL d   1     -41.829-114.412 -47.528  0.00  0.00    -0.008 A 
ATOM      3  C   UNL d   1     -41.553-114.763 -47.340  0.00  0.00    -0.008 A 
ATOM      4  C   UNL d   1     -41.956-115.770 -46.686  0.00  0.00     0.045 A 
ATOM      5  C   UNL d   1     -42.304-114.686 -47.316  0.00  0.00    -0.019 A 
ATOM      6  C   UNL d   1     -42.632-114.307 -47.516  0.00  0.00    -0.019 A 
ATOM      7  C   UNL d   1     -42.751-115.663 -46.676  0.00  0.00     0.021 A 
ATOM      8  C   UNL d   1     -41.122-114.068 -47.805  0.00  0.00    -0.001 A 
ATOM      9  C   UNL d   1     -41.335-115.418 -46.960  0.00  0.00    -0.022 A 
ATOM     10  C   UNL d   1     -41.599-115.115 -47.120  0.00  0.00    -0.022 A 
ENDROOT
BRANCH   1  11
ATOM     11  C   UNL d   1     -43.756-115.166 -46.884  0.00  0.00     0.004 C 
BRANCH  11  12
ATOM     12  C   UNL d   1     -44.325-115.166 -47.481  0.00  0.00     0.118 C 
ATOM     13  N   UNL d   1     -45.131-115.200 -47.281  0.00  0.00    -0.147 N 
ENDBRANCH  11  12
ENDBRANCH   1  11
TORSDOF 2
ENDMDL
