MODEL 1
REMARK VINA RESULT:      -2.5      0.000      0.000
REMARK  3 active torsions:
REMARK  status: ('A' for Active; 'I' for Inactive)
REMARK    1  A    between atoms: C_5  and  C_1 
REMARK    2  A    between atoms: N_8  and  C_5 
REMARK    3  A    between atoms: C_10  and  C_5 
ROOT
ATOM      1  C   UNL d   1      31.964  17.131 -24.164  0.00  0.00     0.067 C 
ENDROOT
BRANCH   1   2
ATOM      2  C   UNL d   1      32.275  17.884 -24.012  0.00  0.00     0.057 A 
ATOM      3  C   UNL d   1      32.312  18.156 -23.237  0.00  0.00     0.214 A 
ATOM      4  C   UNL d   1      32.622  18.906 -23.087  0.00  0.00     0.121 A 
ATOM      5  O   UNL d   1      32.046  17.696 -22.610  0.00  0.00    -0.285 OA
ATOM      6  N   UNL d   1      32.660  19.180 -22.309  0.00  0.00    -0.241 NA
ATOM      7  C   UNL d   1      32.895  19.381 -23.715  0.00  0.00     0.032 A 
ATOM      8  C   UNL d   1      32.968  19.925 -22.165  0.00  0.00     0.099 A 
ATOM      9  C   UNL d   1      33.241  20.400 -22.793  0.00  0.00     0.021 A 
ATOM     10  C   UNL d   1      33.200  20.122 -23.552  0.00  0.00     0.004 A 
ATOM     11  C   UNL d   1      32.856  19.105 -24.489  0.00  0.00     0.059 A 
ATOM     12  C   UNL d   1      32.548  18.359 -24.639  0.00  0.00     0.016 A 
ATOM     13 CL   UNL d   1      33.127  19.579 -25.097  0.00  0.00    -0.082 Cl
ENDBRANCH   1   2
BRANCH   1  14
ATOM     14  N   UNL d   1      32.461  16.479 -24.203  0.00  0.00    -0.304 N 
ATOM     15  C   UNL d   1      32.740  16.130 -23.511  0.00  0.00     0.080 A 
ATOM     16  C   UNL d   1      33.235  15.481 -23.539  0.00  0.00     0.021 A 
ATOM     17  C   UNL d   1      33.183  15.514 -24.978  0.00  0.00     0.021 A 
ATOM     18  C   UNL d   1      32.684  16.170 -24.939  0.00  0.00     0.080 A 
ENDBRANCH   1  14
BRANCH   1  19
ATOM     19  C   UNL d   1      31.141  17.036 -24.277  0.00  0.00     0.016 A 
ATOM     20  C   UNL d   1      30.772  17.370 -24.923  0.00  0.00     0.002 A 
ATOM     21  C   UNL d   1      29.966  17.279 -25.038  0.00  0.00     0.011 A 
ATOM     22  C   UNL d   1      29.519  16.841 -24.489  0.00  0.00     0.058 A 
ATOM     23  C   UNL d   1      29.894  16.500 -23.830  0.00  0.00     0.011 A 
ATOM     24 CL   UNL d   1      28.716  16.744 -24.593  0.00  0.00    -0.082 Cl
ATOM     25  C   UNL d   1      30.711  16.602 -23.729  0.00  0.00     0.002 A 
ENDBRANCH   1  19
TORSDOF 3
ENDMDL
