MODEL 1
REMARK VINA RESULT:      25.6      0.000      0.000
REMARK  2 active torsions:
REMARK  status: ('A' for Active; 'I' for Inactive)
REMARK    1  A    between atoms: N_5  and  C_1 
REMARK       I    between atoms: C_4  and  N_5 
REMARK    2  A    between atoms: C_7  and  C_4 
ROOT
ATOM      1  C   UNL d   1     -50.865  25.138  33.545  0.00  0.00     0.060 A 
ATOM      2  C   UNL d   1     -50.543  26.547  33.544  0.00  0.00     0.123 A 
ATOM      3  C   UNL d   1     -50.316  25.758  33.603  0.00  0.00     0.032 A 
ATOM      4  C   UNL d   1     -51.345  26.737  33.423  0.00  0.00     0.123 A 
ATOM      5  O   UNL d   1     -49.998  27.151  33.602  0.00  0.00    -0.301 OA
ATOM      6  O   UNL d   1     -51.585  27.511  33.363  0.00  0.00    -0.301 OA
ATOM      7  C   UNL d   1     -51.659  25.325  33.426  0.00  0.00     0.007 A 
ATOM      8  C   UNL d   1     -51.899  26.131  33.365  0.00  0.00     0.027 A 
ATOM      9  C   UNL d   1     -50.212  27.945  33.545  0.00  0.00     0.149 A 
ATOM     10  C   UNL d   1     -51.016  28.139  33.423  0.00  0.00     0.149 A 
ENDROOT
BRANCH   1  11
ATOM     11  C   UNL d   1     -50.627  24.359  33.605  0.00  0.00     0.281 C 
ATOM     12  N   UNL d   1     -51.220  23.780  33.616  0.00  0.00    -0.187 NA
ATOM     13  O   UNL d   1     -49.802  24.070  33.661  0.00  0.00    -0.265 OA
BRANCH  12  14
ATOM     14  C   UNL d   1     -52.035  24.013  33.564  0.00  0.00     0.194 A 
ATOM     15  N   UNL d   1     -52.333  24.782  33.625  0.00  0.00    -0.107 NA
ATOM     16  O   UNL d   1     -53.154  24.752  33.542  0.00  0.00    -0.210 OA
ATOM     17  C   UNL d   1     -53.376  23.955  33.427  0.00  0.00     0.128 A 
ATOM     18  C   UNL d   1     -52.670  23.505  33.443  0.00  0.00     0.068 A 
ATOM     19  C   UNL d   1     -54.143  23.679  33.321  0.00  0.00     0.029 C 
ENDBRANCH  12  14
ENDBRANCH   1  11
TORSDOF 2
ENDMDL
