MODEL 1
REMARK VINA RESULT:      -3.5      0.000      0.000
REMARK  7 active torsions:
REMARK  status: ('A' for Active; 'I' for Inactive)
REMARK    1  A    between atoms: C_2  and  C_1 
REMARK    2  A    between atoms: O_12  and  C_1 
REMARK       I    between atoms: C_3  and  N_4 
REMARK    3  A    between atoms: C_11  and  C_3 
REMARK    4  A    between atoms: N_4  and  C_7 
REMARK    5  A    between atoms: C_5  and  C_13 
REMARK    6  A    between atoms: O_14  and  C_5 
REMARK    7  A    between atoms: C_13  and  C_11 
ROOT
ATOM      1  C   UNL d   1      56.769  -0.297  32.237  0.00  0.00     0.063 A 
ATOM      2  C   UNL d   1      56.773  -0.053  31.449  0.00  0.00     0.023 A 
ATOM      3  C   UNL d   1      57.369   0.437  31.155  0.00  0.00     0.059 A 
ATOM      4  C   UNL d   1      57.380  -0.046  32.752  0.00  0.00     0.006 A 
ATOM      5  C   UNL d   1      57.980   0.447  32.456  0.00  0.00     0.002 A 
ATOM      6  C   UNL d   1      57.964   0.682  31.659  0.00  0.00     0.017 A 
ENDROOT
BRANCH   3   7
ATOM      7  N   UNL d   1      57.364   0.682  30.347  0.00  0.00    -0.321 N 
ATOM      8  C   UNL d   1      57.791   0.250  29.790  0.00  0.00     0.258 C 
ATOM      9  O   UNL d   1      57.786   0.491  28.994  0.00  0.00    -0.267 OA
ATOM     10  H   UNL d   1      56.930   1.351  30.128  0.00  0.00     0.169 HD
BRANCH   8  11
ATOM     11  C   UNL d   1      58.229  -0.420  29.997  0.00  0.00     0.067 C 
BRANCH  11  12
ATOM     12  C   UNL d   1      58.573  -0.901  29.438  0.00  0.00     0.072 C 
BRANCH  12  13
ATOM     13  C   UNL d   1      58.976  -1.574  29.669  0.00  0.00     0.178 C 
ATOM     14  O   UNL d   1      58.563  -2.285  29.729  0.00  0.00    -0.646 OA
BRANCH  13  15
ATOM     15  O   UNL d   1      59.774  -1.545  29.837  0.00  0.00    -0.773 OA
ATOM     16  H   UNL d   1      60.144  -0.835  29.939  0.00  0.00     0.167 HD
ENDBRANCH  13  15
ENDBRANCH  12  13
ENDBRANCH  11  12
ENDBRANCH   8  11
ENDBRANCH   3   7
BRANCH   1  17
ATOM     17  C   UNL d   1      56.167  -0.787  32.516  0.00  0.00     0.178 C 
ATOM     18  O   UNL d   1      55.532  -0.450  32.929  0.00  0.00    -0.646 OA
BRANCH  17  19
ATOM     19  O   UNL d   1      56.197  -1.588  32.386  0.00  0.00    -0.773 OA
ATOM     20  H   UNL d   1      56.104  -1.900  31.626  0.00  0.00     0.167 HD
ENDBRANCH  17  19
ENDBRANCH   1  17
TORSDOF 7
ENDMDL
MODEL 2
REMARK VINA RESULT:      -3.3      1.391      2.157
REMARK  7 active torsions:
REMARK  status: ('A' for Active; 'I' for Inactive)
REMARK    1  A    between atoms: C_2  and  C_1 
REMARK    2  A    between atoms: O_12  and  C_1 
REMARK       I    between atoms: C_3  and  N_4 
REMARK    3  A    between atoms: C_11  and  C_3 
REMARK    4  A    between atoms: N_4  and  C_7 
REMARK    5  A    between atoms: C_5  and  C_13 
REMARK    6  A    between atoms: O_14  and  C_5 
REMARK    7  A    between atoms: C_13  and  C_11 
ROOT
ATOM      1  C   UNL d   1      55.930  -0.902  33.058  0.00  0.00     0.063 A 
ATOM      2  C   UNL d   1      56.721  -0.671  33.043  0.00  0.00     0.023 A 
ATOM      3  C   UNL d   1      56.935   0.120  32.945  0.00  0.00     0.059 A 
ATOM      4  C   UNL d   1      55.328  -0.326  32.972  0.00  0.00     0.006 A 
ATOM      5  C   UNL d   1      55.544   0.470  32.873  0.00  0.00     0.002 A 
ATOM      6  C   UNL d   1      56.347   0.681  32.861  0.00  0.00     0.017 A 
ENDROOT
BRANCH   3   7
ATOM      7  N   UNL d   1      57.749   0.347  32.931  0.00  0.00    -0.321 N 
ATOM      8  C   UNL d   1      58.126   0.459  32.207  0.00  0.00     0.258 C 
ATOM      9  O   UNL d   1      58.927   0.682  32.192  0.00  0.00    -0.267 OA
ATOM     10  H   UNL d   1      58.153   0.453  33.644  0.00  0.00     0.169 HD
BRANCH   8  11
ATOM     11  C   UNL d   1      57.732   0.356  31.487  0.00  0.00     0.067 C 
BRANCH  11  12
ATOM     12  C   UNL d   1      58.118   0.402  30.773  0.00  0.00     0.072 C 
BRANCH  12  13
ATOM     13  C   UNL d   1      57.762   0.116  30.095  0.00  0.00     0.178 C 
ATOM     14  O   UNL d   1      57.326   0.635  29.624  0.00  0.00    -0.646 OA
BRANCH  13  15
ATOM     15  O   UNL d   1      57.835  -0.668  29.884  0.00  0.00    -0.773 OA
ATOM     16  H   UNL d   1      57.186  -1.091  29.656  0.00  0.00     0.167 HD
ENDBRANCH  13  15
ENDBRANCH  12  13
ENDBRANCH  11  12
ENDBRANCH   8  11
ENDBRANCH   3   7
BRANCH   1  17
ATOM     17  C   UNL d   1      55.733  -1.697  33.157  0.00  0.00     0.178 C 
ATOM     18  O   UNL d   1      55.083  -2.006  32.745  0.00  0.00    -0.646 OA
BRANCH  17  19
ATOM     19  O   UNL d   1      56.170  -2.169  33.653  0.00  0.00    -0.773 OA
ATOM     20  H   UNL d   1      56.022  -2.980  33.709  0.00  0.00     0.167 HD
ENDBRANCH  17  19
ENDBRANCH   1  17
TORSDOF 7
ENDMDL
MODEL 3
REMARK VINA RESULT:      -3.0      8.749      9.978
REMARK  7 active torsions:
REMARK  status: ('A' for Active; 'I' for Inactive)
REMARK    1  A    between atoms: C_2  and  C_1 
REMARK    2  A    between atoms: O_12  and  C_1 
REMARK       I    between atoms: C_3  and  N_4 
REMARK    3  A    between atoms: C_11  and  C_3 
REMARK    4  A    between atoms: N_4  and  C_7 
REMARK    5  A    between atoms: C_5  and  C_13 
REMARK    6  A    between atoms: O_14  and  C_5 
REMARK    7  A    between atoms: C_13  and  C_11 
ROOT
ATOM      1  C   UNL d   1      59.893  -9.660  33.005  0.00  0.00     0.063 A 
ATOM      2  C   UNL d   1      59.495  -9.763  33.719  0.00  0.00     0.023 A 
ATOM      3  C   UNL d   1      59.889  -9.709  34.442  0.00  0.00     0.059 A 
ATOM      4  C   UNL d   1      60.715  -9.496  33.008  0.00  0.00     0.006 A 
ATOM      5  C   UNL d   1      61.112  -9.441  33.736  0.00  0.00     0.002 A 
ATOM      6  C   UNL d   1      60.691  -9.549  34.444  0.00  0.00     0.017 A 
ENDROOT
BRANCH   3   7
ATOM      7  N   UNL d   1      59.472  -9.817  35.168  0.00  0.00    -0.321 N 
ATOM      8  C   UNL d   1      59.257  -9.158  35.614  0.00  0.00     0.258 C 
ATOM      9  O   UNL d   1      58.846  -9.263  36.329  0.00  0.00    -0.267 OA
ATOM     10  H   UNL d   1      59.287 -10.582  35.420  0.00  0.00     0.169 HD
BRANCH   8  11
ATOM     11  C   UNL d   1      59.437  -8.387  35.372  0.00  0.00     0.067 C 
BRANCH  11  12
ATOM     12  C   UNL d   1      59.247  -7.738  35.823  0.00  0.00     0.072 C 
BRANCH  12  13
ATOM     13  C   UNL d   1      59.437  -6.987  35.561  0.00  0.00     0.178 C 
ATOM     14  O   UNL d   1      58.865  -6.550  35.157  0.00  0.00    -0.646 OA
BRANCH  13  15
ATOM     15  O   UNL d   1      60.178  -6.673  35.694  0.00  0.00    -0.773 OA
ATOM     16  H   UNL d   1      60.489  -6.665  36.438  0.00  0.00     0.167 HD
ENDBRANCH  13  15
ENDBRANCH  12  13
ENDBRANCH  11  12
ENDBRANCH   8  11
ENDBRANCH   3   7
BRANCH   1  17
ATOM     17  C   UNL d   1      59.485  -9.717  32.290  0.00  0.00     0.178 C 
ATOM     18  O   UNL d   1      59.911  -9.693  31.579  0.00  0.00    -0.646 OA
BRANCH  17  19
ATOM     19  O   UNL d   1      58.676  -9.797  32.286  0.00  0.00    -0.773 OA
ATOM     20  H   UNL d   1      58.187  -9.184  32.548  0.00  0.00     0.167 HD
ENDBRANCH  17  19
ENDBRANCH   1  17
TORSDOF 7
ENDMDL
MODEL 4
REMARK VINA RESULT:      -2.8      1.523      3.752
REMARK  7 active torsions:
REMARK  status: ('A' for Active; 'I' for Inactive)
REMARK    1  A    between atoms: C_2  and  C_1 
REMARK    2  A    between atoms: O_12  and  C_1 
REMARK       I    between atoms: C_3  and  N_4 
REMARK    3  A    between atoms: C_11  and  C_3 
REMARK    4  A    between atoms: N_4  and  C_7 
REMARK    5  A    between atoms: C_5  and  C_13 
REMARK    6  A    between atoms: O_14  and  C_5 
REMARK    7  A    between atoms: C_13  and  C_11 
ROOT
ATOM      1  C   UNL d   1      59.464  -2.365  28.897  0.00  0.00     0.063 A 
ATOM      2  C   UNL d   1      58.977  -1.747  28.651  0.00  0.00     0.023 A 
ATOM      3  C   UNL d   1      59.219  -0.960  28.709  0.00  0.00     0.059 A 
ATOM      4  C   UNL d   1      60.222  -2.195  29.212  0.00  0.00     0.006 A 
ATOM      5  C   UNL d   1      60.465  -1.403  29.271  0.00  0.00     0.002 A 
ATOM      6  C   UNL d   1      59.958  -0.796  29.018  0.00  0.00     0.017 A 
ENDROOT
BRANCH   3   7
ATOM      7  N   UNL d   1      58.712  -0.334  28.455  0.00  0.00    -0.321 N 
ATOM      8  C   UNL d   1      58.244   0.058  29.009  0.00  0.00     0.258 C 
ATOM      9  O   UNL d   1      57.745   0.675  28.758  0.00  0.00    -0.267 OA
ATOM     10  H   UNL d   1      58.693  -0.126  27.655  0.00  0.00     0.169 HD
BRANCH   8  11
ATOM     11  C   UNL d   1      58.254  -0.141  29.811  0.00  0.00     0.067 C 
BRANCH  11  12
ATOM     12  C   UNL d   1      57.792   0.245  30.357  0.00  0.00     0.072 C 
BRANCH  12  13
ATOM     13  C   UNL d   1      57.717  -0.053  31.115  0.00  0.00     0.178 C 
ATOM     14  O   UNL d   1      58.109   0.328  31.733  0.00  0.00    -0.646 OA
BRANCH  13  15
ATOM     15  O   UNL d   1      57.264  -0.715  31.260  0.00  0.00    -0.773 OA
ATOM     16  H   UNL d   1      57.201  -1.010  32.009  0.00  0.00     0.167 HD
ENDBRANCH  13  15
ENDBRANCH  12  13
ENDBRANCH  11  12
ENDBRANCH   8  11
ENDBRANCH   3   7
BRANCH   1  17
ATOM     17  C   UNL d   1      59.207  -3.146  28.832  0.00  0.00     0.178 C 
ATOM     18  O   UNL d   1      59.736  -3.723  28.558  0.00  0.00    -0.646 OA
BRANCH  17  19
ATOM     19  O   UNL d   1      58.446  -3.345  29.034  0.00  0.00    -0.773 OA
ATOM     20  H   UNL d   1      58.294  -3.897  29.630  0.00  0.00     0.167 HD
ENDBRANCH  17  19
ENDBRANCH   1  17
TORSDOF 7
ENDMDL
MODEL 5
REMARK VINA RESULT:      -2.6      0.963      3.481
REMARK  7 active torsions:
REMARK  status: ('A' for Active; 'I' for Inactive)
REMARK    1  A    between atoms: C_2  and  C_1 
REMARK    2  A    between atoms: O_12  and  C_1 
REMARK       I    between atoms: C_3  and  N_4 
REMARK    3  A    between atoms: C_11  and  C_3 
REMARK    4  A    between atoms: N_4  and  C_7 
REMARK    5  A    between atoms: C_5  and  C_13 
REMARK    6  A    between atoms: O_14  and  C_5 
REMARK    7  A    between atoms: C_13  and  C_11 
ROOT
ATOM      1  C   UNL d   1      58.668  -0.574  29.630  0.00  0.00     0.063 A 
ATOM      2  C   UNL d   1      58.791  -0.285  30.392  0.00  0.00     0.023 A 
ATOM      3  C   UNL d   1      58.345   0.342  30.690  0.00  0.00     0.059 A 
ATOM      4  C   UNL d   1      58.080  -0.228  29.145  0.00  0.00     0.006 A 
ATOM      5  C   UNL d   1      57.631   0.404  29.445  0.00  0.00     0.002 A 
ATOM      6  C   UNL d   1      57.771   0.679  30.215  0.00  0.00     0.017 A 
ENDROOT
BRANCH   3   7
ATOM      7  N   UNL d   1      58.478   0.631  31.473  0.00  0.00    -0.321 N 
ATOM      8  C   UNL d   1      57.975   0.397  32.082  0.00  0.00     0.258 C 
ATOM      9  O   UNL d   1      58.107   0.682  32.853  0.00  0.00    -0.267 OA
ATOM     10  H   UNL d   1      59.112   1.144  31.614  0.00  0.00     0.169 HD
BRANCH   8  11
ATOM     11  C   UNL d   1      57.339  -0.115  31.953  0.00  0.00     0.067 C 
BRANCH  11  12
ATOM     12  C   UNL d   1      56.934  -0.462  32.567  0.00  0.00     0.072 C 
BRANCH  12  13
ATOM     13  C   UNL d   1      56.216  -0.829  32.428  0.00  0.00     0.178 C 
ATOM     14  O   UNL d   1      56.212  -1.596  32.125  0.00  0.00    -0.646 OA
BRANCH  13  15
ATOM     15  O   UNL d   1      55.514  -0.445  32.586  0.00  0.00    -0.773 OA
ATOM     16  H   UNL d   1      55.010  -0.253  31.986  0.00  0.00     0.167 HD
ENDBRANCH  13  15
ENDBRANCH  12  13
ENDBRANCH  11  12
ENDBRANCH   8  11
ENDBRANCH   3   7
BRANCH   1  17
ATOM     17  C   UNL d   1      59.123  -1.202  29.347  0.00  0.00     0.178 C 
ATOM     18  O   UNL d   1      58.810  -1.970  29.373  0.00  0.00    -0.646 OA
BRANCH  17  19
ATOM     19  O   UNL d   1      59.865  -1.067  29.047  0.00  0.00    -0.773 OA
ATOM     20  H   UNL d   1      60.147  -1.496  28.400  0.00  0.00     0.167 HD
ENDBRANCH  17  19
ENDBRANCH   1  17
TORSDOF 7
ENDMDL
MODEL 6
REMARK VINA RESULT:      -2.5      1.954      2.924
REMARK  7 active torsions:
REMARK  status: ('A' for Active; 'I' for Inactive)
REMARK    1  A    between atoms: C_2  and  C_1 
REMARK    2  A    between atoms: O_12  and  C_1 
REMARK       I    between atoms: C_3  and  N_4 
REMARK    3  A    between atoms: C_11  and  C_3 
REMARK    4  A    between atoms: N_4  and  C_7 
REMARK    5  A    between atoms: C_5  and  C_13 
REMARK    6  A    between atoms: O_14  and  C_5 
REMARK    7  A    between atoms: C_13  and  C_11 
ROOT
ATOM      1  C   UNL d   1      55.914   0.309  34.324  0.00  0.00     0.063 A 
ATOM      2  C   UNL d   1      56.224  -0.286  33.845  0.00  0.00     0.023 A 
ATOM      3  C   UNL d   1      55.838  -0.530  33.158  0.00  0.00     0.059 A 
ATOM      4  C   UNL d   1      55.191   0.677  34.112  0.00  0.00     0.006 A 
ATOM      5  C   UNL d   1      54.802   0.431  33.421  0.00  0.00     0.002 A 
ATOM      6  C   UNL d   1      55.132  -0.171  32.953  0.00  0.00     0.017 A 
ENDROOT
BRANCH   3   7
ATOM      7  N   UNL d   1      56.164  -1.141  32.675  0.00  0.00    -0.321 N 
ATOM      8  C   UNL d   1      56.684  -0.942  32.067  0.00  0.00     0.258 C 
ATOM      9  O   UNL d   1      57.005  -1.543  31.590  0.00  0.00    -0.267 OA
ATOM     10  H   UNL d   1      55.957  -1.928  32.820  0.00  0.00     0.169 HD
BRANCH   8  11
ATOM     11  C   UNL d   1      56.898  -0.158  31.912  0.00  0.00     0.067 C 
BRANCH  11  12
ATOM     12  C   UNL d   1      57.172   0.079  31.184  0.00  0.00     0.072 C 
BRANCH  12  13
ATOM     13  C   UNL d   1      57.894   0.457  31.121  0.00  0.00     0.178 C 
ATOM     14  O   UNL d   1      58.195   0.619  30.370  0.00  0.00    -0.646 OA
BRANCH  13  15
ATOM     15  O   UNL d   1      58.312   0.672  31.788  0.00  0.00    -0.773 OA
ATOM     16  H   UNL d   1      59.116   0.740  31.760  0.00  0.00     0.167 HD
ENDBRANCH  13  15
ENDBRANCH  12  13
ENDBRANCH  11  12
ENDBRANCH   8  11
ENDBRANCH   3   7
BRANCH   1  17
ATOM     17  C   UNL d   1      56.313   0.542  35.008  0.00  0.00     0.178 C 
ATOM     18  O   UNL d   1      55.881   0.666  35.704  0.00  0.00    -0.646 OA
BRANCH  17  19
ATOM     19  O   UNL d   1      57.119   0.646  34.996  0.00  0.00    -0.773 OA
ATOM     20  H   UNL d   1      57.546   0.583  34.292  0.00  0.00     0.167 HD
ENDBRANCH  17  19
ENDBRANCH   1  17
TORSDOF 7
ENDMDL
