MODEL 1
REMARK VINA RESULT:     -11.0      0.000      0.000
REMARK  2 active torsions:
REMARK  status: ('A' for Active; 'I' for Inactive)
REMARK    1  A    between atoms: C_9  and  C_2 
REMARK    2  A    between atoms: C_12  and  C_7 
ROOT
ATOM      1  N   UNL d   1      53.130  33.543  53.961  0.00  0.00    -0.186 N 
ATOM      2  C   UNL d   1      52.746  34.237  53.715  0.00  0.00     0.187 A 
ATOM      3  N   UNL d   1      53.041  32.764  53.732  0.00  0.00    -0.162 NA
ATOM      4  C   UNL d   1      53.684  33.752  54.539  0.00  0.00     0.217 A 
ATOM      5  N   UNL d   1      53.065  34.864  54.141  0.00  0.00    -0.127 NA
ATOM      6  N   UNL d   1      53.644  34.565  54.650  0.00  0.00    -0.120 NA
ATOM      7  C   UNL d   1      53.506  32.171  54.076  0.00  0.00     0.108 A 
ATOM      8  S   UNL d   1      54.150  33.167  54.886  0.00  0.00    -0.045 SA
ATOM      9  C   UNL d   1      54.062  32.374  54.655  0.00  0.00     0.059 A 
ENDROOT
BRANCH   2  10
ATOM     10  C   UNL d   1      52.147  34.280  53.139  0.00  0.00     0.038 A 
ATOM     11  C   UNL d   1      51.355  34.266  53.373  0.00  0.00     0.003 A 
ATOM     12  C   UNL d   1      50.762  34.308  52.813  0.00  0.00     0.000 A 
ATOM     13  C   UNL d   1      49.978  34.294  53.050  0.00  0.00     0.000 C 
ATOM     14  C   UNL d   1      50.967  34.365  52.016  0.00  0.00     0.000 A 
ATOM     15  C   UNL d   1      51.754  34.379  51.781  0.00  0.00     0.000 A 
ATOM     16  C   UNL d   1      52.344  34.336  52.348  0.00  0.00     0.003 A 
ENDBRANCH   2  10
BRANCH   7  17
ATOM     17  C   UNL d   1      53.419  31.385  53.847  0.00  0.00     0.020 A 
ATOM     18  C   UNL d   1      53.410  31.186  53.044  0.00  0.00     0.002 A 
ATOM     19  C   UNL d   1      53.323  30.395  52.823  0.00  0.00     0.000 A 
ATOM     20  C   UNL d   1      53.247  29.809  53.391  0.00  0.00     0.000 A 
ATOM     21  C   UNL d   1      53.256  30.008  54.195  0.00  0.00     0.000 A 
ATOM     22  C   UNL d   1      53.344  30.802  54.425  0.00  0.00     0.002 A 
ENDBRANCH   7  17
TORSDOF 2
ENDMDL
MODEL 2
REMARK VINA RESULT:     -10.8      0.731      3.639
REMARK  2 active torsions:
REMARK  status: ('A' for Active; 'I' for Inactive)
REMARK    1  A    between atoms: C_9  and  C_2 
REMARK    2  A    between atoms: C_12  and  C_7 
ROOT
ATOM      1  N   UNL d   1      53.346  33.017  54.135  0.00  0.00    -0.186 N 
ATOM      2  C   UNL d   1      53.812  32.345  54.279  0.00  0.00     0.187 A 
ATOM      3  N   UNL d   1      52.692  33.131  53.657  0.00  0.00    -0.162 NA
ATOM      4  C   UNL d   1      53.652  33.640  54.585  0.00  0.00     0.217 A 
ATOM      5  N   UNL d   1      54.399  32.560  54.814  0.00  0.00    -0.127 NA
ATOM      6  N   UNL d   1      54.300  33.359  55.003  0.00  0.00    -0.120 NA
ATOM      7  C   UNL d   1      52.327  33.873  53.617  0.00  0.00     0.108 A 
ATOM      8  S   UNL d   1      53.294  34.382  54.550  0.00  0.00    -0.045 SA
ATOM      9  C   UNL d   1      52.630  34.500  54.065  0.00  0.00     0.059 A 
ENDROOT
BRANCH   2  10
ATOM     10  C   UNL d   1      53.699  31.595  53.939  0.00  0.00     0.038 A 
ATOM     11  C   UNL d   1      53.394  30.981  54.398  0.00  0.00     0.003 A 
ATOM     12  C   UNL d   1      53.280  30.241  54.071  0.00  0.00     0.000 A 
ATOM     13  C   UNL d   1      52.977  29.636  54.530  0.00  0.00     0.000 C 
ATOM     14  C   UNL d   1      53.473  30.121  53.277  0.00  0.00     0.000 A 
ATOM     15  C   UNL d   1      53.777  30.731  52.818  0.00  0.00     0.000 A 
ATOM     16  C   UNL d   1      53.889  31.470  53.154  0.00  0.00     0.003 A 
ENDBRANCH   2  10
BRANCH   7  17
ATOM     17  C   UNL d   1      51.669  33.992  53.136  0.00  0.00     0.020 A 
ATOM     18  C   UNL d   1      50.909  33.870  53.439  0.00  0.00     0.002 A 
ATOM     19  C   UNL d   1      50.254  33.991  52.951  0.00  0.00     0.000 A 
ATOM     20  C   UNL d   1      50.351  34.230  52.173  0.00  0.00     0.000 A 
ATOM     21  C   UNL d   1      51.113  34.352  51.870  0.00  0.00     0.000 A 
ATOM     22  C   UNL d   1      51.777  34.232  52.356  0.00  0.00     0.002 A 
ENDBRANCH   7  17
TORSDOF 2
ENDMDL
MODEL 3
REMARK VINA RESULT:     -10.5      1.397      3.860
REMARK  2 active torsions:
REMARK  status: ('A' for Active; 'I' for Inactive)
REMARK    1  A    between atoms: C_9  and  C_2 
REMARK    2  A    between atoms: C_12  and  C_7 
ROOT
ATOM      1  N   UNL d   1      53.240  32.081  53.644  0.00  0.00    -0.186 N 
ATOM      2  C   UNL d   1      53.931  32.005  54.097  0.00  0.00     0.187 A 
ATOM      3  N   UNL d   1      52.746  32.719  53.511  0.00  0.00    -0.162 NA
ATOM      4  C   UNL d   1      53.082  31.347  53.296  0.00  0.00     0.217 A 
ATOM      5  N   UNL d   1      54.193  31.228  54.024  0.00  0.00    -0.127 NA
ATOM      6  N   UNL d   1      53.669  30.822  53.529  0.00  0.00    -0.120 NA
ATOM      7  C   UNL d   1      52.081  32.639  53.025  0.00  0.00     0.108 A 
ATOM      8  S   UNL d   1      52.421  31.260  52.810  0.00  0.00    -0.045 SA
ATOM      9  C   UNL d   1      51.918  31.907  52.674  0.00  0.00     0.059 A 
ENDROOT
BRANCH   2  10
ATOM     10  C   UNL d   1      54.288  32.610  54.541  0.00  0.00     0.038 A 
ATOM     11  C   UNL d   1      54.890  33.064  54.203  0.00  0.00     0.003 A 
ATOM     12  C   UNL d   1      55.245  33.660  54.634  0.00  0.00     0.000 A 
ATOM     13  C   UNL d   1      55.841  34.107  54.295  0.00  0.00     0.000 C 
ATOM     14  C   UNL d   1      54.992  33.800  55.407  0.00  0.00     0.000 A 
ATOM     15  C   UNL d   1      54.393  33.350  55.745  0.00  0.00     0.000 A 
ATOM     16  C   UNL d   1      54.042  32.753  55.307  0.00  0.00     0.003 A 
ENDBRANCH   2  10
BRANCH   7  17
ATOM     17  C   UNL d   1      51.581  33.279  52.888  0.00  0.00     0.020 A 
ATOM     18  C   UNL d   1      51.780  33.844  52.318  0.00  0.00     0.002 A 
ATOM     19  C   UNL d   1      51.274  34.483  52.187  0.00  0.00     0.000 A 
ATOM     20  C   UNL d   1      50.580  34.562  52.616  0.00  0.00     0.000 A 
ATOM     21  C   UNL d   1      50.381  33.995  53.188  0.00  0.00     0.000 A 
ATOM     22  C   UNL d   1      50.886  33.349  53.325  0.00  0.00     0.002 A 
ENDBRANCH   7  17
TORSDOF 2
ENDMDL
MODEL 4
REMARK VINA RESULT:     -10.3      1.289      2.593
REMARK  2 active torsions:
REMARK  status: ('A' for Active; 'I' for Inactive)
REMARK    1  A    between atoms: C_9  and  C_2 
REMARK    2  A    between atoms: C_12  and  C_7 
ROOT
ATOM      1  N   UNL d   1      52.845  32.268  53.243  0.00  0.00    -0.186 N 
ATOM      2  C   UNL d   1      52.164  32.406  52.787  0.00  0.00     0.187 A 
ATOM      3  N   UNL d   1      53.304  32.770  53.696  0.00  0.00    -0.162 NA
ATOM      4  C   UNL d   1      53.033  31.465  53.182  0.00  0.00     0.217 A 
ATOM      5  N   UNL d   1      51.940  31.689  52.451  0.00  0.00    -0.127 NA
ATOM      6  N   UNL d   1      52.476  31.108  52.694  0.00  0.00    -0.120 NA
ATOM      7  C   UNL d   1      53.966  32.480  54.101  0.00  0.00     0.108 A 
ATOM      8  S   UNL d   1      53.690  31.168  53.582  0.00  0.00    -0.045 SA
ATOM      9  C   UNL d   1      54.158  31.676  54.044  0.00  0.00     0.059 A 
ENDROOT
BRANCH   2  10
ATOM     10  C   UNL d   1      51.785  33.140  52.693  0.00  0.00     0.038 A 
ATOM     11  C   UNL d   1      51.127  33.321  53.158  0.00  0.00     0.003 A 
ATOM     12  C   UNL d   1      50.750  34.040  53.071  0.00  0.00     0.000 A 
ATOM     13  C   UNL d   1      50.098  34.215  53.534  0.00  0.00     0.000 C 
ATOM     14  C   UNL d   1      51.036  34.578  52.515  0.00  0.00     0.000 A 
ATOM     15  C   UNL d   1      51.691  34.400  52.051  0.00  0.00     0.000 A 
ATOM     16  C   UNL d   1      52.065  33.677  52.144  0.00  0.00     0.003 A 
ENDBRANCH   2  10
BRANCH   7  17
ATOM     17  C   UNL d   1      54.431  32.982  54.559  0.00  0.00     0.020 A 
ATOM     18  C   UNL d   1      54.259  33.089  55.361  0.00  0.00     0.002 A 
ATOM     19  C   UNL d   1      54.730  33.594  55.813  0.00  0.00     0.000 A 
ATOM     20  C   UNL d   1      55.364  33.988  55.474  0.00  0.00     0.000 A 
ATOM     21  C   UNL d   1      55.537  33.880  54.671  0.00  0.00     0.000 A 
ATOM     22  C   UNL d   1      55.066  33.373  54.210  0.00  0.00     0.002 A 
ENDBRANCH   7  17
TORSDOF 2
ENDMDL
MODEL 5
REMARK VINA RESULT:      -9.3      1.625      3.857
REMARK  2 active torsions:
REMARK  status: ('A' for Active; 'I' for Inactive)
REMARK    1  A    between atoms: C_9  and  C_2 
REMARK    2  A    between atoms: C_12  and  C_7 
ROOT
ATOM      1  N   UNL d   1      52.909  32.131  53.352  0.00  0.00    -0.186 N 
ATOM      2  C   UNL d   1      52.668  31.379  53.095  0.00  0.00     0.187 A 
ATOM      3  N   UNL d   1      53.525  32.368  53.835  0.00  0.00    -0.162 NA
ATOM      4  C   UNL d   1      52.392  32.688  53.025  0.00  0.00     0.217 A 
ATOM      5  N   UNL d   1      52.008  31.479  52.615  0.00  0.00    -0.127 NA
ATOM      6  N   UNL d   1      51.837  32.287  52.572  0.00  0.00    -0.120 NA
ATOM      7  C   UNL d   1      53.640  33.170  54.003  0.00  0.00     0.108 A 
ATOM      8  S   UNL d   1      52.500  33.489  53.188  0.00  0.00    -0.045 SA
ATOM      9  C   UNL d   1      53.126  33.732  53.679  0.00  0.00     0.059 A 
ENDROOT
BRANCH   2  10
ATOM     10  C   UNL d   1      53.035  30.659  53.294  0.00  0.00     0.038 A 
ATOM     11  C   UNL d   1      52.823  30.273  53.992  0.00  0.00     0.003 A 
ATOM     12  C   UNL d   1      53.179  29.566  54.193  0.00  0.00     0.000 A 
ATOM     13  C   UNL d   1      52.966  29.187  54.886  0.00  0.00     0.000 C 
ATOM     14  C   UNL d   1      53.750  29.248  53.689  0.00  0.00     0.000 A 
ATOM     15  C   UNL d   1      53.962  29.631  52.994  0.00  0.00     0.000 A 
ATOM     16  C   UNL d   1      53.601  30.340  52.798  0.00  0.00     0.003 A 
ENDBRANCH   2  10
BRANCH   7  17
ATOM     17  C   UNL d   1      54.259  33.413  54.489  0.00  0.00     0.020 A 
ATOM     18  C   UNL d   1      54.995  33.598  54.159  0.00  0.00     0.002 A 
ATOM     19  C   UNL d   1      55.611  33.840  54.652  0.00  0.00     0.000 A 
ATOM     20  C   UNL d   1      55.499  33.898  55.462  0.00  0.00     0.000 A 
ATOM     21  C   UNL d   1      54.762  33.713  55.792  0.00  0.00     0.000 A 
ATOM     22  C   UNL d   1      54.137  33.468  55.301  0.00  0.00     0.002 A 
ENDBRANCH   7  17
TORSDOF 2
ENDMDL
MODEL 6
REMARK VINA RESULT:      -9.1      1.956      2.992
REMARK  2 active torsions:
REMARK  status: ('A' for Active; 'I' for Inactive)
REMARK    1  A    between atoms: C_9  and  C_2 
REMARK    2  A    between atoms: C_12  and  C_7 
ROOT
ATOM      1  N   UNL d   1      53.174  32.007  53.389  0.00  0.00    -0.186 N 
ATOM      2  C   UNL d   1      53.466  32.784  53.421  0.00  0.00     0.187 A 
ATOM      3  N   UNL d   1      53.403  31.325  53.778  0.00  0.00    -0.162 NA
ATOM      4  C   UNL d   1      52.545  31.995  52.852  0.00  0.00     0.217 A 
ATOM      5  N   UNL d   1      53.017  33.241  52.906  0.00  0.00    -0.127 NA
ATOM      6  N   UNL d   1      52.448  32.754  52.554  0.00  0.00    -0.120 NA
ATOM      7  C   UNL d   1      53.006  30.612  53.639  0.00  0.00     0.108 A 
ATOM      8  S   UNL d   1      52.145  31.288  52.708  0.00  0.00    -0.045 SA
ATOM      9  C   UNL d   1      52.376  30.594  53.103  0.00  0.00     0.059 A 
ENDROOT
BRANCH   2  10
ATOM     10  C   UNL d   1      54.100  33.043  53.893  0.00  0.00     0.038 A 
ATOM     11  C   UNL d   1      53.963  33.263  54.676  0.00  0.00     0.003 A 
ATOM     12  C   UNL d   1      54.580  33.519  55.145  0.00  0.00     0.000 A 
ATOM     13  C   UNL d   1      54.439  33.736  55.921  0.00  0.00     0.000 C 
ATOM     14  C   UNL d   1      55.340  33.553  54.823  0.00  0.00     0.000 A 
ATOM     15  C   UNL d   1      55.479  33.334  54.043  0.00  0.00     0.000 A 
ATOM     16  C   UNL d   1      54.854  33.079  53.579  0.00  0.00     0.003 A 
ENDBRANCH   2  10
BRANCH   7  17
ATOM     17  C   UNL d   1      53.233  29.923  54.029  0.00  0.00     0.020 A 
ATOM     18  C   UNL d   1      52.950  29.766  54.790  0.00  0.00     0.002 A 
ATOM     19  C   UNL d   1      53.182  29.073  55.174  0.00  0.00     0.000 A 
ATOM     20  C   UNL d   1      53.689  28.543  54.809  0.00  0.00     0.000 A 
ATOM     21  C   UNL d   1      53.973  28.700  54.047  0.00  0.00     0.000 A 
ATOM     22  C   UNL d   1      53.743  29.396  53.654  0.00  0.00     0.002 A 
ENDBRANCH   7  17
TORSDOF 2
ENDMDL
MODEL 7
REMARK VINA RESULT:      -8.7      1.413      2.810
REMARK  2 active torsions:
REMARK  status: ('A' for Active; 'I' for Inactive)
REMARK    1  A    between atoms: C_9  and  C_2 
REMARK    2  A    between atoms: C_12  and  C_7 
ROOT
ATOM      1  N   UNL d   1      52.992  32.968  53.476  0.00  0.00    -0.186 N 
ATOM      2  C   UNL d   1      53.396  33.654  53.714  0.00  0.00     0.187 A 
ATOM      3  N   UNL d   1      53.174  32.175  53.559  0.00  0.00    -0.162 NA
ATOM      4  C   UNL d   1      52.295  33.203  53.098  0.00  0.00     0.217 A 
ATOM      5  N   UNL d   1      52.947  34.302  53.480  0.00  0.00    -0.127 NA
ATOM      6  N   UNL d   1      52.267  34.024  53.100  0.00  0.00    -0.120 NA
ATOM      7  C   UNL d   1      52.661  31.596  53.265  0.00  0.00     0.108 A 
ATOM      8  S   UNL d   1      51.779  32.632  52.801  0.00  0.00    -0.045 SA
ATOM      9  C   UNL d   1      51.962  31.825  52.885  0.00  0.00     0.059 A 
ENDROOT
BRANCH   2  10
ATOM     10  C   UNL d   1      54.124  33.672  54.115  0.00  0.00     0.038 A 
ATOM     11  C   UNL d   1      54.135  33.695  54.940  0.00  0.00     0.003 A 
ATOM     12  C   UNL d   1      54.846  33.713  55.341  0.00  0.00     0.000 A 
ATOM     13  C   UNL d   1      54.851  33.736  56.159  0.00  0.00     0.000 C 
ATOM     14  C   UNL d   1      55.549  33.707  54.909  0.00  0.00     0.000 A 
ATOM     15  C   UNL d   1      55.541  33.683  54.087  0.00  0.00     0.000 A 
ATOM     16  C   UNL d   1      54.824  33.666  53.692  0.00  0.00     0.003 A 
ENDBRANCH   2  10
BRANCH   7  17
ATOM     17  C   UNL d   1      52.841  30.796  53.346  0.00  0.00     0.020 A 
ATOM     18  C   UNL d   1      53.003  30.483  54.094  0.00  0.00     0.002 A 
ATOM     19  C   UNL d   1      53.182  29.681  54.168  0.00  0.00     0.000 A 
ATOM     20  C   UNL d   1      53.200  29.195  53.508  0.00  0.00     0.000 A 
ATOM     21  C   UNL d   1      53.036  29.508  52.759  0.00  0.00     0.000 A 
ATOM     22  C   UNL d   1      52.855  30.316  52.677  0.00  0.00     0.002 A 
ENDBRANCH   7  17
TORSDOF 2
ENDMDL
