MODEL 1
REMARK VINA RESULT:      -2.4      0.000      0.000
REMARK  8 active torsions:
REMARK  status: ('A' for Active; 'I' for Inactive)
REMARK    1  A    between atoms: N_6  and  C_1 
REMARK    2  A    between atoms: N_2  and  C_3 
REMARK       I    between atoms: C_4  and  N_2 
REMARK    3  A    between atoms: C_3  and  N_6 
REMARK    4  A    between atoms: C_10  and  C_4 
REMARK    5  A    between atoms: C_9  and  C_7 
REMARK    6  A    between atoms: C_12  and  C_9 
REMARK    7  A    between atoms: O_17  and  C_12 
REMARK    8  A    between atoms: C_21  and  O_17 
ROOT
ATOM      1  C   UNL d   1      32.770  18.786 -23.608  0.00  0.00     0.225 C 
ATOM      2  S   UNL d   1      32.978  19.246 -24.262  0.00  0.00    -0.037 SA
ENDROOT
BRANCH   1   3
ATOM      3  N   UNL d   1      32.095  18.259 -23.646  0.00  0.00    -0.179 NA
ATOM      4  C   UNL d   1      32.000  17.766 -24.318  0.00  0.00     0.281 C 
ATOM      5  O   UNL d   1      32.576  17.798 -24.949  0.00  0.00    -0.265 OA
BRANCH   4   6
ATOM      6  C   UNL d   1      31.375  17.253 -24.393  0.00  0.00     0.058 A 
ATOM      7  C   UNL d   1      31.477  16.454 -24.380  0.00  0.00     0.005 A 
ATOM      8  C   UNL d   1      32.234  16.145 -24.288  0.00  0.00     0.000 C 
ATOM      9  C   UNL d   1      30.836  15.959 -24.457  0.00  0.00     0.000 A 
ATOM     10  C   UNL d   1      30.071  16.278 -24.550  0.00  0.00     0.000 A 
ATOM     11  C   UNL d   1      29.935  17.097 -24.567  0.00  0.00     0.000 A 
ATOM     12  C   UNL d   1      30.596  17.609 -24.488  0.00  0.00     0.005 A 
ENDBRANCH   4   6
ENDBRANCH   1   3
BRANCH   1  13
ATOM     13  N   UNL d   1      33.194  18.811 -22.901  0.00  0.00    -0.192 NA
BRANCH  13  14
ATOM     14  C   UNL d   1      33.203  19.533 -22.480  0.00  0.00     0.196 A 
ATOM     15  N   UNL d   1      33.223  20.327 -22.751  0.00  0.00    -0.220 NA
ATOM     16  C   UNL d   1      33.224  20.815 -22.103  0.00  0.00     0.095 A 
ATOM     17  C   UNL d   1      33.205  20.342 -21.401  0.00  0.00     0.058 A 
ATOM     18  S   UNL d   1      33.192  19.555 -21.656  0.00  0.00    -0.046 SA
BRANCH  16  19
ATOM     19  C   UNL d   1      33.241  21.640 -22.101  0.00  0.00     0.088 C 
BRANCH  19  20
ATOM     20  C   UNL d   1      32.640  22.082 -21.775  0.00  0.00     0.302 C 
ATOM     21  O   UNL d   1      31.856  21.951 -21.971  0.00  0.00    -0.259 OA
BRANCH  20  22
ATOM     22  O   UNL d   1      32.814  22.684 -21.228  0.00  0.00    -0.271 OA
BRANCH  22  23
ATOM     23  C   UNL d   1      32.186  23.254 -21.055  0.00  0.00     0.126 C 
ATOM     24  C   UNL d   1      32.105  23.466 -20.381  0.00  0.00     0.029 C 
ENDBRANCH  22  23
ENDBRANCH  20  22
ENDBRANCH  19  20
ENDBRANCH  16  19
ENDBRANCH  13  14
ENDBRANCH   1  13
TORSDOF 8
ENDMDL
MODEL 2
REMARK VINA RESULT:      -2.1      0.971      1.529
REMARK  8 active torsions:
REMARK  status: ('A' for Active; 'I' for Inactive)
REMARK    1  A    between atoms: N_6  and  C_1 
REMARK    2  A    between atoms: N_2  and  C_3 
REMARK       I    between atoms: C_4  and  N_2 
REMARK    3  A    between atoms: C_3  and  N_6 
REMARK    4  A    between atoms: C_10  and  C_4 
REMARK    5  A    between atoms: C_9  and  C_7 
REMARK    6  A    between atoms: C_12  and  C_9 
REMARK    7  A    between atoms: O_17  and  C_12 
REMARK    8  A    between atoms: C_21  and  O_17 
ROOT
ATOM      1  C   UNL d   1      32.767  19.344 -22.946  0.00  0.00     0.225 C 
ATOM      2  S   UNL d   1      33.239  19.785 -23.460  0.00  0.00    -0.037 SA
ENDROOT
BRANCH   1   3
ATOM      3  N   UNL d   1      32.799  18.487 -22.956  0.00  0.00    -0.179 NA
ATOM      4  C   UNL d   1      32.400  18.072 -23.565  0.00  0.00     0.281 C 
ATOM      5  O   UNL d   1      31.971  18.508 -24.162  0.00  0.00    -0.265 OA
BRANCH   4   6
ATOM      6  C   UNL d   1      32.405  17.261 -23.611  0.00  0.00     0.058 A 
ATOM      7  C   UNL d   1      31.897  16.858 -24.090  0.00  0.00     0.005 A 
ATOM      8  C   UNL d   1      31.357  17.278 -24.548  0.00  0.00     0.000 C 
ATOM      9  C   UNL d   1      31.920  16.046 -24.121  0.00  0.00     0.000 A 
ATOM     10  C   UNL d   1      32.470  15.626 -23.655  0.00  0.00     0.000 A 
ATOM     11  C   UNL d   1      33.006  16.014 -23.151  0.00  0.00     0.000 A 
ATOM     12  C   UNL d   1      32.983  16.852 -23.120  0.00  0.00     0.005 A 
ENDBRANCH   4   6
ENDBRANCH   1   3
BRANCH   1  13
ATOM     13  N   UNL d   1      32.253  19.699 -22.408  0.00  0.00    -0.192 NA
BRANCH  13  14
ATOM     14  C   UNL d   1      32.545  20.337 -21.956  0.00  0.00     0.196 A 
ATOM     15  N   UNL d   1      32.444  21.165 -22.044  0.00  0.00    -0.220 NA
ATOM     16  C   UNL d   1      32.852  21.535 -21.448  0.00  0.00     0.095 A 
ATOM     17  C   UNL d   1      33.224  20.949 -20.964  0.00  0.00     0.058 A 
ATOM     18  S   UNL d   1      33.023  20.218 -21.294  0.00  0.00    -0.046 SA
BRANCH  16  19
ATOM     19  C   UNL d   1      32.910  22.348 -21.314  0.00  0.00     0.088 C 
BRANCH  19  20
ATOM     20  C   UNL d   1      32.371  22.747 -20.853  0.00  0.00     0.302 C 
ATOM     21  O   UNL d   1      31.703  23.093 -21.176  0.00  0.00    -0.259 OA
BRANCH  20  22
ATOM     22  O   UNL d   1      32.491  22.812 -20.032  0.00  0.00    -0.271 OA
BRANCH  22  23
ATOM     23  C   UNL d   1      32.663  23.600 -19.719  0.00  0.00     0.126 C 
ATOM     24  C   UNL d   1      32.681  23.682 -19.013  0.00  0.00     0.029 C 
ENDBRANCH  22  23
ENDBRANCH  20  22
ENDBRANCH  19  20
ENDBRANCH  16  19
ENDBRANCH  13  14
ENDBRANCH   1  13
TORSDOF 8
ENDMDL
MODEL 3
REMARK VINA RESULT:      -1.8      1.126      1.523
REMARK  8 active torsions:
REMARK  status: ('A' for Active; 'I' for Inactive)
REMARK    1  A    between atoms: N_6  and  C_1 
REMARK    2  A    between atoms: N_2  and  C_3 
REMARK       I    between atoms: C_4  and  N_2 
REMARK    3  A    between atoms: C_3  and  N_6 
REMARK    4  A    between atoms: C_10  and  C_4 
REMARK    5  A    between atoms: C_9  and  C_7 
REMARK    6  A    between atoms: C_12  and  C_9 
REMARK    7  A    between atoms: O_17  and  C_12 
REMARK    8  A    between atoms: C_21  and  O_17 
ROOT
ATOM      1  C   UNL d   1      31.790  17.983 -23.887  0.00  0.00     0.225 C 
ATOM      2  S   UNL d   1      31.797  18.537 -24.499  0.00  0.00    -0.037 SA
ENDROOT
BRANCH   1   3
ATOM      3  N   UNL d   1      31.067  17.567 -23.688  0.00  0.00    -0.179 NA
ATOM      4  C   UNL d   1      30.650  17.163 -24.292  0.00  0.00     0.281 C 
ATOM      5  O   UNL d   1      30.950  17.175 -25.092  0.00  0.00    -0.265 OA
BRANCH   4   6
ATOM      6  C   UNL d   1      29.961  16.757 -24.146  0.00  0.00     0.058 A 
ATOM      7  C   UNL d   1      29.950  15.956 -24.060  0.00  0.00     0.005 A 
ATOM      8  C   UNL d   1      30.654  15.534 -24.123  0.00  0.00     0.000 C 
ATOM      9  C   UNL d   1      29.250  15.570 -23.914  0.00  0.00     0.000 A 
ATOM     10  C   UNL d   1      28.539  16.003 -23.851  0.00  0.00     0.000 A 
ATOM     11  C   UNL d   1      28.520  16.830 -23.935  0.00  0.00     0.000 A 
ATOM     12  C   UNL d   1      29.243  17.229 -24.086  0.00  0.00     0.005 A 
ENDBRANCH   4   6
ENDBRANCH   1   3
BRANCH   1  13
ATOM     13  N   UNL d   1      32.464  17.806 -23.446  0.00  0.00    -0.192 NA
BRANCH  13  14
ATOM     14  C   UNL d   1      32.729  18.378 -22.897  0.00  0.00     0.196 A 
ATOM     15  N   UNL d   1      32.761  19.214 -22.948  0.00  0.00    -0.220 NA
ATOM     16  C   UNL d   1      33.069  19.498 -22.252  0.00  0.00     0.095 A 
ATOM     17  C   UNL d   1      33.241  18.846 -21.741  0.00  0.00     0.058 A 
ATOM     18  S   UNL d   1      33.024  18.165 -22.157  0.00  0.00    -0.046 SA
BRANCH  16  19
ATOM     19  C   UNL d   1      33.202  20.288 -22.052  0.00  0.00     0.088 C 
BRANCH  19  20
ATOM     20  C   UNL d   1      32.865  20.627 -21.394  0.00  0.00     0.302 C 
ATOM     21  O   UNL d   1      32.806  20.223 -20.685  0.00  0.00    -0.259 OA
BRANCH  20  22
ATOM     22  O   UNL d   1      32.569  21.404 -21.430  0.00  0.00    -0.271 OA
BRANCH  22  23
ATOM     23  C   UNL d   1      32.111  21.685 -20.752  0.00  0.00     0.126 C 
ATOM     24  C   UNL d   1      32.340  22.265 -20.411  0.00  0.00     0.029 C 
ENDBRANCH  22  23
ENDBRANCH  20  22
ENDBRANCH  19  20
ENDBRANCH  16  19
ENDBRANCH  13  14
ENDBRANCH   1  13
TORSDOF 8
ENDMDL
MODEL 4
REMARK VINA RESULT:      -1.5      0.996      5.685
REMARK  8 active torsions:
REMARK  status: ('A' for Active; 'I' for Inactive)
REMARK    1  A    between atoms: N_6  and  C_1 
REMARK    2  A    between atoms: N_2  and  C_3 
REMARK       I    between atoms: C_4  and  N_2 
REMARK    3  A    between atoms: C_3  and  N_6 
REMARK    4  A    between atoms: C_10  and  C_4 
REMARK    5  A    between atoms: C_9  and  C_7 
REMARK    6  A    between atoms: C_12  and  C_9 
REMARK    7  A    between atoms: O_17  and  C_12 
REMARK    8  A    between atoms: C_21  and  O_17 
ROOT
ATOM      1  C   UNL d   1      33.096  20.330 -21.932  0.00  0.00     0.225 C 
ATOM      2  S   UNL d   1      33.241  19.617 -21.541  0.00  0.00    -0.037 SA
ENDROOT
BRANCH   1   3
ATOM      3  N   UNL d   1      33.241  21.077 -21.537  0.00  0.00    -0.179 NA
ATOM      4  C   UNL d   1      32.650  21.393 -21.032  0.00  0.00     0.281 C 
ATOM      5  O   UNL d   1      31.918  20.965 -20.921  0.00  0.00    -0.265 OA
BRANCH   4   6
ATOM      6  C   UNL d   1      32.748  22.097 -20.640  0.00  0.00     0.058 A 
ATOM      7  C   UNL d   1      32.523  22.800 -20.965  0.00  0.00     0.005 A 
ATOM      8  C   UNL d   1      32.184  22.807 -21.715  0.00  0.00     0.000 C 
ATOM      9  C   UNL d   1      32.630  23.493 -20.555  0.00  0.00     0.000 A 
ATOM     10  C   UNL d   1      32.974  23.479 -19.794  0.00  0.00     0.000 A 
ATOM     11  C   UNL d   1      33.216  22.771 -19.434  0.00  0.00     0.000 A 
ATOM     12  C   UNL d   1      33.105  22.055 -19.857  0.00  0.00     0.005 A 
ENDBRANCH   4   6
ENDBRANCH   1   3
BRANCH   1  13
ATOM     13  N   UNL d   1      32.810  20.357 -22.705  0.00  0.00    -0.192 NA
BRANCH  13  14
ATOM     14  C   UNL d   1      32.835  19.652 -23.152  0.00  0.00     0.196 A 
ATOM     15  N   UNL d   1      32.495  18.899 -23.009  0.00  0.00    -0.220 NA
ATOM     16  C   UNL d   1      32.693  18.410 -23.626  0.00  0.00     0.095 A 
ATOM     17  C   UNL d   1      33.165  18.843 -24.179  0.00  0.00     0.058 A 
ATOM     18  S   UNL d   1      33.240  19.606 -23.869  0.00  0.00    -0.046 SA
BRANCH  16  19
ATOM     19  C   UNL d   1      32.482  17.618 -23.722  0.00  0.00     0.088 C 
BRANCH  19  20
ATOM     20  C   UNL d   1      31.796  17.399 -24.101  0.00  0.00     0.302 C 
ATOM     21  O   UNL d   1      31.288  17.954 -24.424  0.00  0.00    -0.259 OA
BRANCH  20  22
ATOM     22  O   UNL d   1      31.595  16.595 -24.168  0.00  0.00    -0.271 OA
BRANCH  22  23
ATOM     23  C   UNL d   1      30.805  16.361 -23.903  0.00  0.00     0.126 C 
ATOM     24  C   UNL d   1      30.583  15.703 -24.054  0.00  0.00     0.029 C 
ENDBRANCH  22  23
ENDBRANCH  20  22
ENDBRANCH  19  20
ENDBRANCH  16  19
ENDBRANCH  13  14
ENDBRANCH   1  13
TORSDOF 8
ENDMDL
MODEL 5
REMARK VINA RESULT:      -0.4      1.653      5.321
REMARK  8 active torsions:
REMARK  status: ('A' for Active; 'I' for Inactive)
REMARK    1  A    between atoms: N_6  and  C_1 
REMARK    2  A    between atoms: N_2  and  C_3 
REMARK       I    between atoms: C_4  and  N_2 
REMARK    3  A    between atoms: C_3  and  N_6 
REMARK    4  A    between atoms: C_10  and  C_4 
REMARK    5  A    between atoms: C_9  and  C_7 
REMARK    6  A    between atoms: C_12  and  C_9 
REMARK    7  A    between atoms: O_17  and  C_12 
REMARK    8  A    between atoms: C_21  and  O_17 
ROOT
ATOM      1  C   UNL d   1      32.623  18.495 -23.813  0.00  0.00     0.225 C 
ATOM      2  S   UNL d   1      33.241  18.088 -24.181  0.00  0.00    -0.037 SA
ENDROOT
BRANCH   1   3
ATOM      3  N   UNL d   1      32.739  18.854 -23.043  0.00  0.00    -0.179 NA
ATOM      4  C   UNL d   1      32.887  19.678 -22.997  0.00  0.00     0.281 C 
ATOM      5  O   UNL d   1      32.919  20.142 -23.714  0.00  0.00    -0.265 OA
BRANCH   4   6
ATOM      6  C   UNL d   1      33.003  20.057 -22.288  0.00  0.00     0.058 A 
ATOM      7  C   UNL d   1      33.008  20.861 -22.231  0.00  0.00     0.005 A 
ATOM      8  C   UNL d   1      32.894  21.314 -22.909  0.00  0.00     0.000 C 
ATOM      9  C   UNL d   1      33.126  21.220 -21.511  0.00  0.00     0.000 A 
ATOM     10  C   UNL d   1      33.241  20.755 -20.827  0.00  0.00     0.000 A 
ATOM     11  C   UNL d   1      33.240  19.925 -20.855  0.00  0.00     0.000 A 
ATOM     12  C   UNL d   1      33.119  19.554 -21.598  0.00  0.00     0.005 A 
ENDBRANCH   4   6
ENDBRANCH   1   3
BRANCH   1  13
ATOM     13  N   UNL d   1      31.880  18.573 -24.161  0.00  0.00    -0.192 NA
BRANCH  13  14
ATOM     14  C   UNL d   1      31.493  17.876 -24.410  0.00  0.00     0.196 A 
ATOM     15  N   UNL d   1      30.677  17.700 -24.493  0.00  0.00    -0.220 NA
ATOM     16  C   UNL d   1      30.609  16.935 -24.756  0.00  0.00     0.095 A 
ATOM     17  C   UNL d   1      31.383  16.605 -24.847  0.00  0.00     0.058 A 
ATOM     18  S   UNL d   1      31.913  17.201 -24.628  0.00  0.00    -0.046 SA
BRANCH  16  19
ATOM     19  C   UNL d   1      29.911  16.524 -24.915  0.00  0.00     0.088 C 
BRANCH  19  20
ATOM     20  C   UNL d   1      29.456  16.201 -24.322  0.00  0.00     0.302 C 
ATOM     21  O   UNL d   1      29.779  15.711 -23.752  0.00  0.00    -0.259 OA
BRANCH  20  22
ATOM     22  O   UNL d   1      28.642  16.368 -24.284  0.00  0.00    -0.271 OA
BRANCH  22  23
ATOM     23  C   UNL d   1      28.236  16.181 -23.543  0.00  0.00     0.126 C 
ATOM     24  C   UNL d   1      27.872  16.701 -23.222  0.00  0.00     0.029 C 
ENDBRANCH  22  23
ENDBRANCH  20  22
ENDBRANCH  19  20
ENDBRANCH  16  19
ENDBRANCH  13  14
ENDBRANCH   1  13
TORSDOF 8
ENDMDL
