MODEL 1
REMARK VINA RESULT:      -6.7      0.000      0.000
REMARK  9 active torsions:
REMARK  status: ('A' for Active; 'I' for Inactive)
REMARK    1  A    between atoms: N_3  and  C_1 
REMARK       I    between atoms: C_7  and  N_3 
REMARK    2  A    between atoms: S_10  and  C_4 
REMARK    3  A    between atoms: C_9  and  C_7 
REMARK    4  A    between atoms: C_8  and  C_17 
REMARK       I    between atoms: N_12  and  C_8 
REMARK    5  A    between atoms: C_17  and  S_10 
REMARK    6  A    between atoms: C_18  and  N_12 
REMARK    7  A    between atoms: C_22  and  C_18 
REMARK    8  A    between atoms: O_23  and  C_19 
REMARK    9  A    between atoms: C_25  and  O_23 
ROOT
ATOM      1  C   UNL d   1     -44.394  12.958  21.839  0.00  0.00     0.219 A 
ATOM      2  S   UNL d   1     -43.764  13.322  21.453  0.00  0.00    -0.019 SA
ATOM      3  C   UNL d   1     -43.113  12.825  21.485  0.00  0.00     0.165 A 
ATOM      4  N   UNL d   1     -44.125  12.225  22.114  0.00  0.00    -0.120 NA
ATOM      5  N   UNL d   1     -43.335  12.143  21.895  0.00  0.00    -0.133 NA
ENDROOT
BRANCH   1   6
ATOM      6  N   UNL d   1     -45.156  13.272  21.934  0.00  0.00    -0.181 NA
ATOM      7  C   UNL d   1     -45.616  13.032  22.578  0.00  0.00     0.281 C 
ATOM      8  O   UNL d   1     -45.321  12.487  23.118  0.00  0.00    -0.265 OA
BRANCH   7   9
ATOM      9  C   UNL d   1     -46.376  13.343  22.675  0.00  0.00     0.058 A 
ATOM     10  C   UNL d   1     -46.470  14.146  22.830  0.00  0.00     0.007 A 
ATOM     11  C   UNL d   1     -47.231  14.450  22.926  0.00  0.00     0.025 A 
ATOM     12  C   UNL d   1     -47.882  13.961  22.868  0.00  0.00     0.100 A 
ATOM     13  C   UNL d   1     -47.786  13.153  22.712  0.00  0.00     0.025 A 
ATOM     14  C   UNL d   1     -47.024  12.849  22.616  0.00  0.00     0.007 A 
BRANCH  12  15
ATOM     15  O   UNL d   1     -48.644  14.260  22.962  0.00  0.00    -0.305 OA
BRANCH  15  16
ATOM     16  C   UNL d   1     -48.865  14.972  22.628  0.00  0.00     0.123 C 
ATOM     17  C   UNL d   1     -49.630  15.289  22.764  0.00  0.00     0.029 C 
ENDBRANCH  15  16
ENDBRANCH  12  15
ENDBRANCH   7   9
ENDBRANCH   1   6
BRANCH   3  18
ATOM     18  S   UNL d   1     -42.370  12.983  21.164  0.00  0.00    -0.054 SA
BRANCH  18  19
ATOM     19  C   UNL d   1     -42.123  13.771  21.077  0.00  0.00     0.100 C 
BRANCH  19  20
ATOM     20  C   UNL d   1     -41.372  13.935  20.784  0.00  0.00     0.286 C 
ATOM     21  N   UNL d   1     -41.280  14.151  19.996  0.00  0.00    -0.204 NA
ATOM     22  O   UNL d   1     -40.706  13.885  21.276  0.00  0.00    -0.265 OA
BRANCH  21  23
ATOM     23  C   UNL d   1     -40.523  14.318  19.699  0.00  0.00     0.127 C 
BRANCH  23  24
ATOM     24  C   UNL d   1     -40.426  14.498  18.904  0.00  0.00     0.119 A 
ATOM     25  O   UNL d   1     -40.454  13.968  18.268  0.00  0.00    -0.304 OA
ATOM     26  C   UNL d   1     -40.327  14.395  17.564  0.00  0.00     0.123 A 
ATOM     27  C   UNL d   1     -40.222  15.184  17.758  0.00  0.00     0.029 A 
ATOM     28  C   UNL d   1     -40.283  15.245  18.578  0.00  0.00     0.028 A 
ENDBRANCH  23  24
ENDBRANCH  21  23
ENDBRANCH  19  20
ENDBRANCH  18  19
ENDBRANCH   3  18
TORSDOF 9
ENDMDL
MODEL 2
REMARK VINA RESULT:      -6.3      1.206      1.635
REMARK  9 active torsions:
REMARK  status: ('A' for Active; 'I' for Inactive)
REMARK    1  A    between atoms: N_3  and  C_1 
REMARK       I    between atoms: C_7  and  N_3 
REMARK    2  A    between atoms: S_10  and  C_4 
REMARK    3  A    between atoms: C_9  and  C_7 
REMARK    4  A    between atoms: C_8  and  C_17 
REMARK       I    between atoms: N_12  and  C_8 
REMARK    5  A    between atoms: C_17  and  S_10 
REMARK    6  A    between atoms: C_18  and  N_12 
REMARK    7  A    between atoms: C_22  and  C_18 
REMARK    8  A    between atoms: O_23  and  C_19 
REMARK    9  A    between atoms: C_25  and  O_23 
ROOT
ATOM      1  C   UNL d   1     -44.623  12.932  21.857  0.00  0.00     0.219 A 
ATOM      2  S   UNL d   1     -44.031  13.279  21.401  0.00  0.00    -0.019 SA
ATOM      3  C   UNL d   1     -43.356  12.814  21.448  0.00  0.00     0.165 A 
ATOM      4  N   UNL d   1     -44.307  12.244  22.190  0.00  0.00    -0.120 NA
ATOM      5  N   UNL d   1     -43.526  12.171  21.938  0.00  0.00    -0.133 NA
ENDROOT
BRANCH   1   6
ATOM      6  N   UNL d   1     -45.392  13.224  21.960  0.00  0.00    -0.181 NA
ATOM      7  C   UNL d   1     -45.805  13.041  22.654  0.00  0.00     0.281 C 
ATOM      8  O   UNL d   1     -45.455  12.575  23.234  0.00  0.00    -0.265 OA
BRANCH   7   9
ATOM      9  C   UNL d   1     -46.573  13.330  22.760  0.00  0.00     0.058 A 
ATOM     10  C   UNL d   1     -46.696  14.141  22.822  0.00  0.00     0.007 A 
ATOM     11  C   UNL d   1     -47.465  14.422  22.928  0.00  0.00     0.025 A 
ATOM     12  C   UNL d   1     -48.093  13.903  22.970  0.00  0.00     0.100 A 
ATOM     13  C   UNL d   1     -47.967  13.087  22.907  0.00  0.00     0.025 A 
ATOM     14  C   UNL d   1     -47.198  12.805  22.801  0.00  0.00     0.007 A 
BRANCH  12  15
ATOM     15  O   UNL d   1     -48.863  14.179  23.075  0.00  0.00    -0.305 OA
BRANCH  15  16
ATOM     16  C   UNL d   1     -49.056  14.960  22.933  0.00  0.00     0.123 C 
ATOM     17  C   UNL d   1     -49.843  15.233  23.041  0.00  0.00     0.029 C 
ENDBRANCH  15  16
ENDBRANCH  12  15
ENDBRANCH   7   9
ENDBRANCH   1   6
BRANCH   3  18
ATOM     18  S   UNL d   1     -42.638  12.967  21.072  0.00  0.00    -0.054 SA
BRANCH  18  19
ATOM     19  C   UNL d   1     -42.248  13.686  21.215  0.00  0.00     0.100 C 
BRANCH  19  20
ATOM     20  C   UNL d   1     -41.538  13.851  20.834  0.00  0.00     0.286 C 
ATOM     21  N   UNL d   1     -40.963  14.293  21.218  0.00  0.00    -0.204 NA
ATOM     22  O   UNL d   1     -41.398  13.575  20.064  0.00  0.00    -0.265 OA
BRANCH  21  23
ATOM     23  C   UNL d   1     -40.245  14.460  20.835  0.00  0.00     0.127 C 
BRANCH  23  24
ATOM     24  C   UNL d   1     -39.671  14.907  21.217  0.00  0.00     0.119 A 
ATOM     25  O   UNL d   1     -39.214  14.674  21.866  0.00  0.00    -0.304 OA
ATOM     26  C   UNL d   1     -38.706  15.303  22.068  0.00  0.00     0.123 A 
ATOM     27  C   UNL d   1     -38.845  15.922  21.550  0.00  0.00     0.029 A 
ATOM     28  C   UNL d   1     -39.437  15.677  21.029  0.00  0.00     0.028 A 
ENDBRANCH  23  24
ENDBRANCH  21  23
ENDBRANCH  19  20
ENDBRANCH  18  19
ENDBRANCH   3  18
TORSDOF 9
ENDMDL
MODEL 3
REMARK VINA RESULT:      -5.6      1.024      6.837
REMARK  9 active torsions:
REMARK  status: ('A' for Active; 'I' for Inactive)
REMARK    1  A    between atoms: N_3  and  C_1 
REMARK       I    between atoms: C_7  and  N_3 
REMARK    2  A    between atoms: S_10  and  C_4 
REMARK    3  A    between atoms: C_9  and  C_7 
REMARK    4  A    between atoms: C_8  and  C_17 
REMARK       I    between atoms: N_12  and  C_8 
REMARK    5  A    between atoms: C_17  and  S_10 
REMARK    6  A    between atoms: C_18  and  N_12 
REMARK    7  A    between atoms: C_22  and  C_18 
REMARK    8  A    between atoms: O_23  and  C_19 
REMARK    9  A    between atoms: C_25  and  O_23 
ROOT
ATOM      1  C   UNL d   1     -42.986  13.146  21.202  0.00  0.00     0.219 A 
ATOM      2  S   UNL d   1     -43.781  13.307  21.346  0.00  0.00    -0.019 SA
ATOM      3  C   UNL d   1     -44.096  12.699  21.797  0.00  0.00     0.165 A 
ATOM      4  N   UNL d   1     -42.809  12.427  21.571  0.00  0.00    -0.120 NA
ATOM      5  N   UNL d   1     -43.494  12.151  21.938  0.00  0.00    -0.133 NA
ENDROOT
BRANCH   1   6
ATOM      6  N   UNL d   1     -42.463  13.620  20.767  0.00  0.00    -0.181 NA
ATOM      7  C   UNL d   1     -41.747  13.853  21.110  0.00  0.00     0.281 C 
ATOM      8  O   UNL d   1     -41.556  13.616  21.874  0.00  0.00    -0.265 OA
BRANCH   7   9
ATOM      9  C   UNL d   1     -41.222  14.325  20.679  0.00  0.00     0.058 A 
ATOM     10  C   UNL d   1     -40.826  14.007  20.031  0.00  0.00     0.007 A 
ATOM     11  C   UNL d   1     -40.305  14.484  19.606  0.00  0.00     0.025 A 
ATOM     12  C   UNL d   1     -40.184  15.262  19.824  0.00  0.00     0.100 A 
ATOM     13  C   UNL d   1     -40.583  15.581  20.476  0.00  0.00     0.025 A 
ATOM     14  C   UNL d   1     -41.105  15.102  20.902  0.00  0.00     0.007 A 
BRANCH  12  15
ATOM     15  O   UNL d   1     -39.664  15.742  19.402  0.00  0.00    -0.305 OA
BRANCH  15  16
ATOM     16  C   UNL d   1     -39.029  15.426  18.996  0.00  0.00     0.123 C 
ATOM     17  C   UNL d   1     -38.511  15.922  18.559  0.00  0.00     0.029 C 
ENDBRANCH  15  16
ENDBRANCH  12  15
ENDBRANCH   7   9
ENDBRANCH   1   6
BRANCH   3  18
ATOM     18  S   UNL d   1     -44.875  12.648  22.061  0.00  0.00    -0.054 SA
BRANCH  18  19
ATOM     19  C   UNL d   1     -45.265  13.337  22.315  0.00  0.00     0.100 C 
BRANCH  19  20
ATOM     20  C   UNL d   1     -45.967  13.278  22.740  0.00  0.00     0.286 C 
ATOM     21  N   UNL d   1     -46.625  13.707  22.502  0.00  0.00    -0.204 NA
ATOM     22  O   UNL d   1     -46.016  12.788  23.408  0.00  0.00    -0.265 OA
BRANCH  21  23
ATOM     23  C   UNL d   1     -47.334  13.649  22.930  0.00  0.00     0.127 C 
BRANCH  23  24
ATOM     24  C   UNL d   1     -47.983  14.102  22.709  0.00  0.00     0.119 A 
ATOM     25  O   UNL d   1     -48.092  14.911  22.847  0.00  0.00    -0.304 OA
ATOM     26  C   UNL d   1     -48.829  15.134  22.527  0.00  0.00     0.123 A 
ATOM     27  C   UNL d   1     -49.176  14.471  22.194  0.00  0.00     0.029 A 
ATOM     28  C   UNL d   1     -48.656  13.840  22.307  0.00  0.00     0.028 A 
ENDBRANCH  23  24
ENDBRANCH  21  23
ENDBRANCH  19  20
ENDBRANCH  18  19
ENDBRANCH   3  18
TORSDOF 9
ENDMDL
MODEL 4
REMARK VINA RESULT:      -5.4      1.413      7.483
REMARK  9 active torsions:
REMARK  status: ('A' for Active; 'I' for Inactive)
REMARK    1  A    between atoms: N_3  and  C_1 
REMARK       I    between atoms: C_7  and  N_3 
REMARK    2  A    between atoms: S_10  and  C_4 
REMARK    3  A    between atoms: C_9  and  C_7 
REMARK    4  A    between atoms: C_8  and  C_17 
REMARK       I    between atoms: N_12  and  C_8 
REMARK    5  A    between atoms: C_17  and  S_10 
REMARK    6  A    between atoms: C_18  and  N_12 
REMARK    7  A    between atoms: C_22  and  C_18 
REMARK    8  A    between atoms: O_23  and  C_19 
REMARK    9  A    between atoms: C_25  and  O_23 
ROOT
ATOM      1  C   UNL d   1     -40.941  14.230  19.981  0.00  0.00     0.219 A 
ATOM      2  S   UNL d   1     -41.429  13.613  20.226  0.00  0.00    -0.019 SA
ATOM      3  C   UNL d   1     -41.797  13.831  20.926  0.00  0.00     0.165 A 
ATOM      4  N   UNL d   1     -41.010  14.836  20.540  0.00  0.00    -0.120 NA
ATOM      5  N   UNL d   1     -41.538  14.590  21.123  0.00  0.00    -0.133 NA
ENDROOT
BRANCH   1   6
ATOM      6  N   UNL d   1     -40.468  14.237  19.300  0.00  0.00    -0.181 NA
ATOM      7  C   UNL d   1     -40.496  14.893  18.795  0.00  0.00     0.281 C 
ATOM      8  O   UNL d   1     -40.986  15.529  18.969  0.00  0.00    -0.265 OA
BRANCH   7   9
ATOM      9  C   UNL d   1     -40.026  14.904  18.114  0.00  0.00     0.058 A 
ATOM     10  C   UNL d   1     -40.383  14.859  17.374  0.00  0.00     0.007 A 
ATOM     11  C   UNL d   1     -39.908  14.870  16.699  0.00  0.00     0.025 A 
ATOM     12  C   UNL d   1     -39.096  14.924  16.765  0.00  0.00     0.100 A 
ATOM     13  C   UNL d   1     -38.739  14.969  17.512  0.00  0.00     0.025 A 
ATOM     14  C   UNL d   1     -39.214  14.958  18.187  0.00  0.00     0.007 A 
BRANCH  12  15
ATOM     15  O   UNL d   1     -38.618  14.936  16.094  0.00  0.00    -0.305 OA
BRANCH  15  16
ATOM     16  C   UNL d   1     -38.413  14.246  15.708  0.00  0.00     0.123 C 
ATOM     17  C   UNL d   1     -37.940  14.267  15.015  0.00  0.00     0.029 C 
ENDBRANCH  15  16
ENDBRANCH  12  15
ENDBRANCH   7   9
ENDBRANCH   1   6
BRANCH   3  18
ATOM     18  S   UNL d   1     -42.330  13.369  21.354  0.00  0.00    -0.054 SA
BRANCH  18  19
ATOM     19  C   UNL d   1     -43.140  13.410  21.174  0.00  0.00     0.100 C 
BRANCH  19  20
ATOM     20  C   UNL d   1     -43.680  12.968  21.609  0.00  0.00     0.286 C 
ATOM     21  N   UNL d   1     -44.403  13.298  21.816  0.00  0.00    -0.204 NA
ATOM     22  O   UNL d   1     -43.501  12.192  21.842  0.00  0.00    -0.265 OA
BRANCH  21  23
ATOM     23  C   UNL d   1     -44.949  12.853  22.256  0.00  0.00     0.127 C 
BRANCH  23  24
ATOM     24  C   UNL d   1     -45.639  13.206  22.528  0.00  0.00     0.119 A 
ATOM     25  O   UNL d   1     -45.764  14.013  22.660  0.00  0.00    -0.304 OA
ATOM     26  C   UNL d   1     -46.543  14.117  22.935  0.00  0.00     0.123 A 
ATOM     27  C   UNL d   1     -46.902  13.381  22.974  0.00  0.00     0.029 A 
ATOM     28  C   UNL d   1     -46.347  12.824  22.725  0.00  0.00     0.028 A 
ENDBRANCH  23  24
ENDBRANCH  21  23
ENDBRANCH  19  20
ENDBRANCH  18  19
ENDBRANCH   3  18
TORSDOF 9
ENDMDL
