MODEL 1
REMARK VINA RESULT:      23.6      0.000      0.000
REMARK  5 active torsions:
REMARK  status: ('A' for Active; 'I' for Inactive)
REMARK    1  A    between atoms: C_12  and  N_4 
REMARK    2  A    between atoms: C_10  and  N_6 
REMARK    3  A    between atoms: C_11  and  C_10 
REMARK       I    between atoms: N_14  and  C_11 
REMARK    4  A    between atoms: C_16  and  N_14 
REMARK    5  A    between atoms: C_17  and  C_16 
ROOT
ATOM      1  C   UNL d   1      46.416 -18.481  42.792  0.00  0.00     0.172 A 
ATOM      2  C   UNL d   1      46.441 -18.851  43.529  0.00  0.00     0.113 A 
ATOM      3  N   UNL d   1      46.283 -17.673  42.740  0.00  0.00    -0.206 NA
ATOM      4  N   UNL d   1      46.543 -19.065  42.217  0.00  0.00    -0.212 N 
ATOM      5  C   UNL d   1      46.333 -18.413  44.214  0.00  0.00     0.271 A 
ATOM      6  N   UNL d   1      46.198 -17.597  44.166  0.00  0.00    -0.251 N 
ATOM      7  N   UNL d   1      46.643 -19.779  42.604  0.00  0.00    -0.162 NA
ATOM      8  C   UNL d   1      46.173 -17.227  43.429  0.00  0.00     0.187 A 
ATOM      9  C   UNL d   1      46.583 -19.657  43.396  0.00  0.00     0.129 A 
ATOM     10  O   UNL d   1      46.358 -18.783  44.951  0.00  0.00    -0.266 OA
ENDROOT
BRANCH   6  11
ATOM     11  C   UNL d   1      46.088 -17.144  44.859  0.00  0.00     0.147 C 
BRANCH  11  12
ATOM     12  C   UNL d   1      45.517 -16.540  44.874  0.00  0.00     0.297 C 
ATOM     13  N   UNL d   1      45.766 -15.756  44.927  0.00  0.00    -0.205 NA
ATOM     14  O   UNL d   1      44.723 -16.730  44.837  0.00  0.00    -0.264 OA
BRANCH  13  15
ATOM     15  C   UNL d   1      45.196 -15.151  44.942  0.00  0.00     0.102 C 
BRANCH  15  16
ATOM     16  C   UNL d   1      45.368 -14.439  44.580  0.00  0.00     0.019 A 
ATOM     17  C   UNL d   1      45.933 -13.936  44.890  0.00  0.00     0.002 A 
ATOM     18  C   UNL d   1      46.103 -13.213  44.516  0.00  0.00     0.000 A 
ATOM     19  C   UNL d   1      45.693 -13.012  43.829  0.00  0.00     0.000 A 
ATOM     20  C   UNL d   1      45.126 -13.509  43.514  0.00  0.00     0.000 A 
ATOM     21  C   UNL d   1      44.957 -14.232  43.888  0.00  0.00     0.002 A 
ENDBRANCH  15  16
ENDBRANCH  13  15
ENDBRANCH  11  12
ENDBRANCH   6  11
BRANCH   4  22
ATOM     22  C   UNL d   1      46.570 -18.986  41.407  0.00  0.00     0.085 A 
ATOM     23  C   UNL d   1      46.578 -18.228  41.061  0.00  0.00     0.019 A 
ATOM     24  C   UNL d   1      46.606 -18.156  40.247  0.00  0.00     0.002 A 
ATOM     25  C   UNL d   1      46.626 -18.842  39.759  0.00  0.00     0.000 A 
ATOM     26  C   UNL d   1      46.617 -19.575  40.108  0.00  0.00     0.002 A 
ATOM     27  C   UNL d   1      46.590 -19.658  40.926  0.00  0.00     0.019 A 
ENDBRANCH   4  22
TORSDOF 5
ENDMDL
