MODEL 1
REMARK VINA RESULT:      -8.7      0.000      0.000
REMARK  3 active torsions:
REMARK  status: ('A' for Active; 'I' for Inactive)
REMARK    1  A    between atoms: C_3  and  N_1 
REMARK    2  A    between atoms: N_2  and  C_4 
REMARK    3  A    between atoms: C_7  and  C_8 
ROOT
ATOM      1  C   UNL d   1      54.192  33.373  54.693  0.00  0.00     0.146 A 
ATOM      2  C   UNL d   1      54.056  32.622  54.366  0.00  0.00     0.025 A 
ATOM      3  C   UNL d   1      53.338  32.460  53.974  0.00  0.00     0.002 A 
ATOM      4  C   UNL d   1      53.608  33.968  54.628  0.00  0.00     0.125 A 
ATOM      5  C   UNL d   1      52.759  33.049  53.910  0.00  0.00     0.002 A 
ATOM      6  C   UNL d   1      52.890  33.805  54.236  0.00  0.00     0.023 A 
ATOM      7  N   UNL d   1      53.740  34.703  54.948  0.00  0.00    -0.146 N 
ENDROOT
BRANCH   3   8
ATOM      8  C   UNL d   1      53.202  31.717  53.650  0.00  0.00     0.002 A 
ATOM      9  C   UNL d   1      53.331  31.038  54.100  0.00  0.00     0.025 A 
ATOM     10  C   UNL d   1      53.193  30.296  53.771  0.00  0.00     0.146 A 
ATOM     11  C   UNL d   1      52.928  30.229  52.994  0.00  0.00     0.125 A 
ATOM     12  C   UNL d   1      52.800  30.908  52.545  0.00  0.00     0.023 A 
ATOM     13  N   UNL d   1      52.793  29.492  52.671  0.00  0.00    -0.146 N 
ATOM     14  C   UNL d   1      52.936  31.653  52.871  0.00  0.00     0.002 A 
BRANCH  10  15
ATOM     15  N   UNL d   1      53.321  29.621  54.218  0.00  0.00    -0.112 N 
ATOM     16  O   UNL d   1      52.779  29.287  54.741  0.00  0.00    -0.532 OA
ATOM     17  O   UNL d   1      54.012  29.189  54.201  0.00  0.00    -0.532 OA
ENDBRANCH  10  15
ENDBRANCH   3   8
BRANCH   1  18
ATOM     18  N   UNL d   1      54.892  33.532  55.075  0.00  0.00    -0.112 N 
ATOM     19  O   UNL d   1      55.579  33.801  54.703  0.00  0.00    -0.532 OA
ATOM     20  O   UNL d   1      54.996  33.443  55.872  0.00  0.00    -0.532 OA
ENDBRANCH   1  18
TORSDOF 3
ENDMDL
MODEL 2
REMARK VINA RESULT:      -8.7      0.035      3.857
REMARK  3 active torsions:
REMARK  status: ('A' for Active; 'I' for Inactive)
REMARK    1  A    between atoms: C_3  and  N_1 
REMARK    2  A    between atoms: N_2  and  C_4 
REMARK    3  A    between atoms: C_7  and  C_8 
ROOT
ATOM      1  C   UNL d   1      53.189  30.272  53.779  0.00  0.00     0.146 A 
ATOM      2  C   UNL d   1      53.327  31.022  54.108  0.00  0.00     0.025 A 
ATOM      3  C   UNL d   1      53.216  31.709  53.648  0.00  0.00     0.002 A 
ATOM      4  C   UNL d   1      52.938  30.206  52.985  0.00  0.00     0.125 A 
ATOM      5  C   UNL d   1      52.967  31.643  52.860  0.00  0.00     0.002 A 
ATOM      6  C   UNL d   1      52.827  30.893  52.525  0.00  0.00     0.023 A 
ATOM      7  N   UNL d   1      52.803  29.473  52.661  0.00  0.00    -0.146 N 
ENDROOT
BRANCH   3   8
ATOM      8  C   UNL d   1      53.352  32.451  53.973  0.00  0.00     0.002 A 
ATOM      9  C   UNL d   1      54.069  32.618  54.342  0.00  0.00     0.025 A 
ATOM     10  C   UNL d   1      54.201  33.363  54.666  0.00  0.00     0.146 A 
ATOM     11  C   UNL d   1      53.618  33.943  54.623  0.00  0.00     0.125 A 
ATOM     12  C   UNL d   1      52.900  33.777  54.254  0.00  0.00     0.023 A 
ATOM     13  N   UNL d   1      53.751  34.681  54.945  0.00  0.00    -0.146 N 
ATOM     14  C   UNL d   1      52.765  33.030  53.928  0.00  0.00     0.002 A 
BRANCH  10  15
ATOM     15  N   UNL d   1      54.915  33.529  55.033  0.00  0.00    -0.112 N 
ATOM     16  O   UNL d   1      55.599  33.782  54.650  0.00  0.00    -0.532 OA
ATOM     17  O   UNL d   1      55.038  33.463  55.836  0.00  0.00    -0.532 OA
ENDBRANCH  10  15
ENDBRANCH   3   8
BRANCH   1  18
ATOM     18  N   UNL d   1      53.298  29.603  54.227  0.00  0.00    -0.112 N 
ATOM     19  O   UNL d   1      52.736  29.291  54.747  0.00  0.00    -0.532 OA
ATOM     20  O   UNL d   1      53.976  29.162  54.215  0.00  0.00    -0.532 OA
ENDBRANCH   1  18
TORSDOF 3
ENDMDL
MODEL 3
REMARK VINA RESULT:      -8.1      1.444      4.116
REMARK  3 active torsions:
REMARK  status: ('A' for Active; 'I' for Inactive)
REMARK    1  A    between atoms: C_3  and  N_1 
REMARK    2  A    between atoms: N_2  and  C_4 
REMARK    3  A    between atoms: C_7  and  C_8 
ROOT
ATOM      1  C   UNL d   1      53.048  30.889  53.218  0.00  0.00     0.146 A 
ATOM      2  C   UNL d   1      52.722  31.652  53.199  0.00  0.00     0.025 A 
ATOM      3  C   UNL d   1      53.134  32.293  53.537  0.00  0.00     0.002 A 
ATOM      4  C   UNL d   1      53.791  30.763  53.579  0.00  0.00     0.125 A 
ATOM      5  C   UNL d   1      53.871  32.169  53.895  0.00  0.00     0.002 A 
ATOM      6  C   UNL d   1      54.203  31.404  53.918  0.00  0.00     0.023 A 
ATOM      7  N   UNL d   1      54.112  30.017  53.599  0.00  0.00    -0.146 N 
ENDROOT
BRANCH   3   8
ATOM      8  C   UNL d   1      52.812  33.049  53.518  0.00  0.00     0.002 A 
ATOM      9  C   UNL d   1      53.124  33.645  53.993  0.00  0.00     0.025 A 
ATOM     10  C   UNL d   1      52.798  34.401  53.971  0.00  0.00     0.146 A 
ATOM     11  C   UNL d   1      52.161  34.563  53.475  0.00  0.00     0.125 A 
ATOM     12  C   UNL d   1      51.848  33.967  53.000  0.00  0.00     0.023 A 
ATOM     13  N   UNL d   1      51.840  35.314  53.455  0.00  0.00    -0.146 N 
ATOM     14  C   UNL d   1      52.173  33.208  53.021  0.00  0.00     0.002 A 
BRANCH  10  15
ATOM     15  N   UNL d   1      53.109  34.994  54.443  0.00  0.00    -0.112 N 
ATOM     16  O   UNL d   1      53.016  35.050  55.261  0.00  0.00    -0.532 OA
ATOM     17  O   UNL d   1      53.557  35.614  54.159  0.00  0.00    -0.532 OA
ENDBRANCH  10  15
ENDBRANCH   3   8
BRANCH   1  18
ATOM     18  N   UNL d   1      52.646  30.264  52.888  0.00  0.00    -0.112 N 
ATOM     19  O   UNL d   1      52.103  29.789  53.293  0.00  0.00    -0.532 OA
ATOM     20  O   UNL d   1      52.733  30.034  52.118  0.00  0.00    -0.532 OA
ENDBRANCH   1  18
TORSDOF 3
ENDMDL
MODEL 4
REMARK VINA RESULT:      -8.1      1.450      1.866
REMARK  3 active torsions:
REMARK  status: ('A' for Active; 'I' for Inactive)
REMARK    1  A    between atoms: C_3  and  N_1 
REMARK    2  A    between atoms: N_2  and  C_4 
REMARK    3  A    between atoms: C_7  and  C_8 
ROOT
ATOM      1  C   UNL d   1      52.789  34.410  53.976  0.00  0.00     0.146 A 
ATOM      2  C   UNL d   1      53.122  33.650  53.992  0.00  0.00     0.025 A 
ATOM      3  C   UNL d   1      52.806  33.044  53.514  0.00  0.00     0.002 A 
ATOM      4  C   UNL d   1      52.136  34.569  53.480  0.00  0.00     0.125 A 
ATOM      5  C   UNL d   1      52.158  33.201  53.021  0.00  0.00     0.002 A 
ATOM      6  C   UNL d   1      51.820  33.963  53.002  0.00  0.00     0.023 A 
ATOM      7  N   UNL d   1      51.810  35.313  53.463  0.00  0.00    -0.146 N 
ENDROOT
BRANCH   3   8
ATOM      8  C   UNL d   1      53.134  32.291  53.529  0.00  0.00     0.002 A 
ATOM      9  C   UNL d   1      52.724  31.653  53.206  0.00  0.00     0.025 A 
ATOM     10  C   UNL d   1      53.058  30.900  53.224  0.00  0.00     0.146 A 
ATOM     11  C   UNL d   1      53.799  30.782  53.562  0.00  0.00     0.125 A 
ATOM     12  C   UNL d   1      54.209  31.420  53.885  0.00  0.00     0.023 A 
ATOM     13  N   UNL d   1      54.126  30.035  53.578  0.00  0.00    -0.146 N 
ATOM     14  C   UNL d   1      53.877  32.176  53.869  0.00  0.00     0.002 A 
BRANCH  10  15
ATOM     15  N   UNL d   1      52.650  30.266  52.903  0.00  0.00    -0.112 N 
ATOM     16  O   UNL d   1      52.112  29.791  53.309  0.00  0.00    -0.532 OA
ATOM     17  O   UNL d   1      52.727  30.021  52.129  0.00  0.00    -0.532 OA
ENDBRANCH  10  15
ENDBRANCH   3   8
BRANCH   1  18
ATOM     18  N   UNL d   1      53.098  35.001  54.442  0.00  0.00    -0.112 N 
ATOM     19  O   UNL d   1      52.984  35.061  55.259  0.00  0.00    -0.532 OA
ATOM     20  O   UNL d   1      53.556  35.603  54.157  0.00  0.00    -0.532 OA
ENDBRANCH   1  18
TORSDOF 3
ENDMDL
MODEL 5
REMARK VINA RESULT:      -7.4      2.924      3.780
REMARK  3 active torsions:
REMARK  status: ('A' for Active; 'I' for Inactive)
REMARK    1  A    between atoms: C_3  and  N_1 
REMARK    2  A    between atoms: N_2  and  C_4 
REMARK    3  A    between atoms: C_7  and  C_8 
ROOT
ATOM      1  C   UNL d   1      53.606  33.299  54.233  0.00  0.00     0.146 A 
ATOM      2  C   UNL d   1      52.977  33.374  53.696  0.00  0.00     0.025 A 
ATOM      3  C   UNL d   1      52.624  34.118  53.567  0.00  0.00     0.002 A 
ATOM      4  C   UNL d   1      53.885  33.970  54.645  0.00  0.00     0.125 A 
ATOM      5  C   UNL d   1      52.900  34.784  53.975  0.00  0.00     0.002 A 
ATOM      6  C   UNL d   1      53.531  34.714  54.516  0.00  0.00     0.023 A 
ATOM      7  N   UNL d   1      54.500  33.897  55.171  0.00  0.00    -0.146 N 
ENDROOT
BRANCH   3   8
ATOM      8  C   UNL d   1      52.002  34.194  53.035  0.00  0.00     0.002 A 
ATOM      9  C   UNL d   1      51.244  34.373  53.306  0.00  0.00     0.025 A 
ATOM     10  C   UNL d   1      50.624  34.448  52.769  0.00  0.00     0.146 A 
ATOM     11  C   UNL d   1      50.758  34.345  51.963  0.00  0.00     0.125 A 
ATOM     12  C   UNL d   1      51.516  34.167  51.693  0.00  0.00     0.023 A 
ATOM     13  N   UNL d   1      50.141  34.421  51.434  0.00  0.00    -0.146 N 
ATOM     14  C   UNL d   1      52.139  34.091  52.228  0.00  0.00     0.002 A 
BRANCH  10  15
ATOM     15  N   UNL d   1      49.870  34.625  53.039  0.00  0.00    -0.112 N 
ATOM     16  O   UNL d   1      49.598  35.380  53.229  0.00  0.00    -0.532 OA
ATOM     17  O   UNL d   1      49.287  34.068  53.154  0.00  0.00    -0.532 OA
ENDBRANCH  10  15
ENDBRANCH   3   8
BRANCH   1  18
ATOM     18  N   UNL d   1      53.951  32.573  54.359  0.00  0.00    -0.112 N 
ATOM     19  O   UNL d   1      53.771  32.072  54.992  0.00  0.00    -0.532 OA
ATOM     20  O   UNL d   1      54.515  32.256  53.874  0.00  0.00    -0.532 OA
ENDBRANCH   1  18
TORSDOF 3
ENDMDL
