MODEL 1
REMARK VINA RESULT:      41.1      0.000      0.000
REMARK  5 active torsions:
REMARK  status: ('A' for Active; 'I' for Inactive)
REMARK    1  A    between atoms: C_9  and  C_1 
REMARK    2  A    between atoms: C_6  and  C_4 
REMARK    3  A    between atoms: C_5  and  C_6 
REMARK    4  A    between atoms: C_8  and  C_5 
REMARK    5  A    between atoms: C_11  and  C_8 
ROOT
ATOM      1  C   UNL d   1      58.180  49.681  50.652  0.00  0.00     0.100 A 
ATOM      2  O   UNL d   1      58.880  49.678  50.170  0.00  0.00    -0.307 OA
ATOM      3  C   UNL d   1      58.393  49.699  51.398  0.00  0.00     0.027 A 
ATOM      4  C   UNL d   1      59.518  49.695  50.708  0.00  0.00     0.100 A 
ATOM      5  C   UNL d   1      59.204  49.707  51.457  0.00  0.00     0.027 A 
ENDROOT
BRANCH   4   6
ATOM      6  C   UNL d   1      60.334  49.700  50.588  0.00  0.00     0.028 C 
BRANCH   6   7
ATOM      7  C   UNL d   1      60.697  49.054  50.264  0.00  0.00     0.044 C 
BRANCH   7   8
ATOM      8  C   UNL d   1      61.208  48.597  50.722  0.00  0.00     0.196 C 
ATOM      9  O   UNL d   1      61.698  48.981  51.287  0.00  0.00    -0.287 OA
BRANCH   8  10
ATOM     10  C   UNL d   1      61.231  47.788  50.623  0.00  0.00     0.039 A 
ATOM     11  C   UNL d   1      60.887  47.274  51.181  0.00  0.00     0.003 A 
ATOM     12  C   UNL d   1      60.911  46.460  51.079  0.00  0.00     0.000 A 
ATOM     13  C   UNL d   1      61.285  46.144  50.408  0.00  0.00     0.000 A 
ATOM     14  C   UNL d   1      61.627  46.654  49.852  0.00  0.00     0.000 A 
ATOM     15  C   UNL d   1      61.597  47.458  49.965  0.00  0.00     0.003 A 
ENDBRANCH   8  10
ENDBRANCH   7   8
ENDBRANCH   6   7
ENDBRANCH   4   6
BRANCH   1  16
ATOM     16  C   UNL d   1      57.471  49.666  50.226  0.00  0.00     0.023 A 
ATOM     17  C   UNL d   1      56.742  49.608  50.635  0.00  0.00     0.002 A 
ATOM     18  C   UNL d   1      56.033  49.593  50.203  0.00  0.00     0.000 A 
ATOM     19  C   UNL d   1      56.047  49.633  49.396  0.00  0.00     0.000 A 
ATOM     20  C   UNL d   1      56.776  49.692  48.981  0.00  0.00     0.000 A 
ATOM     21  C   UNL d   1      57.485  49.707  49.413  0.00  0.00     0.002 A 
ENDBRANCH   1  16
TORSDOF 5
ENDMDL
