MODEL 1
REMARK VINA RESULT:      -3.1      0.000      0.000
REMARK  2 active torsions:
REMARK  status: ('A' for Active; 'I' for Inactive)
REMARK    1  A    between atoms: C_10  and  N_1 
REMARK    2  A    between atoms: C_11  and  C_10 
ROOT
ATOM      1  N   UNL d   1      32.311  17.987 -24.120  0.00  0.00    -0.187 N 
ATOM      2  N   UNL d   1      31.449  18.081 -24.476  0.00  0.00    -0.162 NA
ATOM      3  C   UNL d   1      30.816  17.474 -24.383  0.00  0.00     0.102 A 
ATOM      4  C   UNL d   1      31.127  16.850 -23.945  0.00  0.00     0.024 A 
ATOM      5  C   UNL d   1      32.464  17.291 -23.701  0.00  0.00     0.281 A 
ATOM      6  C   UNL d   1      31.872  16.723 -23.614  0.00  0.00     0.059 A 
ATOM      7  C   UNL d   1      30.531  16.277 -23.857  0.00  0.00     0.002 A 
ATOM      8  C   UNL d   1      30.035  17.287 -24.563  0.00  0.00     0.019 A 
ATOM      9  C   UNL d   1      29.857  16.552 -24.241  0.00  0.00     0.002 A 
ATOM     10  O   UNL d   1      33.224  17.168 -23.367  0.00  0.00    -0.265 OA
ATOM     11  C   UNL d   1      32.030  16.026 -23.193  0.00  0.00     0.005 A 
ATOM     12  C   UNL d   1      30.687  15.584 -23.439  0.00  0.00     0.000 A 
ATOM     13  C   UNL d   1      29.456  17.697 -24.983  0.00  0.00     0.002 A 
ATOM     14  C   UNL d   1      29.105  16.221 -24.335  0.00  0.00     0.000 A 
ATOM     15  C   UNL d   1      31.433  15.453 -23.105  0.00  0.00     0.000 A 
ATOM     16  C   UNL d   1      28.531  16.636 -24.756  0.00  0.00     0.000 A 
ATOM     17  C   UNL d   1      28.700  17.372 -25.081  0.00  0.00     0.000 A 
ENDROOT
BRANCH   1  18
ATOM     18  C   UNL d   1      33.015  18.431 -24.102  0.00  0.00     0.174 C 
BRANCH  18  19
ATOM     19  C   UNL d   1      33.041  19.195 -24.428  0.00  0.00     0.231 C 
ATOM     20  O   UNL d   1      33.234  19.830 -23.954  0.00  0.00    -0.643 OA
ATOM     21  O   UNL d   1      32.945  19.636 -25.097  0.00  0.00    -0.643 OA
ENDBRANCH  18  19
ENDBRANCH   1  18
TORSDOF 2
ENDMDL
MODEL 2
REMARK VINA RESULT:      -2.7      2.037      3.342
REMARK  2 active torsions:
REMARK  status: ('A' for Active; 'I' for Inactive)
REMARK    1  A    between atoms: C_10  and  N_1 
REMARK    2  A    between atoms: C_11  and  C_10 
ROOT
ATOM      1  N   UNL d   1      29.866  16.745 -23.982  0.00  0.00    -0.187 N 
ATOM      2  N   UNL d   1      30.306  17.496 -24.332  0.00  0.00    -0.162 NA
ATOM      3  C   UNL d   1      31.184  17.578 -24.354  0.00  0.00     0.102 A 
ATOM      4  C   UNL d   1      31.510  16.898 -24.023  0.00  0.00     0.024 A 
ATOM      5  C   UNL d   1      30.346  16.142 -23.684  0.00  0.00     0.281 A 
ATOM      6  C   UNL d   1      31.167  16.218 -23.705  0.00  0.00     0.059 A 
ATOM      7  C   UNL d   1      32.338  16.976 -24.043  0.00  0.00     0.002 A 
ATOM      8  C   UNL d   1      31.806  18.070 -24.577  0.00  0.00     0.019 A 
ATOM      9  C   UNL d   1      32.516  17.702 -24.387  0.00  0.00     0.002 A 
ATOM     10  O   UNL d   1      29.991  15.453 -23.362  0.00  0.00    -0.265 OA
ATOM     11  C   UNL d   1      31.645  15.610 -23.405  0.00  0.00     0.005 A 
ATOM     12  C   UNL d   1      32.812  16.372 -23.746  0.00  0.00     0.000 A 
ATOM     13  C   UNL d   1      31.816  18.814 -24.932  0.00  0.00     0.002 A 
ATOM     14  C   UNL d   1      33.238  18.070 -24.548  0.00  0.00     0.000 A 
ATOM     15  C   UNL d   1      32.473  15.688 -23.425  0.00  0.00     0.000 A 
ATOM     16  C   UNL d   1      33.241  18.814 -24.904  0.00  0.00     0.000 A 
ATOM     17  C   UNL d   1      32.536  19.190 -25.097  0.00  0.00     0.000 A 
ENDROOT
BRANCH   1  18
ATOM     18  C   UNL d   1      29.080  16.493 -23.877  0.00  0.00     0.174 C 
BRANCH  18  19
ATOM     19  C   UNL d   1      28.450  17.028 -23.966  0.00  0.00     0.231 C 
ATOM     20  O   UNL d   1      27.864  17.058 -23.399  0.00  0.00    -0.643 OA
ATOM     21  O   UNL d   1      28.126  17.603 -24.430  0.00  0.00    -0.643 OA
ENDBRANCH  18  19
ENDBRANCH   1  18
TORSDOF 2
ENDMDL
MODEL 3
REMARK VINA RESULT:      -2.6      3.071      5.183
REMARK  2 active torsions:
REMARK  status: ('A' for Active; 'I' for Inactive)
REMARK    1  A    between atoms: C_10  and  N_1 
REMARK    2  A    between atoms: C_11  and  C_10 
ROOT
ATOM      1  N   UNL d   1      33.240  19.552 -23.199  0.00  0.00    -0.187 N 
ATOM      2  N   UNL d   1      33.240  20.415 -23.565  0.00  0.00    -0.162 NA
ATOM      3  C   UNL d   1      33.239  21.149 -23.077  0.00  0.00     0.102 A 
ATOM      4  C   UNL d   1      33.238  20.926 -22.285  0.00  0.00     0.024 A 
ATOM      5  C   UNL d   1      33.239  19.500 -22.375  0.00  0.00     0.281 A 
ATOM      6  C   UNL d   1      33.238  20.187 -21.918  0.00  0.00     0.059 A 
ATOM      7  C   UNL d   1      33.238  21.619 -21.824  0.00  0.00     0.002 A 
ATOM      8  C   UNL d   1      33.239  21.972 -23.105  0.00  0.00     0.019 A 
ATOM      9  C   UNL d   1      33.238  22.263 -22.336  0.00  0.00     0.002 A 
ATOM     10  O   UNL d   1      33.239  18.746 -22.007  0.00  0.00    -0.265 OA
ATOM     11  C   UNL d   1      33.237  20.132 -21.090  0.00  0.00     0.005 A 
ATOM     12  C   UNL d   1      33.237  21.564 -21.002  0.00  0.00     0.000 A 
ATOM     13  C   UNL d   1      33.240  22.500 -23.739  0.00  0.00     0.002 A 
ATOM     14  C   UNL d   1      33.237  23.078 -22.193  0.00  0.00     0.000 A 
ATOM     15  C   UNL d   1      33.236  20.824 -20.629  0.00  0.00     0.000 A 
ATOM     16  C   UNL d   1      33.238  23.599 -22.831  0.00  0.00     0.000 A 
ATOM     17  C   UNL d   1      33.239  23.318 -23.603  0.00  0.00     0.000 A 
ENDROOT
BRANCH   1  18
ATOM     18  C   UNL d   1      33.241  18.769 -23.483  0.00  0.00     0.174 C 
BRANCH  18  19
ATOM     19  C   UNL d   1      32.944  18.594 -24.239  0.00  0.00     0.231 C 
ATOM     20  O   UNL d   1      33.227  17.945 -24.644  0.00  0.00    -0.643 OA
ATOM     21  O   UNL d   1      32.431  18.818 -24.820  0.00  0.00    -0.643 OA
ENDBRANCH  18  19
ENDBRANCH   1  18
TORSDOF 2
ENDMDL
MODEL 4
REMARK VINA RESULT:      -2.6      4.228      5.897
REMARK  2 active torsions:
REMARK  status: ('A' for Active; 'I' for Inactive)
REMARK    1  A    between atoms: C_10  and  N_1 
REMARK    2  A    between atoms: C_11  and  C_10 
ROOT
ATOM      1  N   UNL d   1      33.048  22.440 -20.917  0.00  0.00    -0.187 N 
ATOM      2  N   UNL d   1      33.074  21.505 -20.981  0.00  0.00    -0.162 NA
ATOM      3  C   UNL d   1      33.120  21.071 -21.747  0.00  0.00     0.102 A 
ATOM      4  C   UNL d   1      33.135  21.629 -22.353  0.00  0.00     0.024 A 
ATOM      5  C   UNL d   1      33.071  22.859 -21.629  0.00  0.00     0.281 A 
ATOM      6  C   UNL d   1      33.114  22.454 -22.346  0.00  0.00     0.059 A 
ATOM      7  C   UNL d   1      33.178  21.220 -23.076  0.00  0.00     0.002 A 
ATOM      8  C   UNL d   1      33.154  20.325 -22.094  0.00  0.00     0.019 A 
ATOM      9  C   UNL d   1      33.190  20.414 -22.911  0.00  0.00     0.002 A 
ATOM     10  O   UNL d   1      33.049  23.698 -21.616  0.00  0.00    -0.265 OA
ATOM     11  C   UNL d   1      33.137  22.878 -23.059  0.00  0.00     0.005 A 
ATOM     12  C   UNL d   1      33.201  21.641 -23.783  0.00  0.00     0.000 A 
ATOM     13  C   UNL d   1      33.158  19.568 -21.767  0.00  0.00     0.002 A 
ATOM     14  C   UNL d   1      33.230  19.753 -23.405  0.00  0.00     0.000 A 
ATOM     15  C   UNL d   1      33.181  22.469 -23.782  0.00  0.00     0.000 A 
ATOM     16  C   UNL d   1      33.233  18.999 -23.072  0.00  0.00     0.000 A 
ATOM     17  C   UNL d   1      33.197  18.901 -22.257  0.00  0.00     0.000 A 
ENDROOT
BRANCH   1  18
ATOM     18  C   UNL d   1      33.005  23.009 -20.311  0.00  0.00     0.174 C 
BRANCH  18  19
ATOM     19  C   UNL d   1      32.916  22.776 -19.519  0.00  0.00     0.231 C 
ATOM     20  O   UNL d   1      32.361  23.145 -19.049  0.00  0.00    -0.643 OA
ATOM     21  O   UNL d   1      33.175  22.278 -18.939  0.00  0.00    -0.643 OA
ENDBRANCH  18  19
ENDBRANCH   1  18
TORSDOF 2
ENDMDL
MODEL 5
REMARK VINA RESULT:      -2.4      1.303      2.565
REMARK  2 active torsions:
REMARK  status: ('A' for Active; 'I' for Inactive)
REMARK    1  A    between atoms: C_10  and  N_1 
REMARK    2  A    between atoms: C_11  and  C_10 
ROOT
ATOM      1  N   UNL d   1      31.561  16.699 -23.931  0.00  0.00    -0.187 N 
ATOM      2  N   UNL d   1      30.857  16.202 -23.561  0.00  0.00    -0.162 NA
ATOM      3  C   UNL d   1      30.006  16.397 -23.686  0.00  0.00     0.102 A 
ATOM      4  C   UNL d   1      29.968  17.065 -24.166  0.00  0.00     0.024 A 
ATOM      5  C   UNL d   1      31.349  17.349 -24.395  0.00  0.00     0.281 A 
ATOM      6  C   UNL d   1      30.553  17.532 -24.512  0.00  0.00     0.059 A 
ATOM      7  C   UNL d   1      29.165  17.249 -24.284  0.00  0.00     0.002 A 
ATOM      8  C   UNL d   1      29.234  16.171 -23.509  0.00  0.00     0.019 A 
ATOM      9  C   UNL d   1      28.716  16.693 -23.876  0.00  0.00     0.002 A 
ATOM     10  O   UNL d   1      31.949  17.820 -24.745  0.00  0.00    -0.265 OA
ATOM     11  C   UNL d   1      30.345  18.185 -24.979  0.00  0.00     0.005 A 
ATOM     12  C   UNL d   1      28.958  17.898 -24.747  0.00  0.00     0.000 A 
ATOM     13  C   UNL d   1      28.934  15.551 -23.057  0.00  0.00     0.002 A 
ATOM     14  C   UNL d   1      27.898  16.602 -23.795  0.00  0.00     0.000 A 
ATOM     15  C   UNL d   1      29.542  18.369 -25.097  0.00  0.00     0.000 A 
ATOM     16  C   UNL d   1      27.605  15.979 -23.342  0.00  0.00     0.000 A 
ATOM     17  C   UNL d   1      28.115  15.453 -22.972  0.00  0.00     0.000 A 
ENDROOT
BRANCH   1  18
ATOM     18  C   UNL d   1      32.393  16.674 -23.928  0.00  0.00     0.174 C 
BRANCH  18  19
ATOM     19  C   UNL d   1      32.797  16.137 -23.439  0.00  0.00     0.231 C 
ATOM     20  O   UNL d   1      33.180  15.498 -23.771  0.00  0.00    -0.643 OA
ATOM     21  O   UNL d   1      33.000  15.951 -22.681  0.00  0.00    -0.643 OA
ENDBRANCH  18  19
ENDBRANCH   1  18
TORSDOF 2
ENDMDL
MODEL 6
REMARK VINA RESULT:      -1.9      2.792      4.117
REMARK  2 active torsions:
REMARK  status: ('A' for Active; 'I' for Inactive)
REMARK    1  A    between atoms: C_10  and  N_1 
REMARK    2  A    between atoms: C_11  and  C_10 
ROOT
ATOM      1  N   UNL d   1      33.092  20.610 -22.252  0.00  0.00    -0.187 N 
ATOM      2  N   UNL d   1      33.012  19.677 -22.202  0.00  0.00    -0.162 NA
ATOM      3  C   UNL d   1      33.012  19.151 -22.910  0.00  0.00     0.102 A 
ATOM      4  C   UNL d   1      33.093  19.625 -23.577  0.00  0.00     0.024 A 
ATOM      5  C   UNL d   1      33.166  20.934 -23.009  0.00  0.00     0.281 A 
ATOM      6  C   UNL d   1      33.166  20.442 -23.671  0.00  0.00     0.059 A 
ATOM      7  C   UNL d   1      33.093  19.129 -24.245  0.00  0.00     0.002 A 
ATOM      8  C   UNL d   1      32.962  18.369 -23.164  0.00  0.00     0.019 A 
ATOM      9  C   UNL d   1      33.012  18.353 -23.984  0.00  0.00     0.002 A 
ATOM     10  O   UNL d   1      33.241  21.765 -23.097  0.00  0.00    -0.265 OA
ATOM     11  C   UNL d   1      33.241  20.771 -24.429  0.00  0.00     0.005 A 
ATOM     12  C   UNL d   1      33.167  19.456 -24.998  0.00  0.00     0.000 A 
ATOM     13  C   UNL d   1      32.878  17.661 -22.748  0.00  0.00     0.002 A 
ATOM     14  C   UNL d   1      32.978  17.636 -24.395  0.00  0.00     0.000 A 
ATOM     15  C   UNL d   1      33.241  20.274 -25.096  0.00  0.00     0.000 A 
ATOM     16  C   UNL d   1      32.893  16.933 -23.973  0.00  0.00     0.000 A 
ATOM     17  C   UNL d   1      32.843  16.939 -23.153  0.00  0.00     0.000 A 
ENDROOT
BRANCH   1  18
ATOM     18  C   UNL d   1      33.113  21.249 -21.720  0.00  0.00     0.174 C 
BRANCH  18  19
ATOM     19  C   UNL d   1      32.760  21.186 -20.970  0.00  0.00     0.231 C 
ATOM     20  O   UNL d   1      33.214  21.287 -20.300  0.00  0.00    -0.643 OA
ATOM     21  O   UNL d   1      32.074  21.050 -20.567  0.00  0.00    -0.643 OA
ENDBRANCH  18  19
ENDBRANCH   1  18
TORSDOF 2
ENDMDL
MODEL 7
REMARK VINA RESULT:      -0.9      2.329      4.045
REMARK  2 active torsions:
REMARK  status: ('A' for Active; 'I' for Inactive)
REMARK    1  A    between atoms: C_10  and  N_1 
REMARK    2  A    between atoms: C_11  and  C_10 
ROOT
ATOM      1  N   UNL d   1      33.033  17.716 -23.876  0.00  0.00    -0.187 N 
ATOM      2  N   UNL d   1      33.060  18.493 -24.399  0.00  0.00    -0.162 NA
ATOM      3  C   UNL d   1      33.114  19.305 -24.058  0.00  0.00     0.102 A 
ATOM      4  C   UNL d   1      33.135  19.235 -23.239  0.00  0.00     0.024 A 
ATOM      5  C   UNL d   1      33.063  17.820 -23.057  0.00  0.00     0.281 A 
ATOM      6  C   UNL d   1      33.114  18.580 -22.738  0.00  0.00     0.059 A 
ATOM      7  C   UNL d   1      33.185  20.001 -22.918  0.00  0.00     0.002 A 
ATOM      8  C   UNL d   1      33.152  20.107 -24.242  0.00  0.00     0.019 A 
ATOM      9  C   UNL d   1      33.196  20.537 -23.542  0.00  0.00     0.002 A 
ATOM     10  O   UNL d   1      33.042  17.149 -22.553  0.00  0.00    -0.265 OA
ATOM     11  C   UNL d   1      33.143  18.680 -21.915  0.00  0.00     0.005 A 
ATOM     12  C   UNL d   1      33.215  20.101 -22.101  0.00  0.00     0.000 A 
ATOM     13  C   UNL d   1      33.153  20.506 -24.964  0.00  0.00     0.002 A 
ATOM     14  C   UNL d   1      33.241  21.362 -23.556  0.00  0.00     0.000 A 
ATOM     15  C   UNL d   1      33.194  19.446 -21.594  0.00  0.00     0.000 A 
ATOM     16  C   UNL d   1      33.240  21.754 -24.281  0.00  0.00     0.000 A 
ATOM     17  C   UNL d   1      33.197  21.333 -24.986  0.00  0.00     0.000 A 
ENDROOT
BRANCH   1  18
ATOM     18  C   UNL d   1      32.985  16.895 -24.006  0.00  0.00     0.174 C 
BRANCH  18  19
ATOM     19  C   UNL d   1      32.448  16.586 -24.559  0.00  0.00     0.231 C 
ATOM     20  O   UNL d   1      32.683  15.987 -25.060  0.00  0.00    -0.643 OA
ATOM     21  O   UNL d   1      31.697  16.629 -24.852  0.00  0.00    -0.643 OA
ENDBRANCH  18  19
ENDBRANCH   1  18
TORSDOF 2
ENDMDL
