MODEL 1
REMARK VINA RESULT:      53.4      0.000      0.000
REMARK  3 active torsions:
REMARK  status: ('A' for Active; 'I' for Inactive)
REMARK    1  A    between atoms: C_5  and  C_1 
REMARK    2  A    between atoms: C_2  and  C_5 
REMARK    3  A    between atoms: C_12  and  C_5 
ROOT
ATOM      1  C   UNL d   1      14.460  12.975  -1.801  0.00  0.00     0.021 C 
ENDROOT
BRANCH   1   2
ATOM      2  C   UNL d   1      14.510  13.792  -1.902  0.00  0.00     0.021 A 
ATOM      3  C   UNL d   1      14.327  14.281  -2.558  0.00  0.00     0.082 A 
ATOM      4  N   UNL d   1      14.491  15.055  -2.329  0.00  0.00    -0.246 NA
ATOM      5  C   UNL d   1      14.037  14.044  -3.298  0.00  0.00     0.021 C 
ATOM      6  C   UNL d   1      14.769  15.054  -1.555  0.00  0.00     0.081 A 
ATOM      7  C   UNL d   1      14.778  14.271  -1.298  0.00  0.00     0.019 A 
ATOM      8  C   UNL d   1      15.018  15.651  -1.036  0.00  0.00     0.019 A 
ATOM      9  C   UNL d   1      15.031  14.085  -0.535  0.00  0.00     0.002 A 
ATOM     10  C   UNL d   1      15.280  14.677  -0.017  0.00  0.00     0.000 A 
ATOM     11  C   UNL d   1      15.269  15.440  -0.274  0.00  0.00     0.002 A 
ENDBRANCH   1   2
BRANCH   1  12
ATOM     12  C   UNL d   1      13.851  12.540  -2.169  0.00  0.00     0.021 A 
ATOM     13  C   UNL d   1      13.264  12.133  -1.769  0.00  0.00     0.082 A 
ATOM     14  N   UNL d   1      12.776  11.780  -2.333  0.00  0.00    -0.246 NA
ATOM     15  C   UNL d   1      13.172  12.081  -0.929  0.00  0.00     0.021 C 
ATOM     16  C   UNL d   1      13.065  11.973  -3.076  0.00  0.00     0.081 A 
ATOM     17  C   UNL d   1      13.729  12.442  -2.975  0.00  0.00     0.019 A 
ATOM     18  C   UNL d   1      12.809  11.780  -3.838  0.00  0.00     0.019 A 
ATOM     19  C   UNL d   1      14.142  12.722  -3.635  0.00  0.00     0.002 A 
ATOM     20  C   UNL d   1      13.884  12.529  -4.397  0.00  0.00     0.000 A 
ATOM     21  C   UNL d   1      13.220  12.060  -4.498  0.00  0.00     0.002 A 
ENDBRANCH   1  12
BRANCH   1  22
ATOM     22  C   UNL d   1      15.004  12.579  -1.339  0.00  0.00     0.082 A 
ATOM     23  N   UNL d   1      15.757  12.437  -1.619  0.00  0.00    -0.244 NA
ATOM     24  C   UNL d   1      16.306  12.040  -1.159  0.00  0.00     0.099 A 
ATOM     25  C   UNL d   1      16.075  11.782  -0.393  0.00  0.00     0.021 A 
ATOM     26  C   UNL d   1      15.344  11.923  -0.127  0.00  0.00     0.003 A 
ATOM     27  C   UNL d   1      14.792  12.318  -0.580  0.00  0.00     0.019 A 
ENDBRANCH   1  22
TORSDOF 3
ENDMDL
