MODEL 1
REMARK VINA RESULT:       2.2      0.000      0.000
REMARK  5 active torsions:
REMARK  status: ('A' for Active; 'I' for Inactive)
REMARK    1  A    between atoms: N_6  and  S_1 
REMARK    2  A    between atoms: C_11  and  S_1 
REMARK    3  A    between atoms: C_2  and  N_8 
REMARK    4  A    between atoms: C_10  and  C_3 
REMARK       I    between atoms: N_8  and  C_9 
REMARK    5  A    between atoms: C_9  and  C_17 
REMARK       I    between atoms: N_26  and  C_10 
ROOT
ATOM      1  N   UNL d   1     -42.251-122.696 -50.698  0.00  0.00    -0.201 NA
ATOM      2  C   UNL d   1     -41.719-123.005 -51.262  0.00  0.00     0.280 C 
ATOM      3  O   UNL d   1     -41.123-123.530 -51.017  0.00  0.00    -0.265 OA
ENDROOT
BRANCH   2   4
ATOM      4  C   UNL d   1     -41.792-122.784 -52.056  0.00  0.00     0.058 A 
ATOM      5  C   UNL d   1     -41.530-123.312 -52.634  0.00  0.00     0.005 A 
ATOM      6  C   UNL d   1     -41.599-123.101 -53.434  0.00  0.00     0.013 A 
ATOM      7  C   UNL d   1     -41.927-122.370 -53.643  0.00  0.00     0.104 A 
ATOM      8  C   UNL d   1     -42.185-121.852 -53.047  0.00  0.00     0.013 A 
ATOM      9  C   UNL d   1     -42.113-122.069 -52.251  0.00  0.00     0.005 A 
BRANCH   7  10
ATOM     10  S   UNL d   1     -41.996-122.160 -54.434  0.00  0.00     0.271 S 
ATOM     11  O   UNL d   1     -42.537-121.573 -54.257  0.00  0.00    -0.200 OA
ATOM     12  O   UNL d   1     -41.444-122.761 -54.606  0.00  0.00    -0.200 OA
BRANCH  10  13
ATOM     13  N   UNL d   1     -42.062-121.955 -55.217  0.00  0.00    -0.231 N 
ATOM     14  C   UNL d   1     -42.749-122.108 -55.636  0.00  0.00     0.075 A 
ATOM     15  C   UNL d   1     -43.386-122.477 -55.258  0.00  0.00     0.020 C 
ATOM     16  C   UNL d   1     -42.809-121.897 -56.425  0.00  0.00     0.018 A 
ATOM     17  C   UNL d   1     -42.172-121.528 -56.802  0.00  0.00     0.003 A 
ATOM     18  C   UNL d   1     -41.486-121.375 -56.387  0.00  0.00     0.020 A 
ATOM     19  C   UNL d   1     -41.440-121.589 -55.603  0.00  0.00     0.092 A 
ENDBRANCH  10  13
ENDBRANCH   7  10
ENDBRANCH   2   4
BRANCH   1  20
ATOM     20  C   UNL d   1     -42.173-122.920 -49.903  0.00  0.00     0.119 A 
ATOM     21  C   UNL d   1     -42.806-123.077 -49.395  0.00  0.00     0.082 A 
ATOM     22  C   UNL d   1     -42.503-123.280 -48.659  0.00  0.00     0.016 A 
ATOM     23  C   UNL d   1     -42.868-123.488 -47.954  0.00  0.00     0.020 A 
ATOM     24  C   UNL d   1     -41.681-123.251 -48.706  0.00  0.00     0.049 A 
ATOM     25  C   UNL d   1     -42.408-123.668 -47.290  0.00  0.00     0.080 A 
ATOM     26  N   UNL d   1     -41.583-123.640 -47.331  0.00  0.00    -0.301 N 
ATOM     27  C   UNL d   1     -41.227-123.430 -48.044  0.00  0.00     0.087 A 
ATOM     28  C   UNL d   1     -41.132-123.817 -46.676  0.00  0.00     0.100 C 
ATOM     29  S   UNL d   1     -41.479-123.027 -49.482  0.00  0.00    -0.066 SA
BRANCH  21  30
ATOM     30  C   UNL d   1     -43.605-123.039 -49.584  0.00  0.00     0.281 C 
ATOM     31  O   UNL d   1     -43.958-122.318 -49.656  0.00  0.00    -0.265 OA
ATOM     32  N   UNL d   1     -44.035-123.733 -49.698  0.00  0.00    -0.205 NA
ATOM     33  C   UNL d   1     -44.834-123.709 -49.887  0.00  0.00     0.123 C 
ENDBRANCH  21  30
ENDBRANCH   1  20
TORSDOF 5
ENDMDL
