MODEL 1
REMARK VINA RESULT:       0.6      0.000      0.000
REMARK  8 active torsions:
REMARK  status: ('A' for Active; 'I' for Inactive)
REMARK    1  A    between atoms: C_4  and  C_1 
REMARK    2  A    between atoms: C_11  and  N_3 
REMARK    3  A    between atoms: N_7  and  C_4 
REMARK    4  A    between atoms: C_9  and  C_4 
REMARK       I    between atoms: C_8  and  N_7 
REMARK    5  A    between atoms: C_12  and  C_9 
REMARK    6  A    between atoms: C_18  and  C_11 
REMARK    7  A    between atoms: C_20  and  C_18 
REMARK    8  A    between atoms: C_19  and  C_20 
ROOT
ATOM      1  C   UNL d   1      31.431  18.001 -24.183  0.00  0.00     0.166 A 
ATOM      2  N   UNL d   1      31.108  18.693 -24.504  0.00  0.00    -0.225 NA
ATOM      3  N   UNL d   1      30.835  17.436 -24.142  0.00  0.00    -0.288 N 
ATOM      4  C   UNL d   1      30.139  17.771 -24.438  0.00  0.00     0.083 A 
ATOM      5  C   UNL d   1      30.316  18.551 -24.661  0.00  0.00     0.099 A 
ATOM      6  C   UNL d   1      29.383  17.470 -24.530  0.00  0.00     0.019 A 
ATOM      7  C   UNL d   1      29.724  19.027 -24.978  0.00  0.00     0.021 A 
ATOM      8  C   UNL d   1      28.787  17.946 -24.848  0.00  0.00     0.002 A 
ATOM      9  C   UNL d   1      28.955  18.727 -25.074  0.00  0.00     0.002 A 
ENDROOT
BRANCH   1  10
ATOM     10  C   UNL d   1      32.218  17.897 -23.943  0.00  0.00     0.119 C 
BRANCH  10  11
ATOM     11  N   UNL d   1      32.466  17.166 -23.658  0.00  0.00    -0.205 NA
ATOM     12  C   UNL d   1      32.971  16.693 -24.107  0.00  0.00     0.280 C 
ATOM     13  O   UNL d   1      33.220  15.963 -23.822  0.00  0.00    -0.265 OA
ATOM     14  C   UNL d   1      33.232  16.953 -24.852  0.00  0.00     0.068 C 
ENDBRANCH  10  11
BRANCH  10  15
ATOM     15  C   UNL d   1      32.750  18.521 -23.990  0.00  0.00     0.022 C 
BRANCH  15  16
ATOM     16  C   UNL d   1      32.909  18.981 -23.329  0.00  0.00     0.002 A 
ATOM     17  C   UNL d   1      33.008  18.632 -22.590  0.00  0.00     0.000 A 
ATOM     18  C   UNL d   1      33.167  19.095 -21.927  0.00  0.00     0.000 A 
ATOM     19  C   UNL d   1      33.229  19.912 -22.003  0.00  0.00     0.000 A 
ATOM     20  C   UNL d   1      33.129  20.265 -22.748  0.00  0.00     0.000 A 
ATOM     21  C   UNL d   1      32.970  19.798 -23.405  0.00  0.00     0.000 A 
ENDBRANCH  15  16
ENDBRANCH  10  15
ENDBRANCH   1  10
BRANCH   3  22
ATOM     22  C   UNL d   1      30.916  16.663 -23.855  0.00  0.00     0.082 C 
BRANCH  22  23
ATOM     23  C   UNL d   1      30.631  16.470 -23.104  0.00  0.00     0.019 C 
BRANCH  23  24
ATOM     24  C   UNL d   1      30.460  15.687 -22.908  0.00  0.00     0.002 C 
BRANCH  24  25
ATOM     25  C   UNL d   1      29.699  15.494 -22.639  0.00  0.00     0.000 C 
ATOM     26  C   UNL d   1      29.463  15.718 -21.871  0.00  0.00     0.000 C 
ENDBRANCH  24  25
ENDBRANCH  23  24
ENDBRANCH  22  23
ENDBRANCH   3  22
TORSDOF 8
ENDMDL
MODEL 2
REMARK VINA RESULT:       0.8      3.577      5.578
REMARK  8 active torsions:
REMARK  status: ('A' for Active; 'I' for Inactive)
REMARK    1  A    between atoms: C_4  and  C_1 
REMARK    2  A    between atoms: C_11  and  N_3 
REMARK    3  A    between atoms: N_7  and  C_4 
REMARK    4  A    between atoms: C_9  and  C_4 
REMARK       I    between atoms: C_8  and  N_7 
REMARK    5  A    between atoms: C_12  and  C_9 
REMARK    6  A    between atoms: C_18  and  C_11 
REMARK    7  A    between atoms: C_20  and  C_18 
REMARK    8  A    between atoms: C_19  and  C_20 
ROOT
ATOM      1  C   UNL d   1      32.760  21.262 -21.327  0.00  0.00     0.166 A 
ATOM      2  N   UNL d   1      32.665  20.579 -20.870  0.00  0.00    -0.225 NA
ATOM      3  N   UNL d   1      32.990  21.034 -22.084  0.00  0.00    -0.288 N 
ATOM      4  C   UNL d   1      33.038  20.209 -22.102  0.00  0.00     0.083 A 
ATOM      5  C   UNL d   1      32.836  19.932 -21.345  0.00  0.00     0.099 A 
ATOM      6  C   UNL d   1      33.237  19.685 -22.699  0.00  0.00     0.019 A 
ATOM      7  C   UNL d   1      32.835  19.123 -21.195  0.00  0.00     0.021 A 
ATOM      8  C   UNL d   1      33.238  18.873 -22.551  0.00  0.00     0.002 A 
ATOM      9  C   UNL d   1      33.037  18.588 -21.797  0.00  0.00     0.002 A 
ENDROOT
BRANCH   1  10
ATOM     10  C   UNL d   1      32.645  22.041 -21.068  0.00  0.00     0.119 C 
BRANCH  10  11
ATOM     11  N   UNL d   1      31.940  22.430 -21.239  0.00  0.00    -0.205 NA
ATOM     12  C   UNL d   1      31.951  23.178 -21.587  0.00  0.00     0.280 C 
ATOM     13  O   UNL d   1      31.246  23.567 -21.757  0.00  0.00    -0.265 OA
ATOM     14  C   UNL d   1      32.675  23.543 -21.767  0.00  0.00     0.068 C 
ENDBRANCH  10  11
BRANCH  10  15
ATOM     15  C   UNL d   1      33.233  22.426 -20.642  0.00  0.00     0.022 C 
BRANCH  15  16
ATOM     16  C   UNL d   1      33.143  22.556 -19.837  0.00  0.00     0.002 A 
ATOM     17  C   UNL d   1      32.985  23.311 -19.550  0.00  0.00     0.000 A 
ATOM     18  C   UNL d   1      32.895  23.441 -18.741  0.00  0.00     0.000 A 
ATOM     19  C   UNL d   1      32.964  22.811 -18.215  0.00  0.00     0.000 A 
ATOM     20  C   UNL d   1      33.124  22.049 -18.503  0.00  0.00     0.000 A 
ATOM     21  C   UNL d   1      33.212  21.927 -19.311  0.00  0.00     0.000 A 
ENDBRANCH  15  16
ENDBRANCH  10  15
ENDBRANCH   1  10
BRANCH   3  22
ATOM     22  C   UNL d   1      33.145  21.543 -22.719  0.00  0.00     0.082 C 
BRANCH  22  23
ATOM     23  C   UNL d   1      33.146  21.249 -23.491  0.00  0.00     0.019 C 
BRANCH  23  24
ATOM     24  C   UNL d   1      33.045  21.757 -24.134  0.00  0.00     0.002 C 
BRANCH  24  25
ATOM     25  C   UNL d   1      33.087  21.448 -24.903  0.00  0.00     0.000 C 
ATOM     26  C   UNL d   1      32.663  20.756 -25.096  0.00  0.00     0.000 C 
ENDBRANCH  24  25
ENDBRANCH  23  24
ENDBRANCH  22  23
ENDBRANCH   3  22
TORSDOF 8
ENDMDL
