MODEL 1
REMARK VINA RESULT:      -8.1      0.000      0.000
REMARK  4 active torsions:
REMARK  status: ('A' for Active; 'I' for Inactive)
REMARK    1  A    between atoms: N_3  and  S_1 
REMARK    2  A    between atoms: N_5  and  S_1 
REMARK    3  A    between atoms: S_2  and  N_4 
REMARK    4  A    between atoms: C_14  and  S_2 
ROOT
ATOM      1  N   UNL d   1      53.159  33.592  53.935  0.00  0.00    -0.213 N 
ATOM      2  N   UNL d   1      51.771  33.962  53.149  0.00  0.00    -0.226 N 
ATOM      3  C   UNL d   1      52.004  33.157  53.217  0.00  0.00     0.111 A 
ATOM      4  C   UNL d   1      52.232  34.553  53.471  0.00  0.00     0.111 A 
ATOM      5  C   UNL d   1      52.932  34.366  53.867  0.00  0.00     0.113 A 
ATOM      6  C   UNL d   1      52.703  32.970  53.613  0.00  0.00     0.113 A 
ENDROOT
BRANCH   2   7
ATOM      7  S   UNL d   1      51.072  34.149  52.753  0.00  0.00     0.271 S 
ATOM      8  O   UNL d   1      51.098  34.382  51.956  0.00  0.00    -0.200 OA
ATOM      9  O   UNL d   1      50.350  34.104  53.147  0.00  0.00    -0.200 OA
BRANCH   7  10
ATOM     10  C   UNL d   1      50.372  34.335  52.357  0.00  0.00     0.104 A 
ATOM     11  C   UNL d   1      50.303  34.172  51.552  0.00  0.00     0.013 A 
ATOM     12  C   UNL d   1      49.604  34.358  51.156  0.00  0.00     0.001 A 
ATOM     13  C   UNL d   1      48.977  34.708  51.568  0.00  0.00     0.000 A 
ATOM     14  C   UNL d   1      49.056  34.870  52.383  0.00  0.00     0.001 A 
ATOM     15  C   UNL d   1      49.752  34.682  52.767  0.00  0.00     0.013 A 
ENDBRANCH   7  10
ENDBRANCH   2   7
BRANCH   1  16
ATOM     16  S   UNL d   1      53.869  33.402  54.337  0.00  0.00     0.337 S 
ATOM     17  O   UNL d   1      53.977  33.640  55.117  0.00  0.00    -0.181 OA
ATOM     18  O   UNL d   1      54.463  32.974  53.944  0.00  0.00    -0.181 OA
BRANCH  16  19
ATOM     19  N   UNL d   1      54.476  33.320  54.894  0.00  0.00    -0.213 N 
ATOM     20  C   UNL d   1      54.384  32.802  55.536  0.00  0.00     0.113 C 
ATOM     21  C   UNL d   1      55.168  33.750  54.810  0.00  0.00     0.113 C 
ENDBRANCH  16  19
ENDBRANCH   1  16
TORSDOF 4
ENDMDL
MODEL 2
REMARK VINA RESULT:      -7.8      1.296      4.632
REMARK  4 active torsions:
REMARK  status: ('A' for Active; 'I' for Inactive)
REMARK    1  A    between atoms: N_3  and  S_1 
REMARK    2  A    between atoms: N_5  and  S_1 
REMARK    3  A    between atoms: S_2  and  N_4 
REMARK    4  A    between atoms: C_14  and  S_2 
ROOT
ATOM      1  N   UNL d   1      50.556  34.272  52.498  0.00  0.00    -0.213 N 
ATOM      2  N   UNL d   1      51.939  33.860  53.272  0.00  0.00    -0.226 N 
ATOM      3  C   UNL d   1      51.981  34.327  52.575  0.00  0.00     0.111 A 
ATOM      4  C   UNL d   1      51.216  33.614  53.560  0.00  0.00     0.111 A 
ATOM      5  C   UNL d   1      50.519  33.821  53.170  0.00  0.00     0.113 A 
ATOM      6  C   UNL d   1      51.284  34.535  52.185  0.00  0.00     0.113 A 
ENDROOT
BRANCH   2   7
ATOM      7  S   UNL d   1      52.635  33.652  53.662  0.00  0.00     0.271 S 
ATOM      8  O   UNL d   1      52.910  34.118  54.293  0.00  0.00    -0.200 OA
ATOM      9  O   UNL d   1      53.056  32.985  53.428  0.00  0.00    -0.200 OA
BRANCH   7  10
ATOM     10  C   UNL d   1      53.332  33.444  54.053  0.00  0.00     0.104 A 
ATOM     11  C   UNL d   1      53.567  33.867  54.721  0.00  0.00     0.013 A 
ATOM     12  C   UNL d   1      54.263  33.659  55.111  0.00  0.00     0.001 A 
ATOM     13  C   UNL d   1      54.721  33.029  54.831  0.00  0.00     0.000 A 
ATOM     14  C   UNL d   1      54.476  32.606  54.154  0.00  0.00     0.001 A 
ATOM     15  C   UNL d   1      53.785  32.819  53.774  0.00  0.00     0.013 A 
ENDBRANCH   7  10
ENDBRANCH   2   7
BRANCH   1  16
ATOM     16  S   UNL d   1      49.849  34.483  52.102  0.00  0.00     0.337 S 
ATOM     17  O   UNL d   1      49.222  34.809  52.523  0.00  0.00    -0.181 OA
ATOM     18  O   UNL d   1      49.784  34.362  51.283  0.00  0.00    -0.181 OA
BRANCH  16  19
ATOM     19  N   UNL d   1      49.090  34.751  51.907  0.00  0.00    -0.213 N 
ATOM     20  C   UNL d   1      48.739  34.523  51.190  0.00  0.00     0.113 C 
ATOM     21  C   UNL d   1      48.686  35.242  52.424  0.00  0.00     0.113 C 
ENDBRANCH  16  19
ENDBRANCH   1  16
TORSDOF 4
ENDMDL
