MODEL 1
REMARK VINA RESULT:      70.4      0.000      0.000
REMARK  6 active torsions:
REMARK  status: ('A' for Active; 'I' for Inactive)
REMARK    1  A    between atoms: C_4  and  N_1 
REMARK    2  A    between atoms: C_3  and  C_2 
REMARK    3  A    between atoms: S_6  and  C_11 
REMARK    4  A    between atoms: C_7  and  S_6 
REMARK    5  A    between atoms: C_8  and  C_10 
REMARK    6  A    between atoms: C_11  and  C_8 
ROOT
ATOM      1  C   UNL d   1      59.812  49.309  52.155  0.00  0.00     0.202 C 
ATOM      2  O   UNL d   1      60.025  49.676  52.870  0.00  0.00    -0.286 OA
ENDROOT
BRANCH   1   3
ATOM      3  C   UNL d   1      60.394  49.143  51.590  0.00  0.00     0.040 A 
ATOM      4  C   UNL d   1      60.288  48.520  51.059  0.00  0.00     0.005 A 
ATOM      5  C   UNL d   1      60.878  48.374  50.507  0.00  0.00     0.024 A 
ATOM      6  C   UNL d   1      61.570  48.834  50.476  0.00  0.00     0.127 A 
ATOM      7  C   UNL d   1      61.666  49.452  51.010  0.00  0.00     0.024 A 
ATOM      8  C   UNL d   1      61.073  49.595  51.560  0.00  0.00     0.005 A 
BRANCH   6   9
ATOM      9  N   UNL d   1      62.178  48.684  49.909  0.00  0.00    -0.114 N 
ATOM     10  O   UNL d   1      62.264  49.203  49.275  0.00  0.00    -0.532 OA
ATOM     11  O   UNL d   1      62.675  48.016  50.008  0.00  0.00    -0.532 OA
ENDBRANCH   6   9
ENDBRANCH   1   3
BRANCH   1  12
ATOM     12  C   UNL d   1      59.035  49.114  52.008  0.00  0.00     0.077 C 
BRANCH  12  13
ATOM     13  S   UNL d   1      58.466  49.707  51.871  0.00  0.00    -0.083 SA
BRANCH  13  14
ATOM     14  C   UNL d   1      57.645  49.564  52.031  0.00  0.00     0.035 A 
ATOM     15  C   UNL d   1      57.165  49.294  51.421  0.00  0.00     0.070 A 
ATOM     16  C   UNL d   1      56.355  49.153  51.578  0.00  0.00     0.007 A 
ATOM     17  C   UNL d   1      56.046  49.287  52.342  0.00  0.00     0.000 A 
ATOM     18  C   UNL d   1      56.542  49.555  52.933  0.00  0.00     0.001 A 
ATOM     19  C   UNL d   1      57.341  49.694  52.777  0.00  0.00     0.007 A 
BRANCH  15  20
ATOM     20  C   UNL d   1      57.475  49.157  50.642  0.00  0.00     0.211 C 
ATOM     21  O   UNL d   1      58.013  49.702  50.313  0.00  0.00    -0.644 OA
ATOM     22  O   UNL d   1      57.251  48.491  50.206  0.00  0.00    -0.644 OA
ENDBRANCH  15  20
ENDBRANCH  13  14
ENDBRANCH  12  13
ENDBRANCH   1  12
TORSDOF 6
ENDMDL
MODEL 2
REMARK VINA RESULT:      72.8      2.107      4.120
REMARK  6 active torsions:
REMARK  status: ('A' for Active; 'I' for Inactive)
REMARK    1  A    between atoms: C_4  and  N_1 
REMARK    2  A    between atoms: C_3  and  C_2 
REMARK    3  A    between atoms: S_6  and  C_11 
REMARK    4  A    between atoms: C_7  and  S_6 
REMARK    5  A    between atoms: C_8  and  C_10 
REMARK    6  A    between atoms: C_11  and  C_8 
ROOT
ATOM      1  C   UNL d   1      57.304  49.189  50.193  0.00  0.00     0.202 C 
ATOM      2  O   UNL d   1      56.670  49.708  50.340  0.00  0.00    -0.286 OA
ENDROOT
BRANCH   1   3
ATOM      3  C   UNL d   1      57.153  48.390  50.039  0.00  0.00     0.040 A 
ATOM      4  C   UNL d   1      57.169  48.109  49.263  0.00  0.00     0.005 A 
ATOM      5  C   UNL d   1      57.016  47.312  49.134  0.00  0.00     0.024 A 
ATOM      6  C   UNL d   1      56.848  46.793  49.761  0.00  0.00     0.127 A 
ATOM      7  C   UNL d   1      56.835  47.084  50.531  0.00  0.00     0.024 A 
ATOM      8  C   UNL d   1      56.989  47.881  50.655  0.00  0.00     0.005 A 
BRANCH   6   9
ATOM      9  N   UNL d   1      56.691  45.974  49.631  0.00  0.00    -0.114 N 
ATOM     10  O   UNL d   1      56.631  45.474  50.283  0.00  0.00    -0.532 OA
ATOM     11  O   UNL d   1      56.600  45.694  48.845  0.00  0.00    -0.532 OA
ENDBRANCH   6   9
ENDBRANCH   1   3
BRANCH   1  12
ATOM     12  C   UNL d   1      58.071  49.464  50.201  0.00  0.00     0.077 C 
BRANCH  12  13
ATOM     13  S   UNL d   1      58.699  48.965  50.426  0.00  0.00    -0.083 SA
BRANCH  13  14
ATOM     14  C   UNL d   1      59.266  49.216  51.005  0.00  0.00     0.035 A 
ATOM     15  C   UNL d   1      60.064  49.209  50.806  0.00  0.00     0.070 A 
ATOM     16  C   UNL d   1      60.623  49.457  51.377  0.00  0.00     0.007 A 
ATOM     17  C   UNL d   1      60.370  49.707  52.133  0.00  0.00     0.000 A 
ATOM     18  C   UNL d   1      59.572  49.706  52.307  0.00  0.00     0.001 A 
ATOM     19  C   UNL d   1      59.020  49.461  51.744  0.00  0.00     0.007 A 
BRANCH  15  20
ATOM     20  C   UNL d   1      60.325  48.955  50.039  0.00  0.00     0.211 C 
ATOM     21  O   UNL d   1      60.200  49.449  49.380  0.00  0.00    -0.644 OA
ATOM     22  O   UNL d   1      60.703  48.226  49.938  0.00  0.00    -0.644 OA
ENDBRANCH  15  20
ENDBRANCH  13  14
ENDBRANCH  12  13
ENDBRANCH   1  12
TORSDOF 6
ENDMDL
