MODEL 1
REMARK VINA RESULT:      49.1      0.000      0.000
REMARK  4 active torsions:
REMARK  status: ('A' for Active; 'I' for Inactive)
REMARK    1  A    between atoms: C_14  and  N_1 
REMARK    2  A    between atoms: S_12  and  C_2 
REMARK    3  A    between atoms: C_9  and  C_17 
REMARK    4  A    between atoms: C_17  and  S_12 
ROOT
ATOM      1  S   UNL d   1      59.917  48.980  50.714  0.00  0.00    -0.045 SA
ENDROOT
BRANCH   1   2
ATOM      2  C   UNL d   1      60.580  49.037  51.193  0.00  0.00     0.219 A 
ATOM      3  N   UNL d   1      61.098  48.432  51.359  0.00  0.00    -0.186 N 
ATOM      4  N   UNL d   1      61.675  48.722  51.854  0.00  0.00    -0.038 NA
ATOM      5  N   UNL d   1      61.516  49.512  51.997  0.00  0.00    -0.022 NA
ATOM      6  N   UNL d   1      60.828  49.708  51.581  0.00  0.00    -0.101 NA
BRANCH   3   7
ATOM      7  C   UNL d   1      61.048  47.660  51.077  0.00  0.00     0.087 A 
ATOM      8  C   UNL d   1      61.544  47.411  50.471  0.00  0.00     0.019 A 
ATOM      9  C   UNL d   1      61.495  46.643  50.190  0.00  0.00     0.002 A 
ATOM     10  C   UNL d   1      60.948  46.118  50.513  0.00  0.00     0.000 A 
ATOM     11  C   UNL d   1      60.452  46.368  51.119  0.00  0.00     0.002 A 
ATOM     12  C   UNL d   1      60.502  47.140  51.402  0.00  0.00     0.019 A 
ENDBRANCH   3   7
ENDBRANCH   1   2
BRANCH   1  13
ATOM     13  C   UNL d   1      59.591  49.648  50.413  0.00  0.00     0.059 C 
BRANCH  13  14
ATOM     14  C   UNL d   1      58.797  49.658  50.232  0.00  0.00     0.107 A 
ATOM     15  N   UNL d   1      58.482  49.682  49.458  0.00  0.00    -0.226 NA
ATOM     16  C   UNL d   1      57.628  49.685  49.539  0.00  0.00     0.148 A 
ATOM     17  C   UNL d   1      57.018  49.705  48.962  0.00  0.00     0.037 A 
ATOM     18  N   UNL d   1      57.442  49.664  50.356  0.00  0.00    -0.289 N 
ATOM     19  C   UNL d   1      56.222  49.703  49.218  0.00  0.00     0.005 A 
ATOM     20  C   UNL d   1      56.035  49.681  50.035  0.00  0.00     0.018 A 
ATOM     21  C   UNL d   1      56.643  49.662  50.601  0.00  0.00     0.066 A 
ATOM     22  C   UNL d   1      56.459  49.640  51.409  0.00  0.00     0.019 C 
ATOM     23  C   UNL d   1      58.178  49.647  50.789  0.00  0.00     0.101 A 
ENDBRANCH  13  14
ENDBRANCH   1  13
TORSDOF 4
ENDMDL
