MODEL 1
REMARK VINA RESULT:      89.3      0.000      0.000
REMARK  5 active torsions:
REMARK  status: ('A' for Active; 'I' for Inactive)
REMARK    1  A    between atoms: C_8  and  S_1 
REMARK    2  A    between atoms: N_10  and  S_1 
REMARK    3  A    between atoms: C_6  and  C_17 
REMARK    4  A    between atoms: C_18  and  N_10 
REMARK    5  A    between atoms: O_24  and  C_19 
ROOT
ATOM      1  C   UNL d   1      58.657  49.695  52.315  0.00  0.00     0.021 A 
ATOM      2  C   UNL d   1      59.337  49.684  51.050  0.00  0.00     0.094 A 
ATOM      3  C   UNL d   1      59.361  49.685  51.874  0.00  0.00     0.021 A 
ATOM      4  C   UNL d   1      57.935  49.703  51.922  0.00  0.00     0.002 A 
ATOM      5  C   UNL d   1      57.900  49.701  51.105  0.00  0.00     0.002 A 
ATOM      6  C   UNL d   1      58.605  49.692  50.664  0.00  0.00     0.020 A 
ENDROOT
BRANCH   2   7
ATOM      7  N   UNL d   1      60.032  49.674  50.615  0.00  0.00    -0.158 NA
BRANCH   7   8
ATOM      8  S   UNL d   1      60.442  48.970  50.517  0.00  0.00     0.285 S 
ATOM      9  O   UNL d   1      61.125  49.347  50.794  0.00  0.00    -0.198 OA
ATOM     10  O   UNL d   1      59.762  48.586  50.238  0.00  0.00    -0.198 OA
BRANCH   8  11
ATOM     11  C   UNL d   1      60.868  48.259  50.420  0.00  0.00     0.108 A 
ATOM     12  C   UNL d   1      60.664  47.606  50.856  0.00  0.00     0.045 A 
ATOM     13  C   UNL d   1      61.073  46.898  50.773  0.00  0.00     0.163 A 
ATOM     14  F   UNL d   1      60.867  46.242  51.212  0.00  0.00    -0.202 F 
ATOM     15  C   UNL d   1      61.702  46.860  50.233  0.00  0.00     0.121 A 
ATOM     16  C   UNL d   1      61.910  47.523  49.790  0.00  0.00     0.027 A 
ATOM     17  C   UNL d   1      61.493  48.240  49.876  0.00  0.00     0.015 A 
BRANCH  15  18
ATOM     18  O   UNL d   1      62.113  46.171  50.141  0.00  0.00    -0.326 OA
ATOM     19  C   UNL d   1      62.239  45.862  49.401  0.00  0.00     0.181 C 
ENDBRANCH  15  18
ENDBRANCH   8  11
ENDBRANCH   7   8
ENDBRANCH   2   7
BRANCH   1  20
ATOM     20  C   UNL d   1      58.695  49.696  53.138  0.00  0.00     0.102 A 
ATOM     21  N   UNL d   1      57.984  49.694  53.569  0.00  0.00    -0.162 NA
ATOM     22  N   UNL d   1      58.015  49.695  54.404  0.00  0.00    -0.189 N 
ATOM     23  C   UNL d   1      57.423  49.694  54.965  0.00  0.00     0.224 A 
ATOM     24  C   UNL d   1      58.747  49.698  54.798  0.00  0.00     0.187 A 
ATOM     25  N   UNL d   1      57.770  49.696  55.699  0.00  0.00    -0.124 NA
ATOM     26  N   UNL d   1      58.584  49.699  55.588  0.00  0.00    -0.127 NA
ATOM     27  C   UNL d   1      59.450  49.700  54.345  0.00  0.00     0.042 A 
ATOM     28  C   UNL d   1      59.417  49.699  53.516  0.00  0.00     0.024 A 
ENDBRANCH   1  20
TORSDOF 5
ENDMDL
