MODEL 1
REMARK VINA RESULT:      -6.5      0.000      0.000
REMARK  6 active torsions:
REMARK  status: ('A' for Active; 'I' for Inactive)
REMARK    1  A    between atoms: N_2  and  C_1 
REMARK    2  A    between atoms: C_8  and  C_5 
REMARK    3  A    between atoms: C_6  and  C_9 
REMARK       I    between atoms: N_13  and  C_6 
REMARK    4  A    between atoms: C_9  and  C_8 
REMARK    5  A    between atoms: C_14  and  C_11 
REMARK    6  A    between atoms: C_16  and  N_13 
ROOT
ATOM      1  C   UNL d   1     -48.115  13.085  22.483  0.00  0.00     0.279 C 
ATOM      2  N   UNL d   1     -48.692  13.304  21.946  0.00  0.00    -0.208 NA
ATOM      3  O   UNL d   1     -48.338  12.954  23.275  0.00  0.00    -0.265 OA
ENDROOT
BRANCH   1   4
ATOM      4  C   UNL d   1     -47.344  12.997  22.249  0.00  0.00     0.063 C 
BRANCH   4   5
ATOM      5  C   UNL d   1     -46.730  13.138  22.793  0.00  0.00     0.011 C 
BRANCH   5   6
ATOM      6  C   UNL d   1     -45.934  12.931  22.598  0.00  0.00     0.031 A 
ATOM      7  S   UNL d   1     -45.447  12.308  22.836  0.00  0.00    -0.064 SA
ATOM      8  C   UNL d   1     -44.737  12.401  22.461  0.00  0.00     0.156 A 
ATOM      9  C   UNL d   1     -44.768  13.073  21.989  0.00  0.00     0.031 A 
ATOM     10  C   UNL d   1     -45.525  13.403  22.079  0.00  0.00     0.009 A 
BRANCH   8  11
ATOM     11  N   UNL d   1     -44.061  11.900  22.530  0.00  0.00    -0.107 N 
ATOM     12  O   UNL d   1     -44.060  11.291  23.103  0.00  0.00    -0.531 OA
ATOM     13  O   UNL d   1     -43.404  12.002  22.041  0.00  0.00    -0.531 OA
ENDBRANCH   8  11
ENDBRANCH   5   6
ENDBRANCH   4   5
ENDBRANCH   1   4
BRANCH   2  14
ATOM     14  C   UNL d   1     -49.477  13.397  22.170  0.00  0.00     0.085 A 
ATOM     15  C   UNL d   1     -49.772  14.122  22.365  0.00  0.00     0.022 A 
ATOM     16  C   UNL d   1     -50.570  14.213  22.591  0.00  0.00     0.041 A 
ATOM     17  C   UNL d   1     -51.064  13.554  22.616  0.00  0.00     0.003 A 
ATOM     18  C   UNL d   1     -50.750  12.813  22.413  0.00  0.00     0.002 A 
ATOM     19  C   UNL d   1     -49.967  12.733  22.192  0.00  0.00     0.019 A 
BRANCH  16  20
ATOM     20  C   UNL d   1     -50.872  14.954  22.791  0.00  0.00     0.196 C 
ATOM     21  O   UNL d   1     -51.064  15.481  22.205  0.00  0.00    -0.287 OA
ATOM     22  C   UNL d   1     -50.986  15.176  23.593  0.00  0.00     0.045 C 
ENDBRANCH  16  20
ENDBRANCH   2  14
TORSDOF 6
ENDMDL
MODEL 2
REMARK VINA RESULT:      -6.2      1.350      1.876
REMARK  6 active torsions:
REMARK  status: ('A' for Active; 'I' for Inactive)
REMARK    1  A    between atoms: N_2  and  C_1 
REMARK    2  A    between atoms: C_8  and  C_5 
REMARK    3  A    between atoms: C_6  and  C_9 
REMARK       I    between atoms: N_13  and  C_6 
REMARK    4  A    between atoms: C_9  and  C_8 
REMARK    5  A    between atoms: C_14  and  C_11 
REMARK    6  A    between atoms: C_16  and  N_13 
ROOT
ATOM      1  C   UNL d   1     -47.437  13.162  22.943  0.00  0.00     0.279 C 
ATOM      2  N   UNL d   1     -47.808  13.405  22.255  0.00  0.00    -0.208 NA
ATOM      3  O   UNL d   1     -47.696  13.483  23.667  0.00  0.00    -0.265 OA
ENDROOT
BRANCH   1   4
ATOM      4  C   UNL d   1     -46.834  12.622  22.921  0.00  0.00     0.063 C 
BRANCH   4   5
ATOM      5  C   UNL d   1     -46.769  12.051  23.524  0.00  0.00     0.011 C 
BRANCH   5   6
ATOM      6  C   UNL d   1     -46.138  11.488  23.509  0.00  0.00     0.031 A 
ATOM      7  S   UNL d   1     -45.334  11.559  23.336  0.00  0.00    -0.064 SA
ATOM      8  C   UNL d   1     -45.006  10.824  23.415  0.00  0.00     0.156 A 
ATOM      9  C   UNL d   1     -45.591  10.290  23.635  0.00  0.00     0.031 A 
ATOM     10  C   UNL d   1     -46.302  10.714  23.693  0.00  0.00     0.009 A 
BRANCH   8  11
ATOM     11  N   UNL d   1     -44.196  10.619  23.295  0.00  0.00    -0.107 N 
ATOM     12  O   UNL d   1     -43.659  11.205  23.038  0.00  0.00    -0.531 OA
ATOM     13  O   UNL d   1     -43.929   9.849  23.428  0.00  0.00    -0.531 OA
ENDBRANCH   8  11
ENDBRANCH   5   6
ENDBRANCH   4   5
ENDBRANCH   1   4
BRANCH   2  14
ATOM     14  C   UNL d   1     -48.421  13.951  22.264  0.00  0.00     0.085 A 
ATOM     15  C   UNL d   1     -49.190  13.715  22.221  0.00  0.00     0.022 A 
ATOM     16  C   UNL d   1     -49.810  14.273  22.230  0.00  0.00     0.041 A 
ATOM     17  C   UNL d   1     -49.636  15.076  22.283  0.00  0.00     0.003 A 
ATOM     18  C   UNL d   1     -48.839  15.308  22.326  0.00  0.00     0.002 A 
ATOM     19  C   UNL d   1     -48.238  14.755  22.317  0.00  0.00     0.019 A 
BRANCH  16  20
ATOM     20  C   UNL d   1     -50.598  14.032  22.186  0.00  0.00     0.196 C 
ATOM     21  O   UNL d   1     -51.062  14.051  22.851  0.00  0.00    -0.287 OA
ATOM     22  C   UNL d   1     -50.932  13.765  21.463  0.00  0.00     0.045 C 
ENDBRANCH  16  20
ENDBRANCH   2  14
TORSDOF 6
ENDMDL
MODEL 3
REMARK VINA RESULT:      -4.1      2.067      2.992
REMARK  6 active torsions:
REMARK  status: ('A' for Active; 'I' for Inactive)
REMARK    1  A    between atoms: N_2  and  C_1 
REMARK    2  A    between atoms: C_8  and  C_5 
REMARK    3  A    between atoms: C_6  and  C_9 
REMARK       I    between atoms: N_13  and  C_6 
REMARK    4  A    between atoms: C_9  and  C_8 
REMARK    5  A    between atoms: C_14  and  C_11 
REMARK    6  A    between atoms: C_16  and  N_13 
ROOT
ATOM      1  C   UNL d   1     -45.486  13.211  22.171  0.00  0.00     0.279 C 
ATOM      2  N   UNL d   1     -45.893  13.474  22.830  0.00  0.00    -0.208 NA
ATOM      3  O   UNL d   1     -45.910  12.806  21.579  0.00  0.00    -0.265 OA
ENDROOT
BRANCH   1   4
ATOM      4  C   UNL d   1     -44.690  13.342  22.096  0.00  0.00     0.063 C 
BRANCH   4   5
ATOM      5  C   UNL d   1     -44.267  12.967  21.485  0.00  0.00     0.011 C 
BRANCH   5   6
ATOM      6  C   UNL d   1     -43.441  13.118  21.385  0.00  0.00     0.031 A 
ATOM      7  S   UNL d   1     -43.022  13.800  21.181  0.00  0.00    -0.064 SA
ATOM      8  C   UNL d   1     -42.237  13.605  21.173  0.00  0.00     0.156 A 
ATOM      9  C   UNL d   1     -42.154  12.812  21.369  0.00  0.00     0.031 A 
ATOM     10  C   UNL d   1     -42.916  12.510  21.502  0.00  0.00     0.009 A 
BRANCH   8  11
ATOM     11  N   UNL d   1     -41.593  14.121  20.994  0.00  0.00    -0.107 N 
ATOM     12  O   UNL d   1     -40.833  13.797  20.865  0.00  0.00    -0.531 OA
ATOM     13  O   UNL d   1     -41.703  14.937  20.945  0.00  0.00    -0.531 OA
ENDBRANCH   8  11
ENDBRANCH   5   6
ENDBRANCH   4   5
ENDBRANCH   1   4
BRANCH   2  14
ATOM     14  C   UNL d   1     -46.700  13.349  22.919  0.00  0.00     0.085 A 
ATOM     15  C   UNL d   1     -47.237  13.892  22.661  0.00  0.00     0.022 A 
ATOM     16  C   UNL d   1     -48.056  13.761  22.753  0.00  0.00     0.041 A 
ATOM     17  C   UNL d   1     -48.321  13.069  23.112  0.00  0.00     0.003 A 
ATOM     18  C   UNL d   1     -47.758  12.516  23.374  0.00  0.00     0.002 A 
ATOM     19  C   UNL d   1     -46.958  12.652  23.280  0.00  0.00     0.019 A 
BRANCH  16  20
ATOM     20  C   UNL d   1     -48.606  14.316  22.489  0.00  0.00     0.196 C 
ATOM     21  O   UNL d   1     -48.945  14.229  21.757  0.00  0.00    -0.287 OA
ATOM     22  C   UNL d   1     -48.824  14.973  22.964  0.00  0.00     0.045 C 
ENDBRANCH  16  20
ENDBRANCH   2  14
TORSDOF 6
ENDMDL
MODEL 4
REMARK VINA RESULT:      -3.5      3.059      4.959
REMARK  6 active torsions:
REMARK  status: ('A' for Active; 'I' for Inactive)
REMARK    1  A    between atoms: N_2  and  C_1 
REMARK    2  A    between atoms: C_8  and  C_5 
REMARK    3  A    between atoms: C_6  and  C_9 
REMARK       I    between atoms: N_13  and  C_6 
REMARK    4  A    between atoms: C_9  and  C_8 
REMARK    5  A    between atoms: C_14  and  C_11 
REMARK    6  A    between atoms: C_16  and  N_13 
ROOT
ATOM      1  C   UNL d   1     -43.435  12.891  21.528  0.00  0.00     0.279 C 
ATOM      2  N   UNL d   1     -44.177  13.235  21.518  0.00  0.00    -0.208 NA
ATOM      3  O   UNL d   1     -43.300  12.257  22.051  0.00  0.00    -0.265 OA
ENDROOT
BRANCH   1   4
ATOM      4  C   UNL d   1     -42.847  13.161  21.041  0.00  0.00     0.063 C 
BRANCH   4   5
ATOM      5  C   UNL d   1     -42.135  13.441  21.371  0.00  0.00     0.011 C 
BRANCH   5   6
ATOM      6  C   UNL d   1     -41.593  13.885  20.898  0.00  0.00     0.031 A 
ATOM      7  S   UNL d   1     -41.242  13.734  20.166  0.00  0.00    -0.064 SA
ATOM      8  C   UNL d   1     -40.771  14.367  19.992  0.00  0.00     0.156 A 
ATOM      9  C   UNL d   1     -40.819  14.916  20.602  0.00  0.00     0.031 A 
ATOM     10  C   UNL d   1     -41.339  14.607  21.170  0.00  0.00     0.009 A 
BRANCH   8  11
ATOM     11  N   UNL d   1     -40.297  14.467  19.299  0.00  0.00    -0.107 N 
ATOM     12  O   UNL d   1     -39.466  14.489  19.372  0.00  0.00    -0.531 OA
ATOM     13  O   UNL d   1     -40.645  14.543  18.555  0.00  0.00    -0.531 OA
ENDBRANCH   8  11
ENDBRANCH   5   6
ENDBRANCH   4   5
ENDBRANCH   1   4
BRANCH   2  14
ATOM     14  C   UNL d   1     -44.783  12.972  22.006  0.00  0.00     0.085 A 
ATOM     15  C   UNL d   1     -45.426  13.434  22.158  0.00  0.00     0.022 A 
ATOM     16  C   UNL d   1     -46.040  13.164  22.654  0.00  0.00     0.041 A 
ATOM     17  C   UNL d   1     -45.990  12.415  22.994  0.00  0.00     0.003 A 
ATOM     18  C   UNL d   1     -45.323  11.947  22.829  0.00  0.00     0.002 A 
ATOM     19  C   UNL d   1     -44.727  12.220  22.342  0.00  0.00     0.019 A 
BRANCH  16  20
ATOM     20  C   UNL d   1     -46.697  13.636  22.811  0.00  0.00     0.196 C 
ATOM     21  O   UNL d   1     -46.621  14.286  23.291  0.00  0.00    -0.287 OA
ATOM     22  C   UNL d   1     -47.450  13.459  22.482  0.00  0.00     0.045 C 
ENDBRANCH  16  20
ENDBRANCH   2  14
TORSDOF 6
ENDMDL
