MODEL 1
REMARK VINA RESULT:      74.8      0.000      0.000
REMARK  5 active torsions:
REMARK  status: ('A' for Active; 'I' for Inactive)
REMARK    1  A    between atoms: N_6  and  C_1 
REMARK    2  A    between atoms: S_2  and  C_11 
REMARK    3  A    between atoms: N_8  and  S_2 
REMARK    4  A    between atoms: C_10  and  C_3 
REMARK       I    between atoms: C_9  and  N_6 
REMARK    5  A    between atoms: C_14  and  C_9 
REMARK       I    between atoms: N_22  and  C_10 
ROOT
ATOM      1  C   UNL d   1     -50.377  26.785  33.633  0.00  0.00     0.104 A 
ATOM      2  C   UNL d   1     -49.594  28.236  33.799  0.00  0.00     0.058 A 
ATOM      3  C   UNL d   1     -50.735  27.477  33.372  0.00  0.00     0.013 A 
ATOM      4  C   UNL d   1     -49.619  26.813  33.981  0.00  0.00     0.013 A 
ATOM      5  C   UNL d   1     -50.345  28.204  33.454  0.00  0.00     0.005 A 
ATOM      6  C   UNL d   1     -49.231  27.537  34.063  0.00  0.00     0.005 A 
ENDROOT
BRANCH   2   7
ATOM      7  C   UNL d   1     -49.206  28.960  33.880  0.00  0.00     0.280 C 
ATOM      8  N   UNL d   1     -48.742  29.031  34.720  0.00  0.00    -0.201 NA
ATOM      9  O   UNL d   1     -49.294  29.358  33.333  0.00  0.00    -0.265 OA
BRANCH   8  10
ATOM     10  C   UNL d   1     -48.409  29.689  34.754  0.00  0.00     0.119 A 
ATOM     11  C   UNL d   1     -47.831  30.104  35.061  0.00  0.00     0.082 A 
ATOM     12  C   UNL d   1     -47.874  30.842  34.777  0.00  0.00     0.013 A 
ATOM     13  C   UNL d   1     -47.434  31.487  34.899  0.00  0.00     0.001 A 
ATOM     14  C   UNL d   1     -48.495  30.872  34.287  0.00  0.00     0.031 A 
ATOM     15  C   UNL d   1     -47.615  32.160  34.531  0.00  0.00     0.001 A 
ATOM     16  C   UNL d   1     -48.231  32.191  34.044  0.00  0.00     0.006 A 
ATOM     17  S   UNL d   1     -48.826  30.160  34.272  0.00  0.00    -0.068 SA
BRANCH  11  18
ATOM     18  C   UNL d   1     -47.289  29.838  35.569  0.00  0.00     0.281 C 
ATOM     19  O   UNL d   1     -46.868  29.192  35.393  0.00  0.00    -0.265 OA
ATOM     20  N   UNL d   1     -47.166  30.215  36.254  0.00  0.00    -0.205 NA
ATOM     21  C   UNL d   1     -46.599  29.934  36.783  0.00  0.00     0.123 C 
ENDBRANCH  11  18
ENDBRANCH   8  10
ENDBRANCH   2   7
BRANCH   1  22
ATOM     22  S   UNL d   1     -50.767  26.058  33.552  0.00  0.00     0.272 S 
ATOM     23  O   UNL d   1     -50.058  25.704  33.320  0.00  0.00    -0.200 OA
ATOM     24  O   UNL d   1     -51.478  26.413  33.785  0.00  0.00    -0.200 OA
BRANCH  22  25
ATOM     25  N   UNL d   1     -51.155  25.334  33.470  0.00  0.00    -0.225 N 
ATOM     26  C   UNL d   1     -51.979  25.302  33.452  0.00  0.00     0.118 A 
ATOM     27  C   UNL d   1     -52.370  24.572  33.369  0.00  0.00     0.142 A 
ATOM     28  O   UNL d   1     -51.930  23.873  33.306  0.00  0.00    -0.300 OA
ATOM     29  C   UNL d   1     -51.114  23.908  33.325  0.00  0.00     0.142 A 
ATOM     30  C   UNL d   1     -50.725  24.631  33.406  0.00  0.00     0.118 A 
ENDBRANCH  22  25
ENDBRANCH   1  22
TORSDOF 5
ENDMDL
MODEL 2
REMARK VINA RESULT:      74.9      1.115      6.089
REMARK  5 active torsions:
REMARK  status: ('A' for Active; 'I' for Inactive)
REMARK    1  A    between atoms: N_6  and  C_1 
REMARK    2  A    between atoms: S_2  and  C_11 
REMARK    3  A    between atoms: N_8  and  S_2 
REMARK    4  A    between atoms: C_10  and  C_3 
REMARK       I    between atoms: C_9  and  N_6 
REMARK    5  A    between atoms: C_14  and  C_9 
REMARK       I    between atoms: N_22  and  C_10 
ROOT
ATOM      1  C   UNL d   1     -48.552  29.104  34.700  0.00  0.00     0.104 A 
ATOM      2  C   UNL d   1     -49.267  27.631  34.449  0.00  0.00     0.058 A 
ATOM      3  C   UNL d   1     -48.800  28.891  33.945  0.00  0.00     0.013 A 
ATOM      4  C   UNL d   1     -48.660  28.579  35.338  0.00  0.00     0.013 A 
ATOM      5  C   UNL d   1     -49.158  28.155  33.818  0.00  0.00     0.005 A 
ATOM      6  C   UNL d   1     -49.016  27.845  35.211  0.00  0.00     0.005 A 
ENDROOT
BRANCH   2   7
ATOM      7  C   UNL d   1     -49.623  26.897  34.321  0.00  0.00     0.280 C 
ATOM      8  N   UNL d   1     -50.311  26.938  33.650  0.00  0.00    -0.201 NA
ATOM      9  O   UNL d   1     -49.354  26.412  34.720  0.00  0.00    -0.265 OA
BRANCH   8  10
ATOM     10  C   UNL d   1     -50.603  26.266  33.566  0.00  0.00     0.119 A 
ATOM     11  C   UNL d   1     -51.251  25.852  33.468  0.00  0.00     0.082 A 
ATOM     12  C   UNL d   1     -51.056  25.087  33.424  0.00  0.00     0.013 A 
ATOM     13  C   UNL d   1     -51.486  24.430  33.328  0.00  0.00     0.001 A 
ATOM     14  C   UNL d   1     -50.268  25.038  33.498  0.00  0.00     0.031 A 
ATOM     15  C   UNL d   1     -51.129  23.728  33.306  0.00  0.00     0.001 A 
ATOM     16  C   UNL d   1     -50.348  23.678  33.378  0.00  0.00     0.006 A 
ATOM     17  S   UNL d   1     -49.989  25.766  33.585  0.00  0.00    -0.068 SA
BRANCH  11  18
ATOM     18  C   UNL d   1     -51.983  26.143  33.420  0.00  0.00     0.281 C 
ATOM     19  O   UNL d   1     -52.097  26.926  33.433  0.00  0.00    -0.265 OA
ATOM     20  N   UNL d   1     -52.603  25.655  33.359  0.00  0.00    -0.205 NA
ATOM     21  C   UNL d   1     -53.367  25.963  33.309  0.00  0.00     0.123 C 
ENDBRANCH  11  18
ENDBRANCH   8  10
ENDBRANCH   2   7
BRANCH   1  22
ATOM     22  S   UNL d   1     -48.194  29.841  34.827  0.00  0.00     0.272 S 
ATOM     23  O   UNL d   1     -48.695  30.182  34.267  0.00  0.00    -0.200 OA
ATOM     24  O   UNL d   1     -47.691  29.500  35.391  0.00  0.00    -0.200 OA
BRANCH  22  25
ATOM     25  N   UNL d   1     -47.838  30.575  34.954  0.00  0.00    -0.225 N 
ATOM     26  C   UNL d   1     -47.939  31.187  34.412  0.00  0.00     0.118 A 
ATOM     27  C   UNL d   1     -47.580  31.928  34.540  0.00  0.00     0.142 A 
ATOM     28  O   UNL d   1     -47.118  32.049  35.217  0.00  0.00    -0.300 OA
ATOM     29  C   UNL d   1     -47.020  31.441  35.753  0.00  0.00     0.142 A 
ATOM     30  C   UNL d   1     -47.376  30.707  35.626  0.00  0.00     0.118 A 
ENDBRANCH  22  25
ENDBRANCH   1  22
TORSDOF 5
ENDMDL
