MODEL 1
REMARK VINA RESULT:      55.9      0.000      0.000
REMARK  5 active torsions:
REMARK  status: ('A' for Active; 'I' for Inactive)
REMARK    1  A    between atoms: C_12  and  C_1 
REMARK    2  A    between atoms: C_4  and  O_8 
REMARK       I    between atoms: N_11  and  C_4 
REMARK    3  A    between atoms: O_8  and  C_13 
REMARK    4  A    between atoms: C_17  and  N_11 
REMARK    5  A    between atoms: C_18  and  N_11 
ROOT
ATOM      1  C   UNL d   1     -51.020  25.339  33.483  0.00  0.00     0.064 A 
ATOM      2  C   UNL d   1     -51.236  26.123  33.636  0.00  0.00     0.199 A 
ATOM      3  C   UNL d   1     -50.651  26.699  33.694  0.00  0.00     0.062 A 
ATOM      4  C   UNL d   1     -50.227  25.134  33.389  0.00  0.00     0.126 A 
ATOM      5  C   UNL d   1     -49.857  26.498  33.601  0.00  0.00     0.105 A 
ATOM      6  O   UNL d   1     -49.641  25.713  33.448  0.00  0.00    -0.305 OA
ATOM      7  C   UNL d   1     -49.269  27.082  33.660  0.00  0.00     0.050 A 
ATOM      8  C   UNL d   1     -50.860  27.494  33.848  0.00  0.00     0.007 A 
ATOM      9  C   UNL d   1     -49.478  27.863  33.812  0.00  0.00     0.107 A 
ATOM     10  O   UNL d   1     -52.030  26.329  33.730  0.00  0.00    -0.286 OA
ATOM     11  C   UNL d   1     -50.275  28.070  33.906  0.00  0.00     0.025 A 
ENDROOT
BRANCH   9  12
ATOM     12  O   UNL d   1     -48.896  28.441  33.870  0.00  0.00    -0.259 OA
BRANCH  12  13
ATOM     13  C   UNL d   1     -48.440  28.502  34.550  0.00  0.00     0.377 C 
ATOM     14  N   UNL d   1     -48.169  29.245  34.795  0.00  0.00    -0.252 N 
ATOM     15  O   UNL d   1     -48.253  27.828  34.985  0.00  0.00    -0.237 OA
BRANCH  14  16
ATOM     16  C   UNL d   1     -48.354  29.923  34.362  0.00  0.00     0.085 C 
ATOM     17  C   UNL d   1     -47.772  30.497  34.241  0.00  0.00     0.021 C 
ENDBRANCH  14  16
BRANCH  14  18
ATOM     18  C   UNL d   1     -47.710  29.306  35.479  0.00  0.00     0.085 C 
ATOM     19  C   UNL d   1     -47.964  29.768  36.114  0.00  0.00     0.021 C 
ENDBRANCH  14  18
ENDBRANCH  12  13
ENDBRANCH   9  12
BRANCH   1  20
ATOM     20  C   UNL d   1     -51.608  24.755  33.424  0.00  0.00     0.005 A 
ATOM     21  C   UNL d   1     -51.385  23.963  33.365  0.00  0.00     0.000 A 
ATOM     22  C   UNL d   1     -51.973  23.380  33.306  0.00  0.00     0.000 A 
ATOM     23  C   UNL d   1     -52.768  23.592  33.307  0.00  0.00     0.000 A 
ATOM     24  C   UNL d   1     -52.976  24.392  33.368  0.00  0.00     0.000 A 
ATOM     25  C   UNL d   1     -52.395  24.971  33.426  0.00  0.00     0.000 A 
ENDBRANCH   1  20
TORSDOF 5
ENDMDL
