MODEL 1
REMARK VINA RESULT:      59.5      0.000      0.000
REMARK  6 active torsions:
REMARK  status: ('A' for Active; 'I' for Inactive)
REMARK    1  A    between atoms: C_4  and  C_1 
REMARK    2  A    between atoms: N_7  and  C_2 
REMARK    3  A    between atoms: C_6  and  C_4 
REMARK    4  A    between atoms: C_8  and  C_4 
REMARK    5  A    between atoms: O_13  and  C_6 
REMARK    6  A    between atoms: C_19  and  O_13 
ROOT
ATOM      1  C   UNL d   1     -57.990 -98.898 -44.924  0.00  0.00     0.122 A 
ATOM      2  C   UNL d   1     -58.751 -98.908 -44.603  0.00  0.00     0.166 A 
ATOM      3  N   UNL d   1     -59.408 -98.877 -45.108  0.00  0.00    -0.225 NA
ATOM      4  N   UNL d   1     -57.878 -98.858 -45.744  0.00  0.00    -0.241 NA
ATOM      5  C   UNL d   1     -59.300 -98.837 -45.926  0.00  0.00     0.101 A 
ATOM      6  C   UNL d   1     -58.531 -98.828 -46.242  0.00  0.00     0.099 A 
ATOM      7  C   UNL d   1     -59.954 -98.807 -46.428  0.00  0.00     0.021 A 
ATOM      8  C   UNL d   1     -58.427 -98.788 -47.058  0.00  0.00     0.021 A 
ATOM      9  C   UNL d   1     -59.082 -98.758 -47.559  0.00  0.00     0.002 A 
ATOM     10  C   UNL d   1     -59.842 -98.767 -47.248  0.00  0.00     0.002 A 
ENDROOT
BRANCH   1  11
ATOM     11  C   UNL d   1     -57.323 -98.929 -44.424  0.00  0.00     0.105 C 
BRANCH  11  12
ATOM     12  C   UNL d   1     -56.571 -99.059 -44.732  0.00  0.00     0.303 C 
ATOM     13  O   UNL d   1     -56.383 -98.781 -45.486  0.00  0.00    -0.259 OA
BRANCH  12  14
ATOM     14  O   UNL d   1     -56.006 -99.467 -44.289  0.00  0.00    -0.273 OA
BRANCH  14  15
ATOM     15  C   UNL d   1     -55.615-100.169 -44.113  0.00  0.00     0.103 A 
ATOM     16  C   UNL d   1     -55.251-100.254 -43.381  0.00  0.00     0.025 A 
ATOM     17  C   UNL d   1     -54.861-100.952 -43.205  0.00  0.00     0.002 A 
ATOM     18  C   UNL d   1     -54.828-101.569 -43.749  0.00  0.00     0.000 A 
ATOM     19  C   UNL d   1     -55.198-101.472 -44.482  0.00  0.00     0.002 A 
ATOM     20  C   UNL d   1     -55.590-100.773 -44.663  0.00  0.00     0.025 A 
ENDBRANCH  14  15
ENDBRANCH  12  14
ENDBRANCH  11  12
BRANCH  11  21
ATOM     21  C   UNL d   1     -57.415 -98.825 -43.598  0.00  0.00     0.129 C 
ATOM     22  N   UNL d   1     -56.808 -99.195 -42.961  0.00  0.00    -0.146 N 
ENDBRANCH  11  21
ENDBRANCH   1  11
BRANCH   2  23
ATOM     23  N   UNL d   1     -58.855 -98.948 -43.787  0.00  0.00    -0.285 N 
ATOM     24  C   UNL d   1     -59.594 -99.170 -43.478  0.00  0.00     0.101 A 
ATOM     25  C   UNL d   1     -59.709 -99.213 -42.666  0.00  0.00     0.100 A 
ATOM     26  N   UNL d   1     -59.082 -99.033 -42.154  0.00  0.00    -0.299 N 
ATOM     27  C   UNL d   1     -58.344 -98.810 -42.463  0.00  0.00     0.100 A 
ATOM     28  C   UNL d   1     -59.191 -99.074 -41.326  0.00  0.00     0.100 C 
ATOM     29  C   UNL d   1     -58.232 -98.768 -43.282  0.00  0.00     0.101 A 
ENDBRANCH   2  23
TORSDOF 6
ENDMDL
