MODEL 1
REMARK VINA RESULT:      -9.3      0.000      0.000
REMARK  4 active torsions:
REMARK  status: ('A' for Active; 'I' for Inactive)
REMARK    1  A    between atoms: N_2  and  S_1 
REMARK    2  A    between atoms: C_6  and  S_1 
REMARK    3  A    between atoms: C_3  and  C_11 
REMARK       I    between atoms: N_4  and  C_3 
REMARK    4  A    between atoms: C_17  and  N_5 
ROOT
ATOM      1  C   UNL d   1      50.225  34.670  52.577  0.00  0.00     0.104 A 
ATOM      2  C   UNL d   1      51.766  34.122  52.943  0.00  0.00     0.057 A 
ATOM      3  C   UNL d   1      50.792  34.531  51.962  0.00  0.00     0.013 A 
ATOM      4  C   UNL d   1      50.464  34.526  53.341  0.00  0.00     0.013 A 
ATOM      5  C   UNL d   1      51.546  34.264  52.135  0.00  0.00     0.005 A 
ATOM      6  C   UNL d   1      51.224  34.257  53.514  0.00  0.00     0.005 A 
ENDROOT
BRANCH   2   7
ATOM      7  C   UNL d   1      52.499  33.864  53.095  0.00  0.00     0.265 C 
ATOM      8  N   UNL d   1      52.596  33.067  53.189  0.00  0.00    -0.269 N 
ATOM      9  C   UNL d   1      53.349  32.799  53.346  0.00  0.00     0.102 A 
ATOM     10  C   UNL d   1      51.975  32.522  53.134  0.00  0.00     0.102 A 
ATOM     11  C   UNL d   1      53.502  31.991  53.451  0.00  0.00     0.100 A 
ATOM     12  N   UNL d   1      52.882  31.467  53.394  0.00  0.00    -0.301 N 
ATOM     13  C   UNL d   1      52.127  31.707  53.239  0.00  0.00     0.100 A 
ATOM     14  O   UNL d   1      53.139  34.386  53.156  0.00  0.00    -0.267 OA
BRANCH  12  15
ATOM     15  C   UNL d   1      53.036  30.667  53.498  0.00  0.00     0.064 A 
ATOM     16  C   UNL d   1      52.963  30.120  52.890  0.00  0.00     0.018 A 
ATOM     17  C   UNL d   1      53.112  29.340  52.992  0.00  0.00     0.002 A 
ATOM     18  C   UNL d   1      53.354  29.074  53.755  0.00  0.00     0.000 A 
ATOM     19  C   UNL d   1      53.422  29.608  54.336  0.00  0.00     0.002 A 
ATOM     20  C   UNL d   1      53.269  30.409  54.232  0.00  0.00     0.018 A 
ENDBRANCH  12  15
ENDBRANCH   2   7
BRANCH   1  21
ATOM     21  S   UNL d   1      49.485  34.933  52.403  0.00  0.00     0.271 S 
ATOM     22  O   UNL d   1      49.466  35.356  53.090  0.00  0.00    -0.200 OA
ATOM     23  O   UNL d   1      49.497  34.487  51.674  0.00  0.00    -0.200 OA
BRANCH  21  24
ATOM     24  N   UNL d   1      48.718  35.206  52.224  0.00  0.00    -0.229 N 
ATOM     25  C   UNL d   1      48.364  34.943  51.553  0.00  0.00     0.092 A 
ATOM     26  C   UNL d   1      47.601  35.207  51.363  0.00  0.00     0.018 A 
ATOM     27  C   UNL d   1      47.192  34.966  50.682  0.00  0.00     0.002 C 
ATOM     28  C   UNL d   1      47.210  35.743  51.873  0.00  0.00     0.003 A 
ATOM     29  C   UNL d   1      47.583  36.015  52.572  0.00  0.00     0.018 A 
ATOM     30  C   UNL d   1      48.325  35.747  52.739  0.00  0.00     0.092 A 
ATOM     31  C   UNL d   1      47.211  36.548  53.092  0.00  0.00     0.002 C 
ENDBRANCH  21  24
ENDBRANCH   1  21
TORSDOF 4
ENDMDL
MODEL 2
REMARK VINA RESULT:      -8.8      1.522      2.444
REMARK  4 active torsions:
REMARK  status: ('A' for Active; 'I' for Inactive)
REMARK    1  A    between atoms: N_2  and  S_1 
REMARK    2  A    between atoms: C_6  and  S_1 
REMARK    3  A    between atoms: C_3  and  C_11 
REMARK       I    between atoms: N_4  and  C_3 
REMARK    4  A    between atoms: C_17  and  N_5 
ROOT
ATOM      1  C   UNL d   1      49.973  34.402  52.655  0.00  0.00     0.104 A 
ATOM      2  C   UNL d   1      51.313  33.396  52.655  0.00  0.00     0.057 A 
ATOM      3  C   UNL d   1      50.563  34.468  52.049  0.00  0.00     0.013 A 
ATOM      4  C   UNL d   1      50.089  33.835  53.227  0.00  0.00     0.013 A 
ATOM      5  C   UNL d   1      51.219  33.979  52.044  0.00  0.00     0.005 A 
ATOM      6  C   UNL d   1      50.751  33.343  53.220  0.00  0.00     0.005 A 
ENDROOT
BRANCH   2   7
ATOM      7  C   UNL d   1      51.953  32.930  52.637  0.00  0.00     0.265 C 
ATOM      8  N   UNL d   1      52.557  33.114  53.140  0.00  0.00    -0.269 N 
ATOM      9  C   UNL d   1      53.217  32.636  53.123  0.00  0.00     0.102 A 
ATOM     10  C   UNL d   1      52.536  33.757  53.662  0.00  0.00     0.102 A 
ATOM     11  C   UNL d   1      53.864  32.783  53.619  0.00  0.00     0.100 A 
ATOM     12  N   UNL d   1      53.829  33.418  54.127  0.00  0.00    -0.301 N 
ATOM     13  C   UNL d   1      53.187  33.907  54.163  0.00  0.00     0.100 A 
ATOM     14  O   UNL d   1      52.002  32.280  52.125  0.00  0.00    -0.267 OA
BRANCH  12  15
ATOM     15  C   UNL d   1      54.472  33.562  54.618  0.00  0.00     0.064 A 
ATOM     16  C   UNL d   1      55.198  33.818  54.333  0.00  0.00     0.018 A 
ATOM     17  C   UNL d   1      55.823  33.958  54.812  0.00  0.00     0.002 A 
ATOM     18  C   UNL d   1      55.729  33.837  55.642  0.00  0.00     0.000 A 
ATOM     19  C   UNL d   1      55.025  33.590  55.909  0.00  0.00     0.002 A 
ATOM     20  C   UNL d   1      54.383  33.446  55.418  0.00  0.00     0.018 A 
ENDBRANCH  12  15
ENDBRANCH   2   7
BRANCH   1  21
ATOM     21  S   UNL d   1      49.329  34.885  52.657  0.00  0.00     0.271 S 
ATOM     22  O   UNL d   1      49.626  35.291  53.288  0.00  0.00    -0.200 OA
ATOM     23  O   UNL d   1      49.008  34.459  51.989  0.00  0.00    -0.200 OA
BRANCH  21  24
ATOM     24  N   UNL d   1      48.662  35.385  52.660  0.00  0.00    -0.229 N 
ATOM     25  C   UNL d   1      48.481  35.779  53.336  0.00  0.00     0.092 A 
ATOM     26  C   UNL d   1      47.820  36.280  53.352  0.00  0.00     0.018 A 
ATOM     27  C   UNL d   1      47.590  36.709  54.024  0.00  0.00     0.002 C 
ATOM     28  C   UNL d   1      47.352  36.368  52.664  0.00  0.00     0.003 A 
ATOM     29  C   UNL d   1      47.544  35.955  51.961  0.00  0.00     0.018 A 
ATOM     30  C   UNL d   1      48.191  35.473  51.966  0.00  0.00     0.092 A 
ATOM     31  C   UNL d   1      47.091  36.029  51.267  0.00  0.00     0.002 C 
ENDBRANCH  21  24
ENDBRANCH   1  21
TORSDOF 4
ENDMDL
MODEL 3
REMARK VINA RESULT:      -7.5      1.818      2.414
REMARK  4 active torsions:
REMARK  status: ('A' for Active; 'I' for Inactive)
REMARK    1  A    between atoms: N_2  and  S_1 
REMARK    2  A    between atoms: C_6  and  S_1 
REMARK    3  A    between atoms: C_3  and  C_11 
REMARK       I    between atoms: N_4  and  C_3 
REMARK    4  A    between atoms: C_17  and  N_5 
ROOT
ATOM      1  C   UNL d   1      49.081  35.190  52.800  0.00  0.00     0.104 A 
ATOM      2  C   UNL d   1      50.509  34.421  52.380  0.00  0.00     0.057 A 
ATOM      3  C   UNL d   1      49.159  34.801  52.050  0.00  0.00     0.013 A 
ATOM      4  C   UNL d   1      49.724  35.171  53.296  0.00  0.00     0.013 A 
ATOM      5  C   UNL d   1      49.854  34.425  51.840  0.00  0.00     0.005 A 
ATOM      6  C   UNL d   1      50.425  34.790  53.083  0.00  0.00     0.005 A 
ENDROOT
BRANCH   2   7
ATOM      7  C   UNL d   1      51.176  34.053  52.163  0.00  0.00     0.265 C 
ATOM      8  N   UNL d   1      51.733  33.932  52.735  0.00  0.00    -0.269 N 
ATOM      9  C   UNL d   1      52.420  33.553  52.515  0.00  0.00     0.102 A 
ATOM     10  C   UNL d   1      51.638  34.172  53.523  0.00  0.00     0.102 A 
ATOM     11  C   UNL d   1      53.022  33.405  53.065  0.00  0.00     0.100 A 
ATOM     12  N   UNL d   1      52.915  33.647  53.834  0.00  0.00    -0.301 N 
ATOM     13  C   UNL d   1      52.244  34.024  54.078  0.00  0.00     0.100 A 
ATOM     14  O   UNL d   1      51.299  33.801  51.384  0.00  0.00    -0.267 OA
BRANCH  12  15
ATOM     15  C   UNL d   1      53.513  33.499  54.377  0.00  0.00     0.064 A 
ATOM     16  C   UNL d   1      53.988  34.094  54.684  0.00  0.00     0.018 A 
ATOM     17  C   UNL d   1      54.571  33.950  55.213  0.00  0.00     0.002 A 
ATOM     18  C   UNL d   1      54.699  33.155  55.464  0.00  0.00     0.000 A 
ATOM     19  C   UNL d   1      54.236  32.586  55.163  0.00  0.00     0.002 A 
ATOM     20  C   UNL d   1      53.638  32.734  54.619  0.00  0.00     0.018 A 
ENDBRANCH  12  15
ENDBRANCH   2   7
BRANCH   1  21
ATOM     21  S   UNL d   1      48.395  35.560  53.003  0.00  0.00     0.271 S 
ATOM     22  O   UNL d   1      47.989  35.118  52.464  0.00  0.00    -0.200 OA
ATOM     23  O   UNL d   1      48.820  36.032  53.576  0.00  0.00    -0.200 OA
BRANCH  21  24
ATOM     24  N   UNL d   1      47.685  35.942  53.213  0.00  0.00    -0.229 N 
ATOM     25  C   UNL d   1      47.155  36.110  52.633  0.00  0.00     0.092 A 
ATOM     26  C   UNL d   1      46.444  36.490  52.829  0.00  0.00     0.018 A 
ATOM     27  C   UNL d   1      45.863  36.686  52.269  0.00  0.00     0.002 C 
ATOM     28  C   UNL d   1      46.289  36.693  53.626  0.00  0.00     0.003 A 
ATOM     29  C   UNL d   1      46.845  36.516  54.227  0.00  0.00     0.018 A 
ATOM     30  C   UNL d   1      47.531  36.146  54.016  0.00  0.00     0.092 A 
ATOM     31  C   UNL d   1      46.710  36.709  55.025  0.00  0.00     0.002 C 
ENDBRANCH  21  24
ENDBRANCH   1  21
TORSDOF 4
ENDMDL
MODEL 4
REMARK VINA RESULT:      -7.2     10.083     11.294
REMARK  4 active torsions:
REMARK  status: ('A' for Active; 'I' for Inactive)
REMARK    1  A    between atoms: N_2  and  S_1 
REMARK    2  A    between atoms: C_6  and  S_1 
REMARK    3  A    between atoms: C_3  and  C_11 
REMARK       I    between atoms: N_4  and  C_3 
REMARK    4  A    between atoms: C_17  and  N_5 
ROOT
ATOM      1  C   UNL d   1      44.891  26.687  57.009  0.00  0.00     0.104 A 
ATOM      2  C   UNL d   1      45.052  28.298  57.444  0.00  0.00     0.057 A 
ATOM      3  C   UNL d   1      44.487  27.294  56.576  0.00  0.00     0.013 A 
ATOM      4  C   UNL d   1      45.354  26.923  57.635  0.00  0.00     0.013 A 
ATOM      5  C   UNL d   1      44.562  28.082  56.784  0.00  0.00     0.005 A 
ATOM      6  C   UNL d   1      45.428  27.718  57.844  0.00  0.00     0.005 A 
ENDROOT
BRANCH   2   7
ATOM      7  C   UNL d   1      45.115  29.064  57.633  0.00  0.00     0.265 C 
ATOM      8  N   UNL d   1      45.001  29.263  58.407  0.00  0.00    -0.269 N 
ATOM      9  C   UNL d   1      45.065  30.050  58.605  0.00  0.00     0.102 A 
ATOM     10  C   UNL d   1      44.824  28.710  58.999  0.00  0.00     0.102 A 
ATOM     11  C   UNL d   1      44.956  30.306  59.386  0.00  0.00     0.100 A 
ATOM     12  N   UNL d   1      44.784  29.752  59.956  0.00  0.00    -0.301 N 
ATOM     13  C   UNL d   1      44.714  28.966  59.787  0.00  0.00     0.100 A 
ATOM     14  O   UNL d   1      45.291  29.639  57.063  0.00  0.00    -0.267 OA
BRANCH  12  15
ATOM     15  C   UNL d   1      44.676  30.007  60.730  0.00  0.00     0.064 A 
ATOM     16  C   UNL d   1      44.665  29.491  61.368  0.00  0.00     0.018 A 
ATOM     17  C   UNL d   1      44.560  29.740  62.121  0.00  0.00     0.002 A 
ATOM     18  C   UNL d   1      44.459  30.566  62.261  0.00  0.00     0.000 A 
ATOM     19  C   UNL d   1      44.471  31.058  61.640  0.00  0.00     0.002 A 
ATOM     20  C   UNL d   1      44.579  30.802  60.866  0.00  0.00     0.018 A 
ENDBRANCH  12  15
ENDBRANCH   2   7
BRANCH   1  21
ATOM     21  S   UNL d   1      44.816  25.913  56.802  0.00  0.00     0.271 S 
ATOM     22  O   UNL d   1      44.314  25.789  57.422  0.00  0.00    -0.200 OA
ATOM     23  O   UNL d   1      45.347  26.038  56.143  0.00  0.00    -0.200 OA
BRANCH  21  24
ATOM     24  N   UNL d   1      44.736  25.111  56.588  0.00  0.00    -0.229 N 
ATOM     25  C   UNL d   1      44.593  24.573  57.167  0.00  0.00     0.092 A 
ATOM     26  C   UNL d   1      44.512  23.772  56.967  0.00  0.00     0.018 A 
ATOM     27  C   UNL d   1      44.364  23.176  57.525  0.00  0.00     0.002 C 
ATOM     28  C   UNL d   1      44.581  23.536  56.167  0.00  0.00     0.003 A 
ATOM     29  C   UNL d   1      44.730  24.102  55.567  0.00  0.00     0.018 A 
ATOM     30  C   UNL d   1      44.805  24.876  55.781  0.00  0.00     0.092 A 
ATOM     31  C   UNL d   1      44.801  23.887  54.766  0.00  0.00     0.002 C 
ENDBRANCH  21  24
ENDBRANCH   1  21
TORSDOF 4
ENDMDL
MODEL 5
REMARK VINA RESULT:      -6.8     10.092     10.832
REMARK  4 active torsions:
REMARK  status: ('A' for Active; 'I' for Inactive)
REMARK    1  A    between atoms: N_2  and  S_1 
REMARK    2  A    between atoms: C_6  and  S_1 
REMARK    3  A    between atoms: C_3  and  C_11 
REMARK       I    between atoms: N_4  and  C_3 
REMARK    4  A    between atoms: C_17  and  N_5 
ROOT
ATOM      1  C   UNL d   1      44.989  28.085  57.637  0.00  0.00     0.104 A 
ATOM      2  C   UNL d   1      44.985  26.618  56.827  0.00  0.00     0.057 A 
ATOM      3  C   UNL d   1      45.700  27.627  57.567  0.00  0.00     0.013 A 
ATOM      4  C   UNL d   1      44.317  27.780  57.296  0.00  0.00     0.013 A 
ATOM      5  C   UNL d   1      45.704  26.911  57.173  0.00  0.00     0.005 A 
ATOM      6  C   UNL d   1      44.322  27.057  56.898  0.00  0.00     0.005 A 
ENDROOT
BRANCH   2   7
ATOM      7  C   UNL d   1      45.004  25.922  56.448  0.00  0.00     0.265 C 
ATOM      8  N   UNL d   1      44.886  25.258  56.892  0.00  0.00    -0.269 N 
ATOM      9  C   UNL d   1      44.905  24.542  56.504  0.00  0.00     0.102 A 
ATOM     10  C   UNL d   1      44.749  25.273  57.709  0.00  0.00     0.102 A 
ATOM     11  C   UNL d   1      44.790  23.831  56.914  0.00  0.00     0.100 A 
ATOM     12  N   UNL d   1      44.657  23.861  57.716  0.00  0.00    -0.301 N 
ATOM     13  C   UNL d   1      44.633  24.558  58.124  0.00  0.00     0.100 A 
ATOM     14  O   UNL d   1      45.139  25.877  55.632  0.00  0.00    -0.267 OA
BRANCH  12  15
ATOM     15  C   UNL d   1      44.543  23.155  58.121  0.00  0.00     0.064 A 
ATOM     16  C   UNL d   1      44.486  22.430  57.739  0.00  0.00     0.018 A 
ATOM     17  C   UNL d   1      44.375  21.744  58.134  0.00  0.00     0.002 A 
ATOM     18  C   UNL d   1      44.314  21.769  58.975  0.00  0.00     0.000 A 
ATOM     19  C   UNL d   1      44.370  22.471  59.336  0.00  0.00     0.002 A 
ATOM     20  C   UNL d   1      44.484  23.178  58.931  0.00  0.00     0.018 A 
ENDBRANCH  12  15
ENDBRANCH   2   7
BRANCH   1  21
ATOM     21  S   UNL d   1      44.989  28.789  58.026  0.00  0.00     0.271 S 
ATOM     22  O   UNL d   1      45.102  28.410  58.728  0.00  0.00    -0.200 OA
ATOM     23  O   UNL d   1      44.869  29.199  57.284  0.00  0.00    -0.200 OA
BRANCH  21  24
ATOM     24  N   UNL d   1      44.989  29.519  58.429  0.00  0.00    -0.229 N 
ATOM     25  C   UNL d   1      45.035  29.513  59.231  0.00  0.00     0.092 A 
ATOM     26  C   UNL d   1      45.036  30.233  59.644  0.00  0.00     0.018 A 
ATOM     27  C   UNL d   1      45.082  30.282  60.472  0.00  0.00     0.002 C 
ATOM     28  C   UNL d   1      44.989  30.953  59.221  0.00  0.00     0.003 A 
ATOM     29  C   UNL d   1      44.941  30.953  58.385  0.00  0.00     0.018 A 
ATOM     30  C   UNL d   1      44.941  30.244  58.001  0.00  0.00     0.092 A 
ATOM     31  C   UNL d   1      44.893  31.659  57.946  0.00  0.00     0.002 C 
ENDBRANCH  21  24
ENDBRANCH   1  21
TORSDOF 4
ENDMDL
MODEL 6
REMARK VINA RESULT:      -6.3      9.935     10.721
REMARK  4 active torsions:
REMARK  status: ('A' for Active; 'I' for Inactive)
REMARK    1  A    between atoms: N_2  and  S_1 
REMARK    2  A    between atoms: C_6  and  S_1 
REMARK    3  A    between atoms: C_3  and  C_11 
REMARK       I    between atoms: N_4  and  C_3 
REMARK    4  A    between atoms: C_17  and  N_5 
ROOT
ATOM      1  C   UNL d   1      44.783  27.426  58.041  0.00  0.00     0.104 A 
ATOM      2  C   UNL d   1      44.675  25.761  57.879  0.00  0.00     0.057 A 
ATOM      3  C   UNL d   1      45.169  26.911  58.593  0.00  0.00     0.013 A 
ATOM      4  C   UNL d   1      44.364  27.075  57.438  0.00  0.00     0.013 A 
ATOM      5  C   UNL d   1      45.120  26.098  58.519  0.00  0.00     0.005 A 
ATOM      6  C   UNL d   1      44.315  26.255  57.365  0.00  0.00     0.005 A 
ENDROOT
BRANCH   2   7
ATOM      7  C   UNL d   1      44.636  24.972  57.820  0.00  0.00     0.265 C 
ATOM      8  N   UNL d   1      44.719  24.653  57.082  0.00  0.00    -0.269 N 
ATOM      9  C   UNL d   1      44.679  23.842  57.019  0.00  0.00     0.102 A 
ATOM     10  C   UNL d   1      44.841  25.108  56.400  0.00  0.00     0.102 A 
ATOM     11  C   UNL d   1      44.759  23.467  56.284  0.00  0.00     0.100 A 
ATOM     12  N   UNL d   1      44.878  23.925  55.623  0.00  0.00    -0.301 N 
ATOM     13  C   UNL d   1      44.921  24.731  55.658  0.00  0.00     0.100 A 
ATOM     14  O   UNL d   1      44.515  24.493  58.484  0.00  0.00    -0.267 OA
BRANCH  12  15
ATOM     15  C   UNL d   1      44.956  23.551  54.896  0.00  0.00     0.064 A 
ATOM     16  C   UNL d   1      44.758  23.915  54.187  0.00  0.00     0.018 A 
ATOM     17  C   UNL d   1      44.835  23.550  53.480  0.00  0.00     0.002 A 
ATOM     18  C   UNL d   1      45.131  22.761  53.464  0.00  0.00     0.000 A 
ATOM     19  C   UNL d   1      45.319  22.416  54.152  0.00  0.00     0.002 A 
ATOM     20  C   UNL d   1      45.241  22.790  54.880  0.00  0.00     0.018 A 
ENDBRANCH  12  15
ENDBRANCH   2   7
BRANCH   1  21
ATOM     21  S   UNL d   1      44.833  28.225  58.117  0.00  0.00     0.271 S 
ATOM     22  O   UNL d   1      44.347  28.201  58.760  0.00  0.00    -0.200 OA
ATOM     23  O   UNL d   1      45.350  28.257  57.436  0.00  0.00    -0.200 OA
BRANCH  21  24
ATOM     24  N   UNL d   1      44.885  29.053  58.197  0.00  0.00    -0.229 N 
ATOM     25  C   UNL d   1      44.822  29.506  57.536  0.00  0.00     0.092 A 
ATOM     26  C   UNL d   1      44.872  30.332  57.602  0.00  0.00     0.018 A 
ATOM     27  C   UNL d   1      44.814  30.845  56.952  0.00  0.00     0.002 C 
ATOM     28  C   UNL d   1      44.987  30.680  58.354  0.00  0.00     0.003 A 
ATOM     29  C   UNL d   1      45.052  30.203  59.040  0.00  0.00     0.018 A 
ATOM     30  C   UNL d   1      45.001  29.403  58.955  0.00  0.00     0.092 A 
ATOM     31  C   UNL d   1      45.167  30.531  59.796  0.00  0.00     0.002 C 
ENDBRANCH  21  24
ENDBRANCH   1  21
TORSDOF 4
ENDMDL
