MODEL 1
REMARK VINA RESULT:      -0.4      0.000      0.000
REMARK  7 active torsions:
REMARK  status: ('A' for Active; 'I' for Inactive)
REMARK    1  A    between atoms: S_2  and  C_1 
REMARK    2  A    between atoms: N_7  and  S_2 
REMARK    3  A    between atoms: C_8  and  C_3 
REMARK    4  A    between atoms: C_10  and  C_6 
REMARK    5  A    between atoms: O_21  and  C_8 
REMARK    6  A    between atoms: C_17  and  N_9 
REMARK    7  A    between atoms: O_22  and  C_10 
ROOT
ATOM      1  S   UNL d   1      32.134  21.180 -20.869  0.00  0.00     0.277 S 
ATOM      2  O   UNL d   1      31.435  20.891 -21.199  0.00  0.00    -0.199 OA
ATOM      3  O   UNL d   1      31.522  21.597 -20.562  0.00  0.00    -0.199 OA
ENDROOT
BRANCH   1   4
ATOM      4  C   UNL d   1      32.443  21.743 -20.338  0.00  0.00     0.139 A 
ATOM      5  C   UNL d   1      32.662  22.471 -20.609  0.00  0.00     0.082 A 
ATOM      6  C   UNL d   1      32.942  22.898 -19.970  0.00  0.00     0.018 A 
ATOM      7  C   UNL d   1      33.241  23.701 -19.968  0.00  0.00     0.001 C 
ATOM      8  C   UNL d   1      32.894  22.428 -19.303  0.00  0.00     0.093 A 
ATOM      9  S   UNL d   1      32.581  21.697 -19.519  0.00  0.00    -0.069 SA
BRANCH   5  10
ATOM     10  C   UNL d   1      32.629  22.792 -21.416  0.00  0.00     0.297 C 
ATOM     11  O   UNL d   1      33.224  22.607 -21.966  0.00  0.00    -0.259 OA
BRANCH  10  12
ATOM     12  O   UNL d   1      31.989  23.284 -21.618  0.00  0.00    -0.296 OA
ATOM     13  C   UNL d   1      31.974  23.660 -22.368  0.00  0.00     0.185 C 
ENDBRANCH  10  12
ENDBRANCH   5  10
BRANCH   8  14
ATOM     14  C   UNL d   1      33.126  22.662 -18.534  0.00  0.00     0.302 C 
ATOM     15  O   UNL d   1      33.236  23.456 -18.362  0.00  0.00    -0.259 OA
BRANCH  14  16
ATOM     16  O   UNL d   1      33.241  22.064 -17.954  0.00  0.00    -0.295 OA
ATOM     17  C   UNL d   1      33.110  22.206 -17.155  0.00  0.00     0.185 C 
ENDBRANCH  14  16
ENDBRANCH   8  14
ENDBRANCH   1   4
BRANCH   1  18
ATOM     18  N   UNL d   1      32.339  20.559 -21.400  0.00  0.00    -0.226 N 
ATOM     19  C   UNL d   1      33.042  20.090 -21.300  0.00  0.00     0.111 A 
ATOM     20  C   UNL d   1      33.228  19.486 -21.829  0.00  0.00     0.100 A 
ATOM     21  N   UNL d   1      32.742  19.317 -22.469  0.00  0.00    -0.301 N 
ATOM     22  C   UNL d   1      32.062  19.771 -22.566  0.00  0.00     0.100 A 
ATOM     23  C   UNL d   1      31.854  20.390 -22.040  0.00  0.00     0.111 A 
BRANCH  21  24
ATOM     24  C   UNL d   1      32.905  18.736 -22.991  0.00  0.00     0.064 A 
ATOM     25  C   UNL d   1      33.068  18.886 -23.781  0.00  0.00     0.018 A 
ATOM     26  C   UNL d   1      33.236  18.278 -24.314  0.00  0.00     0.002 A 
ATOM     27  C   UNL d   1      33.240  17.509 -24.049  0.00  0.00     0.000 A 
ATOM     28  C   UNL d   1      33.078  17.347 -23.257  0.00  0.00     0.002 A 
ATOM     29  C   UNL d   1      32.913  17.941 -22.730  0.00  0.00     0.018 A 
ENDBRANCH  21  24
ENDBRANCH   1  18
TORSDOF 7
ENDMDL
