MODEL 1
REMARK VINA RESULT:      14.3      0.000      0.000
REMARK  3 active torsions:
REMARK  status: ('A' for Active; 'I' for Inactive)
REMARK    1  A    between atoms: N_2  and  C_1 
REMARK    2  A    between atoms: C_5  and  C_1 
REMARK    3  A    between atoms: C_3  and  N_2 
ROOT
ATOM      1  N   UNL d   1      14.078  12.782  -2.753  0.00  0.00    -0.233 NA
ENDROOT
BRANCH   1   2
ATOM      2  C   UNL d   1      13.801  12.249  -2.201  0.00  0.00     0.153 C 
ATOM      3  S   UNL d   1      13.139  11.779  -2.364  0.00  0.00    -0.056 SA
BRANCH   2   4
ATOM      4  C   UNL d   1      14.181  12.173  -1.474  0.00  0.00     0.109 A 
ATOM      5  N   UNL d   1      14.995  12.305  -1.417  0.00  0.00    -0.242 NA
ATOM      6  C   UNL d   1      15.374  12.229  -0.690  0.00  0.00     0.099 A 
ATOM      7  C   UNL d   1      14.943  12.022  -0.018  0.00  0.00     0.021 A 
ATOM      8  C   UNL d   1      14.128  11.888  -0.066  0.00  0.00     0.003 A 
ATOM      9  C   UNL d   1      13.745  11.963  -0.795  0.00  0.00     0.021 A 
ENDBRANCH   2   4
ENDBRANCH   1   2
BRANCH   1  10
ATOM     10  C   UNL d   1      13.645  12.917  -3.450  0.00  0.00     0.082 A 
ATOM     11  C   UNL d   1      13.436  13.690  -3.650  0.00  0.00     0.018 A 
ATOM     12  C   UNL d   1      13.004  13.824  -4.346  0.00  0.00     0.002 A 
ATOM     13  C   UNL d   1      13.650  14.321  -3.168  0.00  0.00     0.002 C 
ATOM     14  C   UNL d   1      12.789  13.193  -4.828  0.00  0.00     0.000 A 
ATOM     15  C   UNL d   1      13.007  12.422  -4.613  0.00  0.00     0.002 A 
ATOM     16  C   UNL d   1      13.435  12.288  -3.925  0.00  0.00     0.019 A 
ATOM     17  C   UNL d   1      12.795  11.782  -5.093  0.00  0.00     0.000 C 
ENDBRANCH   1  10
TORSDOF 3
ENDMDL
MODEL 2
REMARK VINA RESULT:      16.8      0.465      1.331
REMARK  3 active torsions:
REMARK  status: ('A' for Active; 'I' for Inactive)
REMARK    1  A    between atoms: N_2  and  C_1 
REMARK    2  A    between atoms: C_5  and  C_1 
REMARK    3  A    between atoms: C_3  and  N_2 
ROOT
ATOM      1  N   UNL d   1      14.037  12.471  -3.009  0.00  0.00    -0.233 NA
ENDROOT
BRANCH   1   2
ATOM      2  C   UNL d   1      13.641  12.080  -2.412  0.00  0.00     0.153 C 
ATOM      3  S   UNL d   1      12.881  11.780  -2.537  0.00  0.00    -0.056 SA
BRANCH   2   4
ATOM      4  C   UNL d   1      13.998  11.981  -1.676  0.00  0.00     0.109 A 
ATOM      5  N   UNL d   1      14.823  11.964  -1.615  0.00  0.00    -0.242 NA
ATOM      6  C   UNL d   1      15.180  11.865  -0.880  0.00  0.00     0.099 A 
ATOM      7  C   UNL d   1      14.716  11.783  -0.203  0.00  0.00     0.021 A 
ATOM      8  C   UNL d   1      13.890  11.800  -0.254  0.00  0.00     0.003 A 
ATOM      9  C   UNL d   1      13.530  11.899  -0.992  0.00  0.00     0.021 A 
ENDBRANCH   2   4
ENDBRANCH   1   2
BRANCH   1  10
ATOM     10  C   UNL d   1      13.612  12.939  -3.549  0.00  0.00     0.082 A 
ATOM     11  C   UNL d   1      13.292  12.585  -4.222  0.00  0.00     0.018 A 
ATOM     12  C   UNL d   1      12.868  13.053  -4.761  0.00  0.00     0.002 A 
ATOM     13  C   UNL d   1      13.391  11.781  -4.361  0.00  0.00     0.002 C 
ATOM     14  C   UNL d   1      12.769  13.858  -4.622  0.00  0.00     0.000 A 
ATOM     15  C   UNL d   1      13.096  14.198  -3.940  0.00  0.00     0.002 A 
ATOM     16  C   UNL d   1      13.516  13.737  -3.406  0.00  0.00     0.019 A 
ATOM     17  C   UNL d   1      13.000  15.007  -3.794  0.00  0.00     0.000 C 
ENDBRANCH   1  10
TORSDOF 3
ENDMDL
MODEL 3
REMARK VINA RESULT:      17.1      0.884      3.762
REMARK  3 active torsions:
REMARK  status: ('A' for Active; 'I' for Inactive)
REMARK    1  A    between atoms: N_2  and  C_1 
REMARK    2  A    between atoms: C_5  and  C_1 
REMARK    3  A    between atoms: C_3  and  N_2 
ROOT
ATOM      1  N   UNL d   1      13.797  11.826  -2.351  0.00  0.00    -0.233 NA
ENDROOT
BRANCH   1   2
ATOM      2  C   UNL d   1      13.600  12.521  -2.731  0.00  0.00     0.153 C 
ATOM      3  S   UNL d   1      13.600  13.239  -2.322  0.00  0.00    -0.056 SA
BRANCH   2   4
ATOM      4  C   UNL d   1      13.398  12.511  -3.530  0.00  0.00     0.109 A 
ATOM      5  N   UNL d   1      13.405  13.214  -3.966  0.00  0.00    -0.242 NA
ATOM      6  C   UNL d   1      13.203  13.204  -4.764  0.00  0.00     0.099 A 
ATOM      7  C   UNL d   1      12.993  12.495  -5.129  0.00  0.00     0.021 A 
ATOM      8  C   UNL d   1      12.983  11.788  -4.701  0.00  0.00     0.003 A 
ATOM      9  C   UNL d   1      13.185  11.795  -3.898  0.00  0.00     0.021 A 
ENDBRANCH   2   4
ENDBRANCH   1   2
BRANCH   1  10
ATOM     10  C   UNL d   1      14.134  11.852  -1.592  0.00  0.00     0.082 A 
ATOM     11  C   UNL d   1      13.640  11.836  -0.931  0.00  0.00     0.018 A 
ATOM     12  C   UNL d   1      13.978  11.862  -0.173  0.00  0.00     0.002 A 
ATOM     13  C   UNL d   1      12.823  11.795  -1.019  0.00  0.00     0.002 C 
ATOM     14  C   UNL d   1      14.795  11.903  -0.085  0.00  0.00     0.000 A 
ATOM     15  C   UNL d   1      15.278  11.918  -0.759  0.00  0.00     0.002 A 
ATOM     16  C   UNL d   1      14.945  11.893  -1.510  0.00  0.00     0.019 A 
ATOM     17  C   UNL d   1      16.101  11.960  -0.678  0.00  0.00     0.000 C 
ENDBRANCH   1  10
TORSDOF 3
ENDMDL
