MODEL 1
REMARK VINA RESULT:     100.1      0.000      0.000
REMARK  5 active torsions:
REMARK  status: ('A' for Active; 'I' for Inactive)
REMARK    1  A    between atoms: C_4  and  N_1 
REMARK    2  A    between atoms: C_9  and  C_2 
REMARK    3  A    between atoms: C_14  and  C_6 
REMARK    4  A    between atoms: C_7  and  C_9 
REMARK    5  A    between atoms: O_26  and  C_22 
ROOT
ATOM      1  N   UNL d   1      58.755  49.379  50.647  0.00  0.00    -0.254 N 
ATOM      2  C   UNL d   1      60.035  49.218  50.293  0.00  0.00     0.101 A 
ATOM      3  C   UNL d   1      58.803  49.459  49.827  0.00  0.00     0.305 A 
ATOM      4  C   UNL d   1      59.595  49.360  49.604  0.00  0.00     0.256 A 
ATOM      5  C   UNL d   1      59.517  49.230  50.937  0.00  0.00     0.081 A 
ATOM      6  O   UNL d   1      58.177  49.611  49.310  0.00  0.00    -0.263 OA
ATOM      7  O   UNL d   1      59.892  49.396  48.829  0.00  0.00    -0.281 OA
ENDROOT
BRANCH   2   8
ATOM      8  C   UNL d   1      60.852  49.088  50.326  0.00  0.00     0.223 C 
ATOM      9  O   UNL d   1      61.360  49.704  50.511  0.00  0.00    -0.284 OA
BRANCH   8  10
ATOM     10  C   UNL d   1      61.158  48.335  50.171  0.00  0.00     0.139 A 
ATOM     11  O   UNL d   1      60.853  47.623  50.452  0.00  0.00    -0.302 OA
ATOM     12  C   UNL d   1      61.330  47.011  50.162  0.00  0.00     0.122 A 
ATOM     13  C   UNL d   1      61.295  46.195  50.258  0.00  0.00     0.117 A 
ATOM     14  C   UNL d   1      61.925  47.348  49.705  0.00  0.00     0.027 A 
ATOM     15  C   UNL d   1      61.856  45.716  49.896  0.00  0.00     0.026 A 
ATOM     16  C   UNL d   1      62.458  46.055  49.434  0.00  0.00     0.002 A 
ATOM     17  C   UNL d   1      62.489  46.869  49.341  0.00  0.00     0.002 A 
ATOM     18  C   UNL d   1      61.821  48.165  49.709  0.00  0.00     0.030 A 
BRANCH  13  19
ATOM     19  O   UNL d   1      60.699  45.858  50.715  0.00  0.00    -0.326 OA
ATOM     20  C   UNL d   1      60.682  45.037  50.838  0.00  0.00     0.181 C 
ENDBRANCH  13  19
ENDBRANCH   8  10
ENDBRANCH   2   8
BRANCH   5  21
ATOM     21  C   UNL d   1      59.727  49.114  51.724  0.00  0.00     0.046 A 
ATOM     22  S   UNL d   1      59.948  49.706  52.256  0.00  0.00    -0.085 SA
ATOM     23  C   UNL d   1      60.112  49.352  52.984  0.00  0.00     0.035 A 
ATOM     24  C   UNL d   1      59.991  48.534  52.901  0.00  0.00     0.007 A 
ATOM     25  C   UNL d   1      59.754  48.395  52.123  0.00  0.00     0.009 A 
ENDBRANCH   5  21
BRANCH   1  26
ATOM     26  C   UNL d   1      57.939  49.497  50.738  0.00  0.00     0.179 A 
ATOM     27  N   UNL d   1      57.387  49.613  50.133  0.00  0.00    -0.108 NA
ATOM     28  O   UNL d   1      56.636  49.706  50.476  0.00  0.00    -0.210 OA
ATOM     29  C   UNL d   1      56.725  49.647  51.305  0.00  0.00     0.128 A 
ATOM     30  C   UNL d   1      57.524  49.519  51.466  0.00  0.00     0.067 A 
ATOM     31  C   UNL d   1      56.118  49.708  51.859  0.00  0.00     0.029 C 
ENDBRANCH   1  26
TORSDOF 5
ENDMDL
