MODEL 1
REMARK VINA RESULT:      22.9      0.000      0.000
REMARK  3 active torsions:
REMARK  status: ('A' for Active; 'I' for Inactive)
REMARK    1  A    between atoms: C_11  and  C_4 
REMARK    2  A    between atoms: N_14  and  C_7 
REMARK    3  A    between atoms: C_10  and  C_12 
ROOT
ATOM      1  C   UNL d   1      46.220 -17.456  43.648  0.00  0.00     0.186 A 
ATOM      2  N   UNL d   1      46.222 -18.197  44.014  0.00  0.00    -0.193 N 
ATOM      3  N   UNL d   1      46.357 -17.397  42.828  0.00  0.00    -0.204 NA
ATOM      4  C   UNL d   1      46.068 -16.886  44.227  0.00  0.00     0.140 A 
ATOM      5  N   UNL d   1      46.072 -18.089  44.823  0.00  0.00    -0.058 NA
ATOM      6  N   UNL d   1      45.976 -17.275  44.955  0.00  0.00    -0.127 NA
ATOM      7  C   UNL d   1      46.498 -18.087  42.371  0.00  0.00     0.188 A 
ATOM      8  C   UNL d   1      46.498 -18.825  42.749  0.00  0.00     0.056 A 
ATOM      9  C   UNL d   1      46.361 -18.887  43.569  0.00  0.00     0.089 A 
ATOM     10  C   UNL d   1      46.636 -19.508  42.304  0.00  0.00     0.005 A 
ATOM     11  C   UNL d   1      46.365 -19.624  43.927  0.00  0.00     0.019 A 
ATOM     12  C   UNL d   1      46.638 -20.246  42.671  0.00  0.00     0.000 A 
ATOM     13  C   UNL d   1      46.502 -20.304  43.483  0.00  0.00     0.002 A 
ENDROOT
BRANCH   4  14
ATOM     14  C   UNL d   1      46.018 -16.070  44.099  0.00  0.00     0.022 A 
ATOM     15  C   UNL d   1      45.389 -15.646  44.418  0.00  0.00     0.005 A 
ATOM     16  C   UNL d   1      45.333 -14.836  44.295  0.00  0.00     0.071 A 
ATOM     17  C   UNL d   1      45.907 -14.445  43.851  0.00  0.00     0.004 A 
ATOM     18  C   UNL d   1      46.542 -14.878  43.530  0.00  0.00    -0.000 A 
ATOM     19  C   UNL d   1      46.590 -15.685  43.657  0.00  0.00     0.002 A 
BRANCH  16  20
ATOM     20  C   UNL d   1      44.703 -14.411  44.614  0.00  0.00     0.419 C 
ATOM     21  F   UNL d   1      44.107 -13.953  44.953  0.00  0.00    -0.166 F 
ATOM     22  F   UNL d   1      44.157 -14.939  44.308  0.00  0.00    -0.166 F 
ATOM     23  F   UNL d   1      45.254 -13.869  44.929  0.00  0.00    -0.166 F 
ENDBRANCH  16  20
ENDBRANCH   4  14
BRANCH   7  24
ATOM     24  N   UNL d   1      46.634 -18.029  41.559  0.00  0.00    -0.108 NA
ATOM     25  N   UNL d   1      45.996 -17.907  41.041  0.00  0.00    -0.021 N 
ENDBRANCH   7  24
TORSDOF 3
ENDMDL
