MODEL 1
REMARK VINA RESULT:      -8.9      0.000      0.000
REMARK  2 active torsions:
REMARK  status: ('A' for Active; 'I' for Inactive)
REMARK    1  A    between atoms: C_6  and  C_3 
REMARK    2  A    between atoms: C_13  and  C_7 
ROOT
ATOM      1  C   UNL d   1      51.202  34.140  52.926  0.00  0.00     0.018 A 
ATOM      2  C   UNL d   1      52.646  33.734  53.599  0.00  0.00     0.000 A 
ATOM      3  C   UNL d   1      51.294  33.404  53.283  0.00  0.00     0.002 A 
ATOM      4  C   UNL d   1      51.830  34.677  52.903  0.00  0.00     0.002 A 
ATOM      5  C   UNL d   1      52.018  33.197  53.622  0.00  0.00     0.000 A 
ATOM      6  C   UNL d   1      52.550  34.471  53.240  0.00  0.00     0.000 A 
ENDROOT
BRANCH   1   7
ATOM      7  C   UNL d   1      50.477  34.347  52.587  0.00  0.00     0.090 A 
ATOM      8  N   UNL d   1      50.252  34.220  51.803  0.00  0.00    -0.219 NA
ATOM      9  C   UNL d   1      49.489  34.511  51.705  0.00  0.00     0.215 A 
ATOM     10  S   UNL d   1      49.231  34.822  52.424  0.00  0.00    -0.045 SA
ATOM     11  N   UNL d   1      49.050  34.498  51.005  0.00  0.00    -0.120 N 
ATOM     12  C   UNL d   1      49.842  34.722  52.974  0.00  0.00     0.058 A 
ENDBRANCH   1   7
BRANCH   2  13
ATOM     13  C   UNL d   1      53.372  33.529  53.937  0.00  0.00     0.000 A 
ATOM     14  C   UNL d   1      53.559  33.806  54.691  0.00  0.00     0.000 A 
ATOM     15  C   UNL d   1      54.274  33.603  55.022  0.00  0.00     0.000 A 
ATOM     16  C   UNL d   1      54.811  33.127  54.614  0.00  0.00     0.000 A 
ATOM     17  C   UNL d   1      54.619  32.856  53.865  0.00  0.00     0.000 A 
ATOM     18  C   UNL d   1      53.897  33.057  53.524  0.00  0.00     0.000 A 
ENDBRANCH   2  13
TORSDOF 2
ENDMDL
MODEL 2
REMARK VINA RESULT:      -8.6      2.239      4.328
REMARK  2 active torsions:
REMARK  status: ('A' for Active; 'I' for Inactive)
REMARK    1  A    between atoms: C_6  and  C_3 
REMARK    2  A    between atoms: C_13  and  C_7 
ROOT
ATOM      1  C   UNL d   1      52.589  33.637  53.505  0.00  0.00     0.018 A 
ATOM      2  C   UNL d   1      51.149  34.105  52.865  0.00  0.00     0.000 A 
ATOM      3  C   UNL d   1      51.935  33.141  53.564  0.00  0.00     0.002 A 
ATOM      4  C   UNL d   1      52.528  34.369  53.127  0.00  0.00     0.002 A 
ATOM      5  C   UNL d   1      51.210  33.373  53.244  0.00  0.00     0.000 A 
ATOM      6  C   UNL d   1      51.807  34.599  52.808  0.00  0.00     0.000 A 
ENDROOT
BRANCH   1   7
ATOM      7  C   UNL d   1      53.314  33.404  53.826  0.00  0.00     0.090 A 
ATOM      8  N   UNL d   1      53.624  33.643  54.552  0.00  0.00    -0.219 NA
ATOM      9  C   UNL d   1      54.355  33.279  54.651  0.00  0.00     0.215 A 
ATOM     10  S   UNL d   1      54.509  32.812  53.989  0.00  0.00    -0.045 SA
ATOM     11  N   UNL d   1      54.857  33.365  55.302  0.00  0.00    -0.120 N 
ATOM     12  C   UNL d   1      53.865  32.886  53.475  0.00  0.00     0.058 A 
ENDBRANCH   1   7
BRANCH   2  13
ATOM     13  C   UNL d   1      50.425  34.340  52.543  0.00  0.00     0.000 A 
ATOM     14  C   UNL d   1      49.884  34.744  53.017  0.00  0.00     0.000 A 
ATOM     15  C   UNL d   1      49.172  34.974  52.697  0.00  0.00     0.000 A 
ATOM     16  C   UNL d   1      48.986  34.809  51.910  0.00  0.00     0.000 A 
ATOM     17  C   UNL d   1      49.529  34.407  51.445  0.00  0.00     0.000 A 
ATOM     18  C   UNL d   1      50.250  34.171  51.762  0.00  0.00     0.000 A 
ENDBRANCH   2  13
TORSDOF 2
ENDMDL
MODEL 3
REMARK VINA RESULT:      -8.2      3.037      4.088
REMARK  2 active torsions:
REMARK  status: ('A' for Active; 'I' for Inactive)
REMARK    1  A    between atoms: C_6  and  C_3 
REMARK    2  A    between atoms: C_13  and  C_7 
ROOT
ATOM      1  C   UNL d   1      53.182  31.606  53.773  0.00  0.00     0.018 A 
ATOM      2  C   UNL d   1      53.137  33.240  53.947  0.00  0.00     0.000 A 
ATOM      3  C   UNL d   1      53.733  31.981  54.255  0.00  0.00     0.002 A 
ATOM      4  C   UNL d   1      52.605  32.044  53.375  0.00  0.00     0.002 A 
ATOM      5  C   UNL d   1      53.714  32.801  54.345  0.00  0.00     0.000 A 
ATOM      6  C   UNL d   1      52.586  32.860  53.464  0.00  0.00     0.000 A 
ENDROOT
BRANCH   1   7
ATOM      7  C   UNL d   1      53.202  30.784  53.684  0.00  0.00     0.090 A 
ATOM      8  N   UNL d   1      53.354  30.233  54.278  0.00  0.00    -0.219 NA
ATOM      9  C   UNL d   1      53.320  29.481  53.946  0.00  0.00     0.215 A 
ATOM     10  S   UNL d   1      53.146  29.556  53.143  0.00  0.00    -0.045 SA
ATOM     11  N   UNL d   1      53.438  28.767  54.345  0.00  0.00    -0.120 N 
ATOM     12  C   UNL d   1      53.072  30.363  52.976  0.00  0.00     0.058 A 
ENDBRANCH   1   7
BRANCH   2  13
ATOM     13  C   UNL d   1      53.115  34.061  54.034  0.00  0.00     0.000 A 
ATOM     14  C   UNL d   1      52.893  34.531  53.393  0.00  0.00     0.000 A 
ATOM     15  C   UNL d   1      52.872  35.339  53.482  0.00  0.00     0.000 A 
ATOM     16  C   UNL d   1      53.068  35.693  54.202  0.00  0.00     0.000 A 
ATOM     17  C   UNL d   1      53.288  35.220  54.835  0.00  0.00     0.000 A 
ATOM     18  C   UNL d   1      53.311  34.402  54.752  0.00  0.00     0.000 A 
ENDBRANCH   2  13
TORSDOF 2
ENDMDL
MODEL 4
REMARK VINA RESULT:      -8.0      2.614      3.468
REMARK  2 active torsions:
REMARK  status: ('A' for Active; 'I' for Inactive)
REMARK    1  A    between atoms: C_6  and  C_3 
REMARK    2  A    between atoms: C_13  and  C_7 
ROOT
ATOM      1  C   UNL d   1      53.024  33.236  53.725  0.00  0.00     0.018 A 
ATOM      2  C   UNL d   1      53.090  31.598  53.593  0.00  0.00     0.000 A 
ATOM      3  C   UNL d   1      53.675  32.828  54.019  0.00  0.00     0.002 A 
ATOM      4  C   UNL d   1      52.402  32.829  53.363  0.00  0.00     0.002 A 
ATOM      5  C   UNL d   1      53.712  32.005  53.955  0.00  0.00     0.000 A 
ATOM      6  C   UNL d   1      52.439  32.011  53.299  0.00  0.00     0.000 A 
ENDROOT
BRANCH   1   7
ATOM      7  C   UNL d   1      52.988  34.059  53.790  0.00  0.00     0.090 A 
ATOM      8  N   UNL d   1      53.047  34.495  54.487  0.00  0.00    -0.219 NA
ATOM      9  C   UNL d   1      52.982  35.293  54.297  0.00  0.00     0.215 A 
ATOM     10  S   UNL d   1      52.883  35.362  53.482  0.00  0.00    -0.045 SA
ATOM     11  N   UNL d   1      53.011  35.924  54.830  0.00  0.00    -0.120 N 
ATOM     12  C   UNL d   1      52.886  34.598  53.163  0.00  0.00     0.058 A 
ENDBRANCH   1   7
BRANCH   2  13
ATOM     13  C   UNL d   1      53.123  30.775  53.526  0.00  0.00     0.000 A 
ATOM     14  C   UNL d   1      52.910  30.418  52.814  0.00  0.00     0.000 A 
ATOM     15  C   UNL d   1      52.944  29.608  52.751  0.00  0.00     0.000 A 
ATOM     16  C   UNL d   1      53.188  29.142  53.388  0.00  0.00     0.000 A 
ATOM     17  C   UNL d   1      53.398  29.504  54.093  0.00  0.00     0.000 A 
ATOM     18  C   UNL d   1      53.366  30.323  54.163  0.00  0.00     0.000 A 
ENDBRANCH   2  13
TORSDOF 2
ENDMDL
