MODEL 1
REMARK VINA RESULT:       9.4      0.000      0.000
REMARK  4 active torsions:
REMARK  status: ('A' for Active; 'I' for Inactive)
REMARK    1  A    between atoms: C_9  and  C_2 
REMARK    2  A    between atoms: S_8  and  C_4 
REMARK       I    between atoms: N_6  and  C_7 
REMARK    3  A    between atoms: C_7  and  C_10 
REMARK    4  A    between atoms: C_10  and  S_8 
ROOT
ATOM      1  N   UNL d   1      46.016 -15.200  44.483  0.00  0.00    -0.212 NA
ATOM      2  C   UNL d   1      45.448 -14.618  44.551  0.00  0.00     0.171 A 
ATOM      3  N   UNL d   1      44.759 -14.963  44.844  0.00  0.00    -0.188 NA
ATOM      4  C   UNL d   1      45.691 -15.914  44.731  0.00  0.00     0.160 A 
ATOM      5  S   UNL d   1      44.909 -15.765  44.955  0.00  0.00     0.041 SA
ENDROOT
BRANCH   4   6
ATOM      6  S   UNL d   1      46.069 -16.647  44.754  0.00  0.00    -0.054 SA
BRANCH   6   7
ATOM      7  C   UNL d   1      46.032 -17.147  44.109  0.00  0.00     0.098 C 
BRANCH   7   8
ATOM      8  C   UNL d   1      46.196 -17.955  44.191  0.00  0.00     0.272 C 
ATOM      9  N   UNL d   1      46.310 -18.438  43.532  0.00  0.00    -0.267 N 
ATOM     10  C   UNL d   1      46.471 -19.235  43.635  0.00  0.00     0.110 A 
ATOM     11  C   UNL d   1      46.261 -18.110  42.776  0.00  0.00     0.110 A 
ATOM     12  C   UNL d   1      46.585 -19.717  42.968  0.00  0.00     0.142 A 
ATOM     13  O   UNL d   1      46.539 -19.402  42.211  0.00  0.00    -0.300 OA
ATOM     14  C   UNL d   1      46.376 -18.592  42.109  0.00  0.00     0.142 A 
ATOM     15  O   UNL d   1      46.245 -18.283  44.954  0.00  0.00    -0.266 OA
ENDBRANCH   7   8
ENDBRANCH   6   7
ENDBRANCH   4   6
BRANCH   2  16
ATOM     16  C   UNL d   1      45.538 -13.819  44.362  0.00  0.00     0.036 A 
ATOM     17  C   UNL d   1      45.245 -13.532  43.661  0.00  0.00     0.003 A 
ATOM     18  C   UNL d   1      45.326 -12.744  43.461  0.00  0.00     0.000 A 
ATOM     19  C   UNL d   1      45.714 -12.231  43.982  0.00  0.00     0.000 A 
ATOM     20  C   UNL d   1      46.013 -12.513  44.692  0.00  0.00     0.000 A 
ATOM     21  C   UNL d   1      45.926 -13.299  44.881  0.00  0.00     0.003 A 
ENDBRANCH   2  16
TORSDOF 4
ENDMDL
MODEL 2
REMARK VINA RESULT:      11.9      1.556      5.015
REMARK  4 active torsions:
REMARK  status: ('A' for Active; 'I' for Inactive)
REMARK    1  A    between atoms: C_9  and  C_2 
REMARK    2  A    between atoms: S_8  and  C_4 
REMARK       I    between atoms: N_6  and  C_7 
REMARK    3  A    between atoms: C_7  and  C_10 
REMARK    4  A    between atoms: C_10  and  S_8 
ROOT
ATOM      1  N   UNL d   1      45.870 -17.693  43.759  0.00  0.00    -0.212 NA
ATOM      2  C   UNL d   1      46.312 -18.375  43.692  0.00  0.00     0.171 A 
ATOM      3  N   UNL d   1      46.635 -18.548  44.431  0.00  0.00    -0.188 NA
ATOM      4  C   UNL d   1      45.909 -17.430  44.538  0.00  0.00     0.160 A 
ATOM      5  S   UNL d   1      46.386 -17.963  44.955  0.00  0.00     0.041 SA
ENDROOT
BRANCH   4   6
ATOM      6  S   UNL d   1      45.545 -16.760  44.853  0.00  0.00    -0.054 SA
BRANCH   6   7
ATOM      7  C   UNL d   1      45.739 -16.018  44.572  0.00  0.00     0.098 C 
BRANCH   7   8
ATOM      8  C   UNL d   1      45.230 -15.376  44.688  0.00  0.00     0.272 C 
ATOM      9  N   UNL d   1      45.512 -14.600  44.687  0.00  0.00    -0.267 N 
ATOM     10  C   UNL d   1      44.991 -13.979  44.804  0.00  0.00     0.110 A 
ATOM     11  C   UNL d   1      46.316 -14.462  44.567  0.00  0.00     0.110 A 
ATOM     12  C   UNL d   1      45.279 -13.200  44.801  0.00  0.00     0.142 A 
ATOM     13  O   UNL d   1      46.078 -13.049  44.684  0.00  0.00    -0.300 OA
ATOM     14  C   UNL d   1      46.605 -13.682  44.565  0.00  0.00     0.142 A 
ATOM     15  O   UNL d   1      44.419 -15.518  44.808  0.00  0.00    -0.266 OA
ENDBRANCH   7   8
ENDBRANCH   6   7
ENDBRANCH   4   6
BRANCH   2  16
ATOM     16  C   UNL d   1      46.424 -18.823  43.008  0.00  0.00     0.036 A 
ATOM     17  C   UNL d   1      46.459 -19.634  43.054  0.00  0.00     0.003 A 
ATOM     18  C   UNL d   1      46.569 -20.090  42.385  0.00  0.00     0.000 A 
ATOM     19  C   UNL d   1      46.646 -19.719  41.649  0.00  0.00     0.000 A 
ATOM     20  C   UNL d   1      46.612 -18.901  41.593  0.00  0.00     0.000 A 
ATOM     21  C   UNL d   1      46.502 -18.457  42.266  0.00  0.00     0.003 A 
ENDBRANCH   2  16
TORSDOF 4
ENDMDL
