MODEL 1
REMARK VINA RESULT:      36.1      0.000      0.000
REMARK  10 active torsions:
REMARK  status: ('A' for Active; 'I' for Inactive)
REMARK    1  A    between atoms: C_14  and  N_1 
REMARK    2  A    between atoms: C_7  and  N_3 
REMARK    3  A    between atoms: C_9  and  C_7 
REMARK       I    between atoms: N_18  and  C_9 
REMARK    4  A    between atoms: C_11  and  C_24 
REMARK       I    between atoms: N_12  and  C_11 
REMARK    5  A    between atoms: C_21  and  N_12 
REMARK    6  A    between atoms: C_13  and  C_25 
REMARK    7  A    between atoms: C_23  and  C_14 
REMARK    8  A    between atoms: C_22  and  N_18 
REMARK    9  A    between atoms: C_25  and  C_22 
REMARK   10  A    between atoms: C_24  and  C_23 
ROOT
ATOM      1  N   UNL d   1      46.425 -18.388  42.033  0.00  0.00    -0.226 N 
ATOM      2  C   UNL d   1      46.434 -17.781  42.592  0.00  0.00     0.342 A 
ATOM      3  N   UNL d   1      46.360 -17.962  43.398  0.00  0.00    -0.254 N 
ATOM      4  C   UNL d   1      46.342 -19.176  42.281  0.00  0.00     0.270 A 
ATOM      5  C   UNL d   1      46.268 -19.352  43.082  0.00  0.00     0.073 A 
ATOM      6  C   UNL d   1      46.277 -18.745  43.641  0.00  0.00     0.073 A 
ATOM      7  O   UNL d   1      46.517 -16.992  42.350  0.00  0.00    -0.245 OA
ATOM      8  O   UNL d   1      46.333 -19.783  41.722  0.00  0.00    -0.266 OA
ATOM      9  C   UNL d   1      46.185 -20.134  43.324  0.00  0.00     0.006 A 
ATOM     10  C   UNL d   1      46.203 -18.920  44.441  0.00  0.00     0.018 A 
ATOM     11  C   UNL d   1      46.112 -20.310  44.125  0.00  0.00     0.000 A 
ATOM     12  C   UNL d   1      46.121 -19.703  44.684  0.00  0.00     0.002 A 
ENDROOT
BRANCH   3  13
ATOM     13  C   UNL d   1      46.369 -17.355  43.958  0.00  0.00     0.147 C 
BRANCH  13  14
ATOM     14  C   UNL d   1      45.862 -16.710  43.862  0.00  0.00     0.297 C 
ATOM     15  O   UNL d   1      45.137 -16.798  43.480  0.00  0.00    -0.264 OA
ATOM     16  N   UNL d   1      46.080 -15.960  44.152  0.00  0.00    -0.205 NA
BRANCH  16  17
ATOM     17  C   UNL d   1      45.578 -15.308  44.060  0.00  0.00     0.102 C 
BRANCH  17  18
ATOM     18  C   UNL d   1      45.587 -14.700  44.618  0.00  0.00     0.021 C 
BRANCH  18  19
ATOM     19  C   UNL d   1      45.505 -13.915  44.379  0.00  0.00     0.002 A 
ATOM     20  C   UNL d   1      46.041 -13.343  44.638  0.00  0.00     0.000 A 
ATOM     21  C   UNL d   1      45.959 -12.563  44.399  0.00  0.00     0.000 A 
ATOM     22  C   UNL d   1      45.337 -12.349  43.899  0.00  0.00     0.000 A 
ATOM     23  C   UNL d   1      44.801 -12.920  43.640  0.00  0.00     0.000 A 
ATOM     24  C   UNL d   1      44.883 -13.706  43.879  0.00  0.00     0.000 A 
ENDBRANCH  18  19
ENDBRANCH  17  18
ENDBRANCH  16  17
ENDBRANCH  13  14
ENDBRANCH   3  13
BRANCH   1  25
ATOM     25  C   UNL d   1      46.499 -18.210  41.229  0.00  0.00     0.088 C 
BRANCH  25  26
ATOM     26  C   UNL d   1      45.830 -18.129  40.753  0.00  0.00     0.024 C 
BRANCH  26  27
ATOM     27  C   UNL d   1      45.899 -18.077  39.935  0.00  0.00     0.064 C 
BRANCH  27  28
ATOM     28  C   UNL d   1      45.359 -17.611  39.506  0.00  0.00     0.279 C 
ATOM     29  N   UNL d   1      45.584 -17.283  38.783  0.00  0.00    -0.208 NA
ATOM     30  O   UNL d   1      44.600 -17.473  39.796  0.00  0.00    -0.265 OA
BRANCH  29  31
ATOM     31  C   UNL d   1      45.060 -16.819  38.346  0.00  0.00     0.085 A 
ATOM     32  C   UNL d   1      44.246 -16.870  38.201  0.00  0.00     0.019 A 
ATOM     33  C   UNL d   1      44.032 -16.240  37.718  0.00  0.00     0.002 A 
ATOM     34  C   UNL d   1      44.709 -15.795  37.560  0.00  0.00     0.002 A 
ATOM     35  C   UNL d   1      45.343 -16.145  37.943  0.00  0.00     0.019 A 
ENDBRANCH  29  31
ENDBRANCH  27  28
ENDBRANCH  26  27
ENDBRANCH  25  26
ENDBRANCH   1  25
TORSDOF 10
ENDMDL
