MODEL 1
REMARK VINA RESULT:      -4.5      0.000      0.000
REMARK  3 active torsions:
REMARK  status: ('A' for Active; 'I' for Inactive)
REMARK       I    between atoms: C_4  and  N_1 
REMARK    1  A    between atoms: C_2  and  S_8 
REMARK    2  A    between atoms: C_10  and  C_4 
REMARK    3  A    between atoms: S_8  and  C_10 
ROOT
ATOM      1  N   UNL d   1      57.653  -0.242  30.900  0.00  0.00    -0.274 N 
ATOM      2  C   UNL d   1      58.059  -0.614  30.284  0.00  0.00     0.067 A 
ATOM      3  C   UNL d   1      57.144  -0.610  31.451  0.00  0.00     0.259 C 
ATOM      4  C   UNL d   1      57.838   0.569  30.879  0.00  0.00     0.083 A 
ATOM      5  C   UNL d   1      58.494  -0.042  29.880  0.00  0.00     0.018 A 
ATOM      6  O   UNL d   1      57.004  -1.432  31.413  0.00  0.00    -0.267 OA
ATOM      7  C   UNL d   1      58.355   0.682  30.249  0.00  0.00     0.021 A 
ATOM      8  C   UNL d   1      58.087  -1.401  30.039  0.00  0.00     0.018 A 
ATOM      9  C   UNL d   1      58.956  -0.248  29.236  0.00  0.00     0.002 A 
ATOM     10  C   UNL d   1      58.543  -1.619  29.400  0.00  0.00     0.002 A 
ATOM     11  C   UNL d   1      58.985  -1.047  28.987  0.00  0.00     0.000 A 
ENDROOT
BRANCH   3  12
ATOM     12  C   UNL d   1      56.772  -0.158  32.046  0.00  0.00     0.127 C 
BRANCH  12  13
ATOM     13  S   UNL d   1      56.291  -0.527  32.604  0.00  0.00    -0.069 SA
BRANCH  13  14
ATOM     14  C   UNL d   1      55.978  -0.085  33.233  0.00  0.00     0.140 A 
ATOM     15  N   UNL d   1      56.328   0.381  33.827  0.00  0.00    -0.230 NA
ATOM     16  C   UNL d   1      55.720   0.681  34.296  0.00  0.00     0.107 A 
ATOM     17  C   UNL d   1      55.003   0.415  34.011  0.00  0.00     0.058 A 
ATOM     18  S   UNL d   1      55.153  -0.061  33.352  0.00  0.00    -0.059 SA
ENDBRANCH  13  14
ENDBRANCH  12  13
ENDBRANCH   3  12
TORSDOF 3
ENDMDL
MODEL 2
REMARK VINA RESULT:      -2.9      1.420      1.684
REMARK  3 active torsions:
REMARK  status: ('A' for Active; 'I' for Inactive)
REMARK       I    between atoms: C_4  and  N_1 
REMARK    1  A    between atoms: C_2  and  S_8 
REMARK    2  A    between atoms: C_10  and  C_4 
REMARK    3  A    between atoms: S_8  and  C_10 
ROOT
ATOM      1  N   UNL d   1      58.388   0.603  30.754  0.00  0.00    -0.274 N 
ATOM      2  C   UNL d   1      59.112   0.623  30.355  0.00  0.00     0.067 A 
ATOM      3  C   UNL d   1      58.279   0.628  31.582  0.00  0.00     0.259 C 
ATOM      4  C   UNL d   1      57.781   0.554  30.187  0.00  0.00     0.083 A 
ATOM      5  C   UNL d   1      58.960   0.586  29.545  0.00  0.00     0.018 A 
ATOM      6  O   UNL d   1      58.937   0.677  32.093  0.00  0.00    -0.267 OA
ATOM      7  C   UNL d   1      58.142   0.544  29.448  0.00  0.00     0.021 A 
ATOM      8  C   UNL d   1      59.889   0.669  30.625  0.00  0.00     0.018 A 
ATOM      9  C   UNL d   1      59.575   0.595  29.005  0.00  0.00     0.002 A 
ATOM     10  C   UNL d   1      60.510   0.678  30.098  0.00  0.00     0.002 A 
ATOM     11  C   UNL d   1      60.365   0.642  29.280  0.00  0.00     0.000 A 
ENDROOT
BRANCH   3  12
ATOM     12  C   UNL d   1      57.509   0.604  31.905  0.00  0.00     0.127 C 
BRANCH  12  13
ATOM     13  S   UNL d   1      57.406   0.510  32.716  0.00  0.00    -0.069 SA
BRANCH  13  14
ATOM     14  C   UNL d   1      56.641   0.530  33.038  0.00  0.00     0.140 A 
ATOM     15  N   UNL d   1      55.884   0.430  32.706  0.00  0.00    -0.230 NA
ATOM     16  C   UNL d   1      55.334   0.515  33.316  0.00  0.00     0.107 A 
ATOM     17  C   UNL d   1      55.728   0.665  34.015  0.00  0.00     0.058 A 
ATOM     18  S   UNL d   1      56.538   0.676  33.853  0.00  0.00    -0.059 SA
ENDBRANCH  13  14
ENDBRANCH  12  13
ENDBRANCH   3  12
TORSDOF 3
ENDMDL
MODEL 3
REMARK VINA RESULT:      -2.8      1.696      4.222
REMARK  3 active torsions:
REMARK  status: ('A' for Active; 'I' for Inactive)
REMARK       I    between atoms: C_4  and  N_1 
REMARK    1  A    between atoms: C_2  and  S_8 
REMARK    2  A    between atoms: C_10  and  C_4 
REMARK    3  A    between atoms: S_8  and  C_10 
ROOT
ATOM      1  N   UNL d   1      56.992  -0.271  31.622  0.00  0.00    -0.274 N 
ATOM      2  C   UNL d   1      56.502  -0.624  32.186  0.00  0.00     0.067 A 
ATOM      3  C   UNL d   1      57.395  -0.660  31.003  0.00  0.00     0.259 C 
ATOM      4  C   UNL d   1      57.018   0.547  31.777  0.00  0.00     0.083 A 
ATOM      5  C   UNL d   1      56.222  -0.034  32.689  0.00  0.00     0.018 A 
ATOM      6  O   UNL d   1      57.324  -1.486  30.906  0.00  0.00    -0.267 OA
ATOM      7  C   UNL d   1      56.541   0.682  32.434  0.00  0.00     0.021 A 
ATOM      8  C   UNL d   1      56.274  -1.408  32.304  0.00  0.00     0.018 A 
ATOM      9  C   UNL d   1      55.719  -0.219  33.308  0.00  0.00     0.002 A 
ATOM     10  C   UNL d   1      55.774  -1.605  32.916  0.00  0.00     0.002 A 
ATOM     11  C   UNL d   1      55.487  -1.015  33.429  0.00  0.00     0.000 A 
ENDROOT
BRANCH   3  12
ATOM     12  C   UNL d   1      57.874  -0.226  30.474  0.00  0.00     0.127 C 
BRANCH  12  13
ATOM     13  S   UNL d   1      58.367  -0.620  29.945  0.00  0.00    -0.069 SA
BRANCH  13  14
ATOM     14  C   UNL d   1      58.820  -0.184  29.403  0.00  0.00     0.140 A 
ATOM     15  N   UNL d   1      58.687   0.531  28.999  0.00  0.00    -0.230 NA
ATOM     16  C   UNL d   1      59.352   0.679  28.532  0.00  0.00     0.107 A 
ATOM     17  C   UNL d   1      59.893   0.076  28.636  0.00  0.00     0.058 A 
ATOM     18  S   UNL d   1      59.572  -0.463  29.174  0.00  0.00    -0.059 SA
ENDBRANCH  13  14
ENDBRANCH  12  13
ENDBRANCH   3  12
TORSDOF 3
ENDMDL
MODEL 4
REMARK VINA RESULT:      -2.7      9.752      9.863
REMARK  3 active torsions:
REMARK  status: ('A' for Active; 'I' for Inactive)
REMARK       I    between atoms: C_4  and  N_1 
REMARK    1  A    between atoms: C_2  and  S_8 
REMARK    2  A    between atoms: C_10  and  C_4 
REMARK    3  A    between atoms: S_8  and  C_10 
ROOT
ATOM      1  N   UNL d   1      58.505  -9.818  31.794  0.00  0.00    -0.274 N 
ATOM      2  C   UNL d   1      58.411  -9.818  30.973  0.00  0.00     0.067 A 
ATOM      3  C   UNL d   1      59.230  -9.818  32.209  0.00  0.00     0.259 C 
ATOM      4  C   UNL d   1      57.749  -9.818  32.142  0.00  0.00     0.083 A 
ATOM      5  C   UNL d   1      57.603  -9.818  30.807  0.00  0.00     0.018 A 
ATOM      6  O   UNL d   1      59.954  -9.818  31.794  0.00  0.00    -0.267 OA
ATOM      7  C   UNL d   1      57.202  -9.818  31.528  0.00  0.00     0.021 A 
ATOM      8  C   UNL d   1      58.957  -9.818  30.356  0.00  0.00     0.018 A 
ATOM      9  C   UNL d   1      57.337  -9.818  30.033  0.00  0.00     0.002 A 
ATOM     10  C   UNL d   1      58.705  -9.818  29.581  0.00  0.00     0.002 A 
ATOM     11  C   UNL d   1      57.892  -9.818  29.405  0.00  0.00     0.000 A 
ENDROOT
BRANCH   3  12
ATOM     12  C   UNL d   1      59.237  -9.818  33.044  0.00  0.00     0.127 C 
BRANCH  12  13
ATOM     13  S   UNL d   1      59.920  -9.604  33.451  0.00  0.00    -0.069 SA
BRANCH  13  14
ATOM     14  C   UNL d   1      59.896  -9.515  34.276  0.00  0.00     0.140 A 
ATOM     15  N   UNL d   1      59.293  -9.621  34.840  0.00  0.00    -0.230 NA
ATOM     16  C   UNL d   1      59.613  -9.444  35.580  0.00  0.00     0.107 A 
ATOM     17  C   UNL d   1      60.397  -9.233  35.491  0.00  0.00     0.058 A 
ATOM     18  S   UNL d   1      60.581  -9.274  34.687  0.00  0.00    -0.059 SA
ENDBRANCH  13  14
ENDBRANCH  12  13
ENDBRANCH   3  12
TORSDOF 3
ENDMDL
MODEL 5
REMARK VINA RESULT:      -2.7      9.637     10.196
REMARK  3 active torsions:
REMARK  status: ('A' for Active; 'I' for Inactive)
REMARK       I    between atoms: C_4  and  N_1 
REMARK    1  A    between atoms: C_2  and  S_8 
REMARK    2  A    between atoms: C_10  and  C_4 
REMARK    3  A    between atoms: S_8  and  C_10 
ROOT
ATOM      1  N   UNL d   1      59.853  -9.218  33.958  0.00  0.00    -0.274 N 
ATOM      2  C   UNL d   1      59.959  -9.057  34.762  0.00  0.00     0.067 A 
ATOM      3  C   UNL d   1      59.140  -9.448  33.589  0.00  0.00     0.259 C 
ATOM      4  C   UNL d   1      60.584  -9.111  33.574  0.00  0.00     0.083 A 
ATOM      5  C   UNL d   1      60.749  -8.851  34.881  0.00  0.00     0.018 A 
ATOM      6  O   UNL d   1      58.442  -9.536  34.038  0.00  0.00    -0.267 OA
ATOM      7  C   UNL d   1      61.128  -8.886  34.149  0.00  0.00     0.021 A 
ATOM      8  C   UNL d   1      59.438  -9.071  35.400  0.00  0.00     0.018 A 
ATOM      9  C   UNL d   1      61.021  -8.660  35.629  0.00  0.00     0.002 A 
ATOM     10  C   UNL d   1      59.696  -8.883  36.149  0.00  0.00     0.002 A 
ATOM     11  C   UNL d   1      60.491  -8.675  36.278  0.00  0.00     0.000 A 
ENDROOT
BRANCH   3  12
ATOM     12  C   UNL d   1      59.119  -9.592  32.767  0.00  0.00     0.127 C 
BRANCH  12  13
ATOM     13  S   UNL d   1      58.410  -9.795  32.402  0.00  0.00    -0.069 SA
BRANCH  13  14
ATOM     14  C   UNL d   1      58.360  -9.796  31.573  0.00  0.00     0.140 A 
ATOM     15  N   UNL d   1      58.934  -9.818  30.971  0.00  0.00    -0.230 NA
ATOM     16  C   UNL d   1      58.535  -9.806  30.249  0.00  0.00     0.107 A 
ATOM     17  C   UNL d   1      57.731  -9.778  30.386  0.00  0.00     0.058 A 
ATOM     18  S   UNL d   1      57.612  -9.771  31.203  0.00  0.00    -0.059 SA
ENDBRANCH  13  14
ENDBRANCH  12  13
ENDBRANCH   3  12
TORSDOF 3
ENDMDL
MODEL 6
REMARK VINA RESULT:      -2.0      9.446     10.191
REMARK  3 active torsions:
REMARK  status: ('A' for Active; 'I' for Inactive)
REMARK       I    between atoms: C_4  and  N_1 
REMARK    1  A    between atoms: C_2  and  S_8 
REMARK    2  A    between atoms: C_10  and  C_4 
REMARK    3  A    between atoms: S_8  and  C_10 
ROOT
ATOM      1  N   UNL d   1      58.946  -9.799  32.241  0.00  0.00    -0.274 N 
ATOM      2  C   UNL d   1      59.037  -9.787  33.062  0.00  0.00     0.067 A 
ATOM      3  C   UNL d   1      58.222  -9.806  31.823  0.00  0.00     0.259 C 
ATOM      4  C   UNL d   1      59.703  -9.802  31.896  0.00  0.00     0.083 A 
ATOM      5  C   UNL d   1      59.844  -9.783  33.231  0.00  0.00     0.018 A 
ATOM      6  O   UNL d   1      57.496  -9.802  32.235  0.00  0.00    -0.267 OA
ATOM      7  C   UNL d   1      60.248  -9.792  32.513  0.00  0.00     0.021 A 
ATOM      8  C   UNL d   1      58.488  -9.780  33.677  0.00  0.00     0.018 A 
ATOM      9  C   UNL d   1      60.106  -9.771  34.006  0.00  0.00     0.002 A 
ATOM     10  C   UNL d   1      58.736  -9.768  34.453  0.00  0.00     0.002 A 
ATOM     11  C   UNL d   1      59.549  -9.764  34.632  0.00  0.00     0.000 A 
ENDROOT
BRANCH   3  12
ATOM     12  C   UNL d   1      58.219  -9.818  30.988  0.00  0.00     0.127 C 
BRANCH  12  13
ATOM     13  S   UNL d   1      57.515  -9.704  30.576  0.00  0.00    -0.069 SA
BRANCH  13  14
ATOM     14  C   UNL d   1      57.536  -9.541  29.763  0.00  0.00     0.140 A 
ATOM     15  N   UNL d   1      58.090  -9.155  29.276  0.00  0.00    -0.230 NA
ATOM     16  C   UNL d   1      57.795  -9.170  28.506  0.00  0.00     0.107 A 
ATOM     17  C   UNL d   1      57.075  -9.553  28.501  0.00  0.00     0.058 A 
ATOM     18  S   UNL d   1      56.906  -9.787  29.275  0.00  0.00    -0.059 SA
ENDBRANCH  13  14
ENDBRANCH  12  13
ENDBRANCH   3  12
TORSDOF 3
ENDMDL
