MODEL 1
REMARK VINA RESULT:      52.6      0.000      0.000
REMARK  2 active torsions:
REMARK  status: ('A' for Active; 'I' for Inactive)
REMARK    1  A    between atoms: C_4  and  N_2 
REMARK    2  A    between atoms: C_7  and  C_4 
REMARK       I    between atoms: N_8  and  C_7 
ROOT
ATOM      1  S   UNL d   1     -54.867-101.300 -43.929  0.00  0.00     0.274 S 
ATOM      2  N   UNL d   1     -54.803-101.384 -43.121  0.00  0.00    -0.192 N 
ATOM      3  C   UNL d   1     -54.778-100.641 -42.768  0.00  0.00     0.275 A 
ATOM      4  C   UNL d   1     -54.828-100.070 -43.375  0.00  0.00     0.069 A 
ATOM      5  C   UNL d   1     -54.884-100.483 -44.103  0.00  0.00     0.109 A 
ATOM      6  O   UNL d   1     -54.852-102.110 -43.765  0.00  0.00    -0.200 OA
ATOM      7  O   UNL d   1     -54.932-101.419 -44.748  0.00  0.00    -0.200 OA
ATOM      8  O   UNL d   1     -54.713-100.488 -41.945  0.00  0.00    -0.266 OA
ATOM      9  C   UNL d   1     -54.829 -99.262 -43.366  0.00  0.00     0.005 A 
ATOM     10  C   UNL d   1     -54.940-100.074 -44.796  0.00  0.00     0.013 A 
ATOM     11  C   UNL d   1     -54.888 -98.838 -44.090  0.00  0.00     0.000 A 
ATOM     12  C   UNL d   1     -54.943 -99.243 -44.802  0.00  0.00     0.001 A 
ENDROOT
BRANCH   2  13
ATOM     13  C   UNL d   1     -54.770-102.105 -42.730  0.00  0.00     0.156 C 
BRANCH  13  14
ATOM     14  C   UNL d   1     -55.437-102.383 -42.331  0.00  0.00     0.283 C 
ATOM     15  N   UNL d   1     -55.406-102.489 -41.519  0.00  0.00    -0.271 N 
ATOM     16  C   UNL d   1     -54.729-102.327 -41.088  0.00  0.00     0.083 A 
ATOM     17  C   UNL d   1     -56.083-102.771 -41.121  0.00  0.00     0.083 A 
ATOM     18  C   UNL d   1     -54.713-102.438 -40.274  0.00  0.00     0.019 A 
ATOM     19  C   UNL d   1     -55.373-102.715 -39.872  0.00  0.00     0.003 A 
ATOM     20  C   UNL d   1     -56.057-102.879 -40.308  0.00  0.00     0.019 A 
ATOM     21  C   UNL d   1     -55.356-102.828 -39.045  0.00  0.00     0.000 C 
ATOM     22  O   UNL d   1     -56.132-102.551 -42.764  0.00  0.00    -0.265 OA
ENDBRANCH  13  14
ENDBRANCH   2  13
TORSDOF 2
ENDMDL
MODEL 2
REMARK VINA RESULT:      53.5      1.373      4.331
REMARK  2 active torsions:
REMARK  status: ('A' for Active; 'I' for Inactive)
REMARK    1  A    between atoms: C_4  and  N_2 
REMARK    2  A    between atoms: C_7  and  C_4 
REMARK       I    between atoms: N_8  and  C_7 
ROOT
ATOM      1  S   UNL d   1     -54.948-100.921 -40.222  0.00  0.00     0.274 S 
ATOM      2  N   UNL d   1     -54.844-101.365 -40.897  0.00  0.00    -0.192 N 
ATOM      3  C   UNL d   1     -54.829-102.164 -40.703  0.00  0.00     0.275 A 
ATOM      4  C   UNL d   1     -54.928-102.226 -39.876  0.00  0.00     0.069 A 
ATOM      5  C   UNL d   1     -55.002-101.447 -39.575  0.00  0.00     0.109 A 
ATOM      6  O   UNL d   1     -54.895-100.395 -40.857  0.00  0.00    -0.200 OA
ATOM      7  O   UNL d   1     -55.045-100.313 -39.665  0.00  0.00    -0.200 OA
ATOM      8  O   UNL d   1     -54.733-102.801 -41.242  0.00  0.00    -0.266 OA
ATOM      9  C   UNL d   1     -54.960-102.860 -39.376  0.00  0.00     0.005 A 
ATOM     10  C   UNL d   1     -55.105-101.329 -38.783  0.00  0.00     0.013 A 
ATOM     11  C   UNL d   1     -55.067-102.733 -38.552  0.00  0.00     0.000 A 
ATOM     12  C   UNL d   1     -55.140-101.971 -38.256  0.00  0.00     0.001 A 
ENDROOT
BRANCH   2  13
ATOM     13  C   UNL d   1     -54.766-101.050 -41.652  0.00  0.00     0.156 C 
BRANCH  13  14
ATOM     14  C   UNL d   1     -54.760-101.555 -42.305  0.00  0.00     0.283 C 
ATOM     15  N   UNL d   1     -54.749-101.236 -43.060  0.00  0.00    -0.271 N 
ATOM     16  C   UNL d   1     -54.744-100.427 -43.188  0.00  0.00     0.083 A 
ATOM     17  C   UNL d   1     -54.743-101.750 -43.716  0.00  0.00     0.083 A 
ATOM     18  C   UNL d   1     -54.733-100.123 -43.950  0.00  0.00     0.019 A 
ATOM     19  C   UNL d   1     -54.727-100.620 -44.604  0.00  0.00     0.003 A 
ATOM     20  C   UNL d   1     -54.732-101.437 -44.475  0.00  0.00     0.019 A 
ATOM     21  C   UNL d   1     -54.716-100.310 -45.380  0.00  0.00     0.000 C 
ATOM     22  O   UNL d   1     -54.765-102.381 -42.183  0.00  0.00    -0.265 OA
ENDBRANCH  13  14
ENDBRANCH   2  13
TORSDOF 2
ENDMDL
