MODEL 1
REMARK VINA RESULT:      55.6      0.000      0.000
REMARK  4 active torsions:
REMARK  status: ('A' for Active; 'I' for Inactive)
REMARK    1  A    between atoms: N_7  and  C_1 
REMARK    2  A    between atoms: C_11  and  C_2 
REMARK       I    between atoms: C_8  and  N_7 
REMARK    3  A    between atoms: C_13  and  C_8 
REMARK    4  A    between atoms: N_9  and  C_13 
ROOT
ATOM      1  C   UNL d   1      45.406 -15.643  44.500  0.00  0.00     0.142 A 
ATOM      2  C   UNL d   1      45.006 -14.931  44.548  0.00  0.00     0.024 A 
ATOM      3  C   UNL d   1      46.226 -15.654  44.589  0.00  0.00     0.297 A 
ATOM      4  C   UNL d   1      45.406 -14.226  44.683  0.00  0.00     0.020 A 
ATOM      5  N   UNL d   1      46.646 -14.954  44.726  0.00  0.00    -0.207 NA
ATOM      6  C   UNL d   1      46.226 -14.238  44.772  0.00  0.00     0.085 A 
ATOM      7  C   UNL d   1      45.006 -13.519  44.730  0.00  0.00     0.008 A 
ATOM      8  O   UNL d   1      46.647 -16.373  44.543  0.00  0.00    -0.264 OA
ATOM      9  C   UNL d   1      46.646 -13.542  44.908  0.00  0.00     0.020 A 
ATOM     10  C   UNL d   1      45.406 -12.818  44.865  0.00  0.00     0.035 A 
ATOM     11  C   UNL d   1      46.226 -12.830  44.954  0.00  0.00     0.008 A 
ATOM     12 BR   UNL d   1      45.006 -12.082  44.916  0.00  0.00    -0.049 Br
ENDROOT
BRANCH   1  13
ATOM     13  N   UNL d   1      45.006 -16.364  44.362  0.00  0.00    -0.202 NA
ATOM     14  C   UNL d   1      45.382 -16.952  43.889  0.00  0.00     0.297 C 
ATOM     15  O   UNL d   1      45.977 -16.817  43.647  0.00  0.00    -0.264 OA
BRANCH  14  16
ATOM     16  C   UNL d   1      44.990 -17.659  43.755  0.00  0.00     0.144 C 
BRANCH  16  17
ATOM     17  N   UNL d   1      45.397 -18.276  43.364  0.00  0.00    -0.295 N 
ATOM     18  C   UNL d   1      45.709 -18.896  43.800  0.00  0.00     0.107 A 
ATOM     19  C   UNL d   1      46.120 -19.519  43.407  0.00  0.00     0.142 A 
ATOM     20  O   UNL d   1      46.206 -19.502  42.589  0.00  0.00    -0.300 OA
ATOM     21  C   UNL d   1      45.877 -18.852  42.148  0.00  0.00     0.142 A 
ATOM     22  C   UNL d   1      45.480 -18.252  42.543  0.00  0.00     0.107 A 
ENDBRANCH  16  17
ENDBRANCH  14  16
ENDBRANCH   1  13
BRANCH   2  23
ATOM     23  C   UNL d   1      44.168 -14.919  44.456  0.00  0.00     0.002 A 
ATOM     24  C   UNL d   1      43.827 -14.452  43.874  0.00  0.00     0.000 A 
ATOM     25  C   UNL d   1      43.011 -14.441  43.785  0.00  0.00     0.000 A 
ATOM     26  C   UNL d   1      42.513 -14.896  44.276  0.00  0.00     0.000 A 
ATOM     27  C   UNL d   1      42.880 -15.366  44.865  0.00  0.00     0.000 A 
ATOM     28  C   UNL d   1      43.696 -15.377  44.954  0.00  0.00     0.000 A 
ENDBRANCH   2  23
TORSDOF 4
ENDMDL
