MODEL 1
REMARK VINA RESULT:      -8.1      0.000      0.000
REMARK  7 active torsions:
REMARK  status: ('A' for Active; 'I' for Inactive)
REMARK    1  A    between atoms: C_8  and  N_1 
REMARK    2  A    between atoms: C_7  and  C_3 
REMARK    3  A    between atoms: C_10  and  C_6 
REMARK    4  A    between atoms: C_11  and  C_7 
REMARK    5  A    between atoms: C_14  and  C_8 
REMARK    6  A    between atoms: C_12  and  C_14 
REMARK       I    between atoms: N_17  and  C_12 
REMARK    7  A    between atoms: C_20  and  N_17 
ROOT
ATOM      1  C   UNL d   1      49.707  34.349  52.572  0.00  0.00     0.089 C 
ENDROOT
BRANCH   1   2
ATOM      2  N   UNL d   1      49.099  34.781  52.221  0.00  0.00    -0.259 N 
ATOM      3  C   UNL d   1      48.818  34.732  51.434  0.00  0.00     0.153 A 
ATOM      4  S   UNL d   1      48.196  35.278  51.335  0.00  0.00    -0.053 SA
ATOM      5  S   UNL d   1      49.120  34.215  50.847  0.00  0.00    -0.052 SA
ATOM      6  C   UNL d   1      48.083  35.674  52.064  0.00  0.00     0.090 A 
ATOM      7  C   UNL d   1      48.631  35.371  52.599  0.00  0.00     0.272 A 
ATOM      8  O   UNL d   1      48.704  35.625  53.409  0.00  0.00    -0.266 OA
BRANCH   6   9
ATOM      9  C   UNL d   1      47.517  36.259  52.200  0.00  0.00     0.036 C 
BRANCH   9  10
ATOM     10  C   UNL d   1      46.711  36.065  52.106  0.00  0.00     0.101 A 
ATOM     11  O   UNL d   1      46.317  35.613  51.531  0.00  0.00    -0.305 OA
ATOM     12  C   UNL d   1      45.499  35.626  51.748  0.00  0.00     0.123 A 
ATOM     13  C   UNL d   1      45.419  36.055  52.403  0.00  0.00     0.029 A 
ATOM     14  C   UNL d   1      46.152  36.339  52.648  0.00  0.00     0.027 A 
ENDBRANCH   9  10
ENDBRANCH   6   9
ENDBRANCH   1   2
BRANCH   1  15
ATOM     15  C   UNL d   1      50.524  34.559  52.446  0.00  0.00     0.082 C 
BRANCH  15  16
ATOM     16  C   UNL d   1      51.108  34.225  52.916  0.00  0.00     0.281 C 
ATOM     17  N   UNL d   1      51.867  34.552  52.916  0.00  0.00    -0.208 NA
ATOM     18  O   UNL d   1      50.929  33.567  53.383  0.00  0.00    -0.265 OA
BRANCH  17  19
ATOM     19  C   UNL d   1      52.454  34.217  53.389  0.00  0.00     0.088 A 
ATOM     20  C   UNL d   1      52.683  34.595  54.070  0.00  0.00     0.061 A 
ATOM     21  C   UNL d   1      53.258  34.285  54.551  0.00  0.00     0.203 A 
ATOM     22  O   UNL d   1      53.485  34.692  55.255  0.00  0.00    -0.286 OA
ATOM     23  C   UNL d   1      53.614  33.536  54.306  0.00  0.00     0.103 A 
ATOM     24  C   UNL d   1      53.387  33.157  53.628  0.00  0.00     0.011 A 
ATOM     25  C   UNL d   1      52.787  33.518  53.162  0.00  0.00     0.020 A 
BRANCH  23  26
ATOM     26  C   UNL d   1      54.208  33.179  54.767  0.00  0.00     0.214 C 
ATOM     27  O   UNL d   1      54.009  32.571  55.321  0.00  0.00    -0.644 OA
ATOM     28  O   UNL d   1      54.997  33.399  54.703  0.00  0.00    -0.644 OA
ENDBRANCH  23  26
ENDBRANCH  17  19
ENDBRANCH  15  16
ENDBRANCH   1  15
TORSDOF 7
ENDMDL
MODEL 2
REMARK VINA RESULT:      -7.3      2.352      6.370
REMARK  7 active torsions:
REMARK  status: ('A' for Active; 'I' for Inactive)
REMARK    1  A    between atoms: C_8  and  N_1 
REMARK    2  A    between atoms: C_7  and  C_3 
REMARK    3  A    between atoms: C_10  and  C_6 
REMARK    4  A    between atoms: C_11  and  C_7 
REMARK    5  A    between atoms: C_14  and  C_8 
REMARK    6  A    between atoms: C_12  and  C_14 
REMARK       I    between atoms: N_17  and  C_12 
REMARK    7  A    between atoms: C_20  and  N_17 
ROOT
ATOM      1  C   UNL d   1      52.246  33.523  52.973  0.00  0.00     0.089 C 
ENDROOT
BRANCH   1   2
ATOM      2  N   UNL d   1      52.755  32.922  53.215  0.00  0.00    -0.259 N 
ATOM      3  C   UNL d   1      53.294  32.929  53.856  0.00  0.00     0.153 A 
ATOM      4  S   UNL d   1      53.690  32.195  53.884  0.00  0.00    -0.053 SA
ATOM      5  S   UNL d   1      53.411  33.572  54.380  0.00  0.00    -0.052 SA
ATOM      6  C   UNL d   1      53.399  31.723  53.256  0.00  0.00     0.090 A 
ATOM      7  C   UNL d   1      52.833  32.165  52.853  0.00  0.00     0.272 A 
ATOM      8  O   UNL d   1      52.400  31.888  52.174  0.00  0.00    -0.266 OA
BRANCH   6   9
ATOM      9  C   UNL d   1      53.648  30.954  53.091  0.00  0.00     0.036 C 
BRANCH   9  10
ATOM     10  C   UNL d   1      53.445  30.345  53.624  0.00  0.00     0.101 A 
ATOM     11  O   UNL d   1      53.578  30.259  54.439  0.00  0.00    -0.305 OA
ATOM     12  C   UNL d   1      53.234  29.515  54.652  0.00  0.00     0.123 A 
ATOM     13  C   UNL d   1      52.922  29.189  54.007  0.00  0.00     0.029 A 
ATOM     14  C   UNL d   1      53.037  29.678  53.357  0.00  0.00     0.027 A 
ENDBRANCH   9  10
ENDBRANCH   6   9
ENDBRANCH   1   2
BRANCH   1  15
ATOM     15  C   UNL d   1      51.492  33.639  53.353  0.00  0.00     0.082 C 
BRANCH  15  16
ATOM     16  C   UNL d   1      50.917  34.098  52.989  0.00  0.00     0.281 C 
ATOM     17  N   UNL d   1      50.143  34.088  53.278  0.00  0.00    -0.208 NA
ATOM     18  O   UNL d   1      51.120  34.563  52.337  0.00  0.00    -0.265 OA
BRANCH  17  19
ATOM     19  C   UNL d   1      49.566  34.548  52.912  0.00  0.00     0.088 A 
ATOM     20  C   UNL d   1      49.241  35.176  53.313  0.00  0.00     0.061 A 
ATOM     21  C   UNL d   1      48.672  35.643  52.973  0.00  0.00     0.203 A 
ATOM     22  O   UNL d   1      48.344  36.292  53.404  0.00  0.00    -0.286 OA
ATOM     23  C   UNL d   1      48.428  35.444  52.168  0.00  0.00     0.103 A 
ATOM     24  C   UNL d   1      48.750  34.819  51.766  0.00  0.00     0.011 A 
ATOM     25  C   UNL d   1      49.337  34.363  52.161  0.00  0.00     0.020 A 
BRANCH  23  26
ATOM     26  C   UNL d   1      47.847  35.894  51.778  0.00  0.00     0.214 C 
ATOM     27  O   UNL d   1      47.157  35.519  51.462  0.00  0.00    -0.644 OA
ATOM     28  O   UNL d   1      47.919  36.708  51.686  0.00  0.00    -0.644 OA
ENDBRANCH  23  26
ENDBRANCH  17  19
ENDBRANCH  15  16
ENDBRANCH   1  15
TORSDOF 7
ENDMDL
MODEL 3
REMARK VINA RESULT:      -7.1      1.344      6.474
REMARK  7 active torsions:
REMARK  status: ('A' for Active; 'I' for Inactive)
REMARK    1  A    between atoms: C_8  and  N_1 
REMARK    2  A    between atoms: C_7  and  C_3 
REMARK    3  A    between atoms: C_10  and  C_6 
REMARK    4  A    between atoms: C_11  and  C_7 
REMARK    5  A    between atoms: C_14  and  C_8 
REMARK    6  A    between atoms: C_12  and  C_14 
REMARK       I    between atoms: N_17  and  C_12 
REMARK    7  A    between atoms: C_20  and  N_17 
ROOT
ATOM      1  C   UNL d   1      50.528  34.161  53.278  0.00  0.00     0.089 C 
ENDROOT
BRANCH   1   2
ATOM      2  N   UNL d   1      51.306  33.888  53.301  0.00  0.00    -0.259 N 
ATOM      3  C   UNL d   1      51.581  33.105  53.199  0.00  0.00     0.153 A 
ATOM      4  S   UNL d   1      52.412  33.099  53.269  0.00  0.00    -0.053 SA
ATOM      5  S   UNL d   1      51.094  32.439  53.051  0.00  0.00    -0.052 SA
ATOM      6  C   UNL d   1      52.663  33.884  53.416  0.00  0.00     0.090 A 
ATOM      7  C   UNL d   1      51.991  34.360  53.435  0.00  0.00     0.272 A 
ATOM      8  O   UNL d   1      52.001  35.201  53.571  0.00  0.00    -0.266 OA
BRANCH   6   9
ATOM      9  C   UNL d   1      53.447  34.117  53.520  0.00  0.00     0.036 C 
BRANCH   9  10
ATOM     10  C   UNL d   1      53.876  33.796  54.161  0.00  0.00     0.101 A 
ATOM     11  O   UNL d   1      53.695  33.732  54.968  0.00  0.00    -0.305 OA
ATOM     12  C   UNL d   1      54.362  33.353  55.326  0.00  0.00     0.123 A 
ATOM     13  C   UNL d   1      54.896  33.205  54.767  0.00  0.00     0.029 A 
ATOM     14  C   UNL d   1      54.624  33.468  54.037  0.00  0.00     0.027 A 
ENDBRANCH   9  10
ENDBRANCH   6   9
ENDBRANCH   1   2
BRANCH   1  15
ATOM     15  C   UNL d   1      50.231  34.585  52.600  0.00  0.00     0.082 C 
BRANCH  15  16
ATOM     16  C   UNL d   1      49.457  34.856  52.596  0.00  0.00     0.281 C 
ATOM     17  N   UNL d   1      49.121  35.119  51.888  0.00  0.00    -0.208 NA
ATOM     18  O   UNL d   1      49.023  34.862  53.300  0.00  0.00    -0.265 OA
BRANCH  17  19
ATOM     19  C   UNL d   1      48.343  35.391  51.884  0.00  0.00     0.088 A 
ATOM     20  C   UNL d   1      47.801  35.044  51.388  0.00  0.00     0.061 A 
ATOM     21  C   UNL d   1      47.029  35.295  51.367  0.00  0.00     0.203 A 
ATOM     22  O   UNL d   1      46.478  34.923  50.846  0.00  0.00    -0.286 OA
ATOM     23  C   UNL d   1      46.812  35.945  51.893  0.00  0.00     0.103 A 
ATOM     24  C   UNL d   1      47.350  36.293  52.387  0.00  0.00     0.011 A 
ATOM     25  C   UNL d   1      48.138  35.998  52.374  0.00  0.00     0.020 A 
BRANCH  23  26
ATOM     26  C   UNL d   1      46.033  36.237  51.906  0.00  0.00     0.214 C 
ATOM     27  O   UNL d   1      45.724  36.657  51.239  0.00  0.00    -0.644 OA
ATOM     28  O   UNL d   1      45.541  36.130  52.555  0.00  0.00    -0.644 OA
ENDBRANCH  23  26
ENDBRANCH  17  19
ENDBRANCH  15  16
ENDBRANCH   1  15
TORSDOF 7
ENDMDL
