MODEL 1
REMARK VINA RESULT:      80.5      0.000      0.000
REMARK  6 active torsions:
REMARK  status: ('A' for Active; 'I' for Inactive)
REMARK    1  A    between atoms: C_2  and  S_1 
REMARK    2  A    between atoms: N_4  and  S_1 
REMARK    3  A    between atoms: C_9  and  C_17 
REMARK       I    between atoms: N_20  and  C_9 
REMARK    4  A    between atoms: C_18  and  C_25 
REMARK    5  A    between atoms: C_24  and  N_20 
REMARK    6  A    between atoms: C_25  and  C_24 
ROOT
ATOM      1  N   UNL d   1     -55.416-100.114 -44.134  0.00  0.00    -0.229 N 
ATOM      2  C   UNL d   1     -54.953-100.080 -43.448  0.00  0.00     0.092 A 
ATOM      3  C   UNL d   1     -55.756-100.830 -44.360  0.00  0.00     0.092 A 
ATOM      4  C   UNL d   1     -55.177-101.478 -43.224  0.00  0.00     0.061 A 
ATOM      5  C   UNL d   1     -55.637-101.509 -43.907  0.00  0.00     0.025 A 
ATOM      6  C   UNL d   1     -54.834-100.759 -42.995  0.00  0.00     0.025 A 
ENDROOT
BRANCH   1   7
ATOM      7  S   UNL d   1     -55.536 -99.432 -44.590  0.00  0.00     0.273 S 
ATOM      8  O   UNL d   1     -55.655 -98.755 -45.041  0.00  0.00    -0.200 OA
ATOM      9  O   UNL d   1     -54.721 -99.354 -44.688  0.00  0.00    -0.200 OA
BRANCH   7  10
ATOM     10  C   UNL d   1     -56.355 -99.509 -44.491  0.00  0.00     0.125 A 
ATOM     11  C   UNL d   1     -56.872 -99.253 -45.080  0.00  0.00     0.142 A 
ATOM     12  C   UNL d   1     -57.686 -99.330 -44.981  0.00  0.00     0.131 A 
ATOM     13  N   UNL d   1     -56.731 -98.902 -45.816  0.00  0.00    -0.101 NA
ATOM     14  N   UNL d   1     -58.056 -99.027 -45.656  0.00  0.00    -0.102 NA
ATOM     15  C   UNL d   1     -57.992 -99.665 -44.293  0.00  0.00     0.023 A 
ATOM     16  O   UNL d   1     -57.472 -98.764 -46.170  0.00  0.00    -0.106 OA
ATOM     17  C   UNL d   1     -57.474 -99.925 -43.695  0.00  0.00     0.002 A 
ATOM     18  C   UNL d   1     -56.660 -99.848 -43.794  0.00  0.00     0.015 A 
ENDBRANCH   7  10
ENDBRANCH   1   7
BRANCH   4  19
ATOM     19  C   UNL d   1     -55.062-102.156 -42.778  0.00  0.00     0.279 C 
ATOM     20  O   UNL d   1     -54.734-102.823 -43.117  0.00  0.00    -0.265 OA
ATOM     21  N   UNL d   1     -55.279-102.169 -41.975  0.00  0.00    -0.206 NA
BRANCH  21  22
ATOM     22  C   UNL d   1     -55.163-102.858 -41.518  0.00  0.00     0.102 C 
BRANCH  22  23
ATOM     23  C   UNL d   1     -54.755-102.818 -40.797  0.00  0.00     0.021 C 
BRANCH  23  24
ATOM     24  C   UNL d   1     -55.105-102.442 -40.147  0.00  0.00     0.002 A 
ATOM     25  C   UNL d   1     -55.636-101.828 -40.263  0.00  0.00     0.000 A 
ATOM     26  C   UNL d   1     -55.986-101.451 -39.613  0.00  0.00     0.000 A 
ATOM     27  C   UNL d   1     -55.805-101.689 -38.848  0.00  0.00     0.000 A 
ATOM     28  C   UNL d   1     -55.267-102.312 -38.726  0.00  0.00     0.000 A 
ATOM     29  C   UNL d   1     -54.917-102.688 -39.376  0.00  0.00     0.000 A 
ENDBRANCH  23  24
ENDBRANCH  22  23
ENDBRANCH  21  22
ENDBRANCH   4  19
TORSDOF 6
ENDMDL
MODEL 2
REMARK VINA RESULT:      80.6      1.959      5.429
REMARK  6 active torsions:
REMARK  status: ('A' for Active; 'I' for Inactive)
REMARK    1  A    between atoms: C_2  and  S_1 
REMARK    2  A    between atoms: N_4  and  S_1 
REMARK    3  A    between atoms: C_9  and  C_17 
REMARK       I    between atoms: N_20  and  C_9 
REMARK    4  A    between atoms: C_18  and  C_25 
REMARK    5  A    between atoms: C_24  and  N_20 
REMARK    6  A    between atoms: C_25  and  C_24 
ROOT
ATOM      1  N   UNL d   1     -54.917-101.553 -41.303  0.00  0.00    -0.229 N 
ATOM      2  C   UNL d   1     -55.123-101.638 -42.101  0.00  0.00     0.092 A 
ATOM      3  C   UNL d   1     -54.717-100.809 -41.012  0.00  0.00     0.092 A 
ATOM      4  C   UNL d   1     -54.925-100.234 -42.305  0.00  0.00     0.061 A 
ATOM      5  C   UNL d   1     -54.720-100.152 -41.511  0.00  0.00     0.025 A 
ATOM      6  C   UNL d   1     -55.127-100.981 -42.600  0.00  0.00     0.025 A 
ENDROOT
BRANCH   1   7
ATOM      7  S   UNL d   1     -54.914-102.213 -40.801  0.00  0.00     0.273 S 
ATOM      8  O   UNL d   1     -54.910-102.868 -40.304  0.00  0.00    -0.200 OA
ATOM      9  O   UNL d   1     -54.981-102.711 -41.456  0.00  0.00    -0.200 OA
BRANCH   7  10
ATOM     10  C   UNL d   1     -54.846-101.713 -40.144  0.00  0.00     0.125 A 
ATOM     11  C   UNL d   1     -54.807-102.029 -39.383  0.00  0.00     0.142 A 
ATOM     12  C   UNL d   1     -54.740-101.532 -38.729  0.00  0.00     0.131 A 
ATOM     13  N   UNL d   1     -54.822-102.812 -39.114  0.00  0.00    -0.101 NA
ATOM     14  N   UNL d   1     -54.714-102.004 -38.051  0.00  0.00    -0.102 NA
ATOM     15  C   UNL d   1     -54.712-100.714 -38.830  0.00  0.00     0.023 A 
ATOM     16  O   UNL d   1     -54.764-102.789 -38.284  0.00  0.00    -0.106 OA
ATOM     17  C   UNL d   1     -54.751-100.391 -39.596  0.00  0.00     0.002 A 
ATOM     18  C   UNL d   1     -54.818-100.888 -40.249  0.00  0.00     0.015 A 
ENDBRANCH   7  10
ENDBRANCH   1   7
BRANCH   4  19
ATOM     19  C   UNL d   1     -54.927 -99.577 -42.797  0.00  0.00     0.279 C 
ATOM     20  O   UNL d   1     -54.728 -98.841 -42.503  0.00  0.00    -0.265 OA
ATOM     21  N   UNL d   1     -55.131 -99.658 -43.599  0.00  0.00    -0.206 NA
BRANCH  21  22
ATOM     22  C   UNL d   1     -55.134 -98.991 -44.102  0.00  0.00     0.102 C 
BRANCH  22  23
ATOM     23  C   UNL d   1     -55.777 -98.850 -44.607  0.00  0.00     0.021 C 
BRANCH  23  24
ATOM     24  C   UNL d   1     -56.546 -98.835 -44.299  0.00  0.00     0.002 A 
ATOM     25  C   UNL d   1     -56.665 -98.781 -43.490  0.00  0.00     0.000 A 
ATOM     26  C   UNL d   1     -57.434 -98.766 -43.181  0.00  0.00     0.000 A 
ATOM     27  C   UNL d   1     -58.083 -98.806 -43.682  0.00  0.00     0.000 A 
ATOM     28  C   UNL d   1     -57.967 -98.861 -44.504  0.00  0.00     0.000 A 
ATOM     29  C   UNL d   1     -57.197 -98.876 -44.813  0.00  0.00     0.000 A 
ENDBRANCH  23  24
ENDBRANCH  22  23
ENDBRANCH  21  22
ENDBRANCH   4  19
TORSDOF 6
ENDMDL
