MODEL 1
REMARK VINA RESULT:      56.6      0.000      0.000
REMARK  4 active torsions:
REMARK  status: ('A' for Active; 'I' for Inactive)
REMARK    1  A    between atoms: N_10  and  C_3 
REMARK    2  A    between atoms: C_11  and  C_5 
REMARK    3  A    between atoms: C_12  and  N_10 
REMARK    4  A    between atoms: O_21  and  C_14 
ROOT
ATOM      1  N   UNL d   1      45.669 -15.604  43.347  0.00  0.00    -0.184 N 
ATOM      2  C   UNL d   1      45.373 -14.888  43.668  0.00  0.00     0.168 A 
ATOM      3  C   UNL d   1      45.335 -16.325  43.577  0.00  0.00     0.217 A 
ATOM      4  N   UNL d   1      46.613 -14.871  42.583  0.00  0.00    -0.162 NA
ATOM      5  C   UNL d   1      45.698 -14.184  43.444  0.00  0.00     0.055 A 
ATOM      6  N   UNL d   1      44.753 -14.918  44.209  0.00  0.00    -0.227 NA
ATOM      7  C   UNL d   1      44.724 -16.338  44.112  0.00  0.00     0.066 A 
ATOM      8  C   UNL d   1      46.322 -14.166  42.899  0.00  0.00     0.104 A 
ATOM      9  C   UNL d   1      44.422 -15.627  44.438  0.00  0.00     0.087 A 
ATOM     10  C   UNL d   1      44.293 -16.944  44.437  0.00  0.00     0.006 A 
ATOM     11  C   UNL d   1      46.646 -13.449  42.677  0.00  0.00     0.023 C 
ATOM     12  C   UNL d   1      43.814 -15.812  44.955  0.00  0.00     0.019 A 
ATOM     13  C   UNL d   1      43.736 -16.639  44.951  0.00  0.00     0.002 A 
ENDROOT
BRANCH   3  14
ATOM     14  N   UNL d   1      45.631 -17.050  43.255  0.00  0.00    -0.383 NA
BRANCH  14  15
ATOM     15  C   UNL d   1      45.885 -17.781  42.929  0.00  0.00     0.134 A 
ATOM     16  C   UNL d   1      46.126 -17.840  42.136  0.00  0.00     0.034 A 
ATOM     17  C   UNL d   1      46.379 -18.573  41.813  0.00  0.00     0.027 A 
ATOM     18  C   UNL d   1      46.394 -19.268  42.291  0.00  0.00     0.094 A 
ATOM     19  C   UNL d   1      46.147 -19.217  43.111  0.00  0.00     0.027 A 
ATOM     20  C   UNL d   1      45.894 -18.483  43.431  0.00  0.00     0.034 A 
BRANCH  18  21
ATOM     21  O   UNL d   1      46.646 -20.002  41.972  0.00  0.00    -0.328 OA
ATOM     22  C   UNL d   1      46.635 -20.130  41.136  0.00  0.00     0.181 C 
ENDBRANCH  18  21
ENDBRANCH  14  15
ENDBRANCH   3  14
BRANCH   5  23
ATOM     23  C   UNL d   1      45.409 -13.484  43.759  0.00  0.00     0.004 A 
ATOM     24  C   UNL d   1      45.687 -13.209  44.481  0.00  0.00     0.000 A 
ATOM     25  C   UNL d   1      45.400 -12.512  44.798  0.00  0.00     0.000 A 
ATOM     26  C   UNL d   1      44.829 -12.080  44.388  0.00  0.00     0.000 A 
ATOM     27  C   UNL d   1      44.550 -12.344  43.675  0.00  0.00     0.000 A 
ATOM     28  C   UNL d   1      44.843 -13.053  43.356  0.00  0.00     0.000 A 
ENDBRANCH   5  23
TORSDOF 4
ENDMDL
