MODEL 1
REMARK VINA RESULT:      41.1      0.000      0.000
REMARK  3 active torsions:
REMARK  status: ('A' for Active; 'I' for Inactive)
REMARK    1  A    between atoms: C_7  and  N_1 
REMARK    2  A    between atoms: C_2  and  C_5 
REMARK    3  A    between atoms: N_3  and  C_2 
REMARK       I    between atoms: C_6  and  N_4 
ROOT
ATOM      1  C   UNL d   1     -51.695  24.096  33.571  0.00  0.00     0.120 C 
ATOM      2  S   UNL d   1     -51.195  23.491  33.312  0.00  0.00    -0.059 SA
ENDROOT
BRANCH   1   3
ATOM      3  C   UNL d   1     -52.460  23.912  33.840  0.00  0.00     0.028 A 
ATOM      4  C   UNL d   1     -52.589  23.763  34.644  0.00  0.00     0.026 A 
ATOM      5  C   UNL d   1     -53.347  23.581  34.914  0.00  0.00     0.127 A 
ATOM      6  C   UNL d   1     -53.976  23.548  34.382  0.00  0.00     0.024 A 
ATOM      7  C   UNL d   1     -53.848  23.697  33.579  0.00  0.00     0.002 A 
ATOM      8  C   UNL d   1     -53.090  23.879  33.307  0.00  0.00     0.002 A 
BRANCH   5   9
ATOM      9  N   UNL d   1     -53.480  23.431  35.716  0.00  0.00    -0.114 N 
ATOM     10  O   UNL d   1     -52.861  23.207  36.216  0.00  0.00    -0.532 OA
ATOM     11  O   UNL d   1     -54.246  23.509  36.012  0.00  0.00    -0.532 OA
ENDBRANCH   5   9
ENDBRANCH   1   3
BRANCH   1  12
ATOM     12  N   UNL d   1     -51.436  24.879  33.562  0.00  0.00    -0.293 N 
ATOM     13  C   UNL d   1     -50.658  25.060  33.782  0.00  0.00     0.100 A 
ATOM     14  C   UNL d   1     -50.399  25.844  33.774  0.00  0.00     0.102 A 
ATOM     15  N   UNL d   1     -50.915  26.449  33.546  0.00  0.00    -0.269 N 
ATOM     16  C   UNL d   1     -51.693  26.267  33.326  0.00  0.00     0.102 A 
ATOM     17  C   UNL d   1     -50.656  27.232  33.537  0.00  0.00     0.265 C 
ATOM     18  C   UNL d   1     -51.952  25.484  33.334  0.00  0.00     0.100 A 
ATOM     19  O   UNL d   1     -51.172  27.836  33.309  0.00  0.00    -0.267 OA
ATOM     20  C   UNL d   1     -49.884  27.414  33.756  0.00  0.00     0.066 C 
ENDBRANCH   1  12
TORSDOF 3
ENDMDL
