MODEL 1
REMARK VINA RESULT:      85.3      0.000      0.000
REMARK  6 active torsions:
REMARK  status: ('A' for Active; 'I' for Inactive)
REMARK    1  A    between atoms: C_10  and  C_2 
REMARK    2  A    between atoms: C_14  and  N_3 
REMARK    3  A    between atoms: C_15  and  C_4 
REMARK    4  A    between atoms: N_5  and  C_9 
REMARK       I    between atoms: C_7  and  N_8 
REMARK    5  A    between atoms: C_13  and  C_7 
REMARK    6  A    between atoms: N_8  and  C_10 
ROOT
ATOM      1  N   UNL d   1     -49.261  27.786  34.045  0.00  0.00    -0.165 NA
ATOM      2  C   UNL d   1     -49.797  27.305  35.286  0.00  0.00     0.071 A 
ATOM      3  N   UNL d   1     -48.799  28.345  35.239  0.00  0.00    -0.228 N 
ATOM      4  C   UNL d   1     -49.768  27.284  34.476  0.00  0.00     0.105 A 
ATOM      5  C   UNL d   1     -49.307  27.843  35.670  0.00  0.00     0.105 A 
ENDROOT
BRANCH   2   6
ATOM      6  C   UNL d   1     -50.312  26.796  35.723  0.00  0.00     0.168 C 
BRANCH   6   7
ATOM      7  N   UNL d   1     -50.480  26.936  36.520  0.00  0.00    -0.362 NA
ATOM      8  C   UNL d   1     -50.644  27.078  37.311  0.00  0.00     0.328 C 
ATOM      9  O   UNL d   1     -50.288  27.708  37.709  0.00  0.00    -0.251 OA
BRANCH   8  10
ATOM     10  C   UNL d   1     -51.170  26.586  37.712  0.00  0.00     0.070 A 
ATOM     11  C   UNL d   1     -51.908  26.417  37.381  0.00  0.00     0.008 A 
ATOM     12  C   UNL d   1     -52.441  25.922  37.781  0.00  0.00     0.024 A 
ATOM     13  C   UNL d   1     -52.232  25.601  38.506  0.00  0.00     0.127 A 
ATOM     14  C   UNL d   1     -51.496  25.765  38.844  0.00  0.00     0.024 A 
ATOM     15  C   UNL d   1     -50.960  26.266  38.436  0.00  0.00     0.008 A 
BRANCH  13  16
ATOM     16  N   UNL d   1     -52.761  25.107  38.908  0.00  0.00    -0.114 N 
ATOM     17  O   UNL d   1     -52.468  24.584  39.474  0.00  0.00    -0.532 OA
ATOM     18  O   UNL d   1     -53.566  25.138  38.745  0.00  0.00    -0.532 OA
ENDBRANCH  13  16
ENDBRANCH   8  10
ENDBRANCH   6   7
ENDBRANCH   2   6
BRANCH   4  19
ATOM     19  C   UNL d   1     -50.263  26.742  34.082  0.00  0.00     0.019 A 
ATOM     20  C   UNL d   1     -49.988  25.973  33.990  0.00  0.00     0.002 A 
ATOM     21  C   UNL d   1     -50.472  25.431  33.600  0.00  0.00     0.000 A 
ATOM     22  C   UNL d   1     -51.231  25.674  33.307  0.00  0.00     0.000 A 
ATOM     23  C   UNL d   1     -51.490  26.442  33.408  0.00  0.00     0.000 A 
ATOM     24  C   UNL d   1     -51.019  26.984  33.790  0.00  0.00     0.002 A 
ENDBRANCH   4  19
BRANCH   3  25
ATOM     25  C   UNL d   1     -48.246  28.936  35.433  0.00  0.00     0.083 A 
ATOM     26  C   UNL d   1     -48.086  29.567  34.895  0.00  0.00     0.019 A 
ATOM     27  C   UNL d   1     -47.538  30.156  35.083  0.00  0.00     0.002 A 
ATOM     28  C   UNL d   1     -47.150  30.115  35.804  0.00  0.00     0.000 A 
ATOM     29  C   UNL d   1     -47.318  29.481  36.333  0.00  0.00     0.002 A 
ATOM     30  C   UNL d   1     -47.864  28.893  36.148  0.00  0.00     0.019 A 
ENDBRANCH   3  25
TORSDOF 6
ENDMDL
