MODEL 1
REMARK VINA RESULT:       2.5      0.000      0.000
REMARK  9 active torsions:
REMARK  status: ('A' for Active; 'I' for Inactive)
REMARK    1  A    between atoms: C_2  and  C_1 
REMARK    2  A    between atoms: C_23  and  C_7 
REMARK    3  A    between atoms: C_12  and  O_16 
REMARK    4  A    between atoms: C_18  and  C_12 
REMARK    5  A    between atoms: O_16  and  C_14 
REMARK    6  A    between atoms: C_30  and  C_17 
REMARK    7  A    between atoms: C_20  and  C_28 
REMARK    8  A    between atoms: O_25  and  C_23 
REMARK    9  A    between atoms: C_28  and  O_25 
ROOT
ATOM      1  C   UNL d   1      33.033  20.052 -23.460  0.00  0.00     0.098 A 
ATOM      2  C   UNL d   1      32.910  19.528 -24.099  0.00  0.00     0.202 A 
ATOM      3  C   UNL d   1      32.867  18.715 -23.967  0.00  0.00     0.062 A 
ATOM      4  C   UNL d   1      33.112  19.750 -22.686  0.00  0.00     0.130 A 
ATOM      5  C   UNL d   1      32.946  18.412 -23.192  0.00  0.00     0.105 A 
ATOM      6  O   UNL d   1      33.070  18.928 -22.544  0.00  0.00    -0.305 OA
ATOM      7  C   UNL d   1      32.746  18.198 -24.593  0.00  0.00     0.007 A 
ATOM      8  C   UNL d   1      32.782  17.085 -23.694  0.00  0.00     0.105 A 
ATOM      9  C   UNL d   1      32.903  17.598 -23.059  0.00  0.00     0.050 A 
ATOM     10  C   UNL d   1      32.703  17.385 -24.460  0.00  0.00     0.023 A 
ATOM     11  O   UNL d   1      32.831  19.827 -24.865  0.00  0.00    -0.286 OA
ENDROOT
BRANCH   1  12
ATOM     12  C   UNL d   1      33.075  20.867 -23.596  0.00  0.00     0.153 A 
ATOM     13  N   UNL d   1      33.105  21.449 -23.013  0.00  0.00    -0.227 NA
ATOM     14  C   UNL d   1      33.144  22.181 -23.390  0.00  0.00     0.099 A 
ATOM     15  C   UNL d   1      33.183  22.948 -23.098  0.00  0.00     0.021 A 
ATOM     16  C   UNL d   1      33.138  22.049 -24.205  0.00  0.00     0.083 A 
ATOM     17  C   UNL d   1      33.217  23.588 -23.618  0.00  0.00     0.002 A 
ATOM     18  C   UNL d   1      33.211  23.448 -24.435  0.00  0.00     0.002 A 
ATOM     19  C   UNL d   1      33.171  22.685 -24.726  0.00  0.00     0.019 A 
ATOM     20  N   UNL d   1      33.095  21.235 -24.327  0.00  0.00    -0.288 N 
ATOM     21  C   UNL d   1      33.076  20.858 -25.061  0.00  0.00     0.101 C 
ENDBRANCH   1  12
BRANCH   4  22
ATOM     22  C   UNL d   1      33.234  20.271 -22.048  0.00  0.00     0.142 C 
BRANCH  22  23
ATOM     23  O   UNL d   1      33.161  20.001 -21.272  0.00  0.00    -0.315 OA
BRANCH  23  24
ATOM     24  C   UNL d   1      33.185  20.539 -20.642  0.00  0.00     0.246 C 
BRANCH  24  25
ATOM     25  C   UNL d   1      33.197  20.255 -19.863  0.00  0.00     0.217 C 
ATOM     26  O   UNL d   1      33.173  20.778 -19.224  0.00  0.00    -0.645 OA
ATOM     27  O   UNL d   1      33.233  19.441 -19.730  0.00  0.00    -0.645 OA
ENDBRANCH  24  25
ENDBRANCH  23  24
ENDBRANCH  22  23
ENDBRANCH   4  22
BRANCH  10  28
ATOM     28  C   UNL d   1      32.581  16.867 -25.096  0.00  0.00     0.002 C 
ATOM     29  C   UNL d   1      32.224  16.134 -24.968  0.00  0.00     0.000 C 
ENDBRANCH  10  28
BRANCH   8  30
ATOM     30  O   UNL d   1      32.739  16.272 -23.561  0.00  0.00    -0.276 OA
BRANCH  30  31
ATOM     31  C   UNL d   1      32.611  15.983 -22.798  0.00  0.00     0.275 C 
ATOM     32  O   UNL d   1      33.232  15.957 -22.256  0.00  0.00    -0.264 OA
BRANCH  31  33
ATOM     33  C   UNL d   1      31.857  15.718 -22.577  0.00  0.00     0.078 C 
ATOM     34  C   UNL d   1      31.101  15.453 -22.351  0.00  0.00     0.010 C 
ATOM     35  C   UNL d   1      31.658  15.623 -23.372  0.00  0.00     0.010 C 
ATOM     36  C   UNL d   1      32.065  15.816 -21.778  0.00  0.00     0.010 C 
ENDBRANCH  31  33
ENDBRANCH  30  31
ENDBRANCH   8  30
TORSDOF 9
ENDMDL
