MODEL 1
REMARK VINA RESULT:      -4.7      0.000      0.000
REMARK  4 active torsions:
REMARK  status: ('A' for Active; 'I' for Inactive)
REMARK    1  A    between atoms: N_15  and  C_6 
REMARK    2  A    between atoms: N_14  and  C_19 
REMARK    3  A    between atoms: C_18  and  N_15 
REMARK    4  A    between atoms: C_19  and  C_18 
ROOT
ATOM      1  N   UNL d   1      58.677  -0.941  29.802  0.00  0.00    -0.183 N 
ATOM      2  C   UNL d   1      59.327  -1.193  29.361  0.00  0.00     0.169 A 
ATOM      3  C   UNL d   1      59.396  -1.970  29.132  0.00  0.00     0.073 A 
ATOM      4  C   UNL d   1      58.811  -2.494  29.345  0.00  0.00     0.185 A 
ATOM      5  N   UNL d   1      58.161  -2.241  29.786  0.00  0.00    -0.142 NA
ATOM      6  C   UNL d   1      58.625  -0.160  30.021  0.00  0.00     0.218 A 
ATOM      7  N   UNL d   1      59.908  -0.659  29.152  0.00  0.00    -0.226 NA
ATOM      8  C   UNL d   1      60.039  -2.220  28.696  0.00  0.00     0.007 A 
ATOM      9  N   UNL d   1      58.867  -3.284  29.121  0.00  0.00    -0.225 NA
ATOM     10  C   UNL d   1      59.197   0.373  29.817  0.00  0.00     0.071 A 
ATOM     11  C   UNL d   1      60.109  -2.998  28.467  0.00  0.00     0.019 A 
ATOM     12  C   UNL d   1      59.848   0.120  29.377  0.00  0.00     0.087 A 
ATOM     13  C   UNL d   1      59.517  -3.537  28.680  0.00  0.00     0.083 A 
ATOM     14  C   UNL d   1      60.622  -1.682  28.487  0.00  0.00     0.000 C 
ATOM     15  C   UNL d   1      60.450   0.678  29.162  0.00  0.00     0.021 C 
ATOM     16  C   UNL d   1      59.579  -4.312  28.456  0.00  0.00     0.021 C 
ENDROOT
BRANCH   6  17
ATOM     17  N   UNL d   1      57.950   0.092  30.476  0.00  0.00    -0.379 NA
BRANCH  17  18
ATOM     18  C   UNL d   1      57.248   0.131  30.929  0.00  0.00     0.182 C 
BRANCH  18  19
ATOM     19  C   UNL d   1      57.313   0.198  31.767  0.00  0.00     0.116 C 
BRANCH  19  20
ATOM     20  N   UNL d   1      56.625   0.043  32.248  0.00  0.00    -0.297 N 
ATOM     21  C   UNL d   1      56.145   0.676  32.496  0.00  0.00     0.107 A 
ATOM     22  C   UNL d   1      55.453   0.519  32.979  0.00  0.00     0.142 A 
ATOM     23  O   UNL d   1      55.259  -0.268  33.200  0.00  0.00    -0.300 OA
ATOM     24  C   UNL d   1      55.751  -0.911  32.944  0.00  0.00     0.142 A 
ATOM     25  C   UNL d   1      56.438  -0.759  32.466  0.00  0.00     0.107 A 
ENDBRANCH  19  20
ENDBRANCH  18  19
ENDBRANCH  17  18
ENDBRANCH   6  17
TORSDOF 4
ENDMDL
MODEL 2
REMARK VINA RESULT:      -3.8      8.892      9.154
REMARK  4 active torsions:
REMARK  status: ('A' for Active; 'I' for Inactive)
REMARK    1  A    between atoms: N_15  and  C_6 
REMARK    2  A    between atoms: N_14  and  C_19 
REMARK    3  A    between atoms: C_18  and  N_15 
REMARK    4  A    between atoms: C_19  and  C_18 
ROOT
ATOM      1  N   UNL d   1      58.868  -9.818  31.412  0.00  0.00    -0.183 N 
ATOM      2  C   UNL d   1      58.877  -9.817  30.588  0.00  0.00     0.169 A 
ATOM      3  C   UNL d   1      58.183  -9.817  30.165  0.00  0.00     0.073 A 
ATOM      4  C   UNL d   1      57.478  -9.818  30.573  0.00  0.00     0.185 A 
ATOM      5  N   UNL d   1      57.469  -9.818  31.398  0.00  0.00    -0.142 NA
ATOM      6  C   UNL d   1      59.573  -9.818  31.817  0.00  0.00     0.218 A 
ATOM      7  N   UNL d   1      59.590  -9.817  30.189  0.00  0.00    -0.226 NA
ATOM      8  C   UNL d   1      58.191  -9.817  29.349  0.00  0.00     0.007 A 
ATOM      9  N   UNL d   1      56.766  -9.818  30.159  0.00  0.00    -0.225 NA
ATOM     10  C   UNL d   1      60.281  -9.817  31.427  0.00  0.00     0.071 A 
ATOM     11  C   UNL d   1      57.496  -9.817  28.927  0.00  0.00     0.019 A 
ATOM     12  C   UNL d   1      60.290  -9.817  30.602  0.00  0.00     0.087 A 
ATOM     13  C   UNL d   1      56.774  -9.817  29.334  0.00  0.00     0.083 A 
ATOM     14  C   UNL d   1      58.907  -9.817  28.951  0.00  0.00     0.000 C 
ATOM     15  C   UNL d   1      61.032  -9.817  30.191  0.00  0.00     0.021 C 
ATOM     16  C   UNL d   1      56.079  -9.817  28.921  0.00  0.00     0.021 C 
ENDROOT
BRANCH   6  17
ATOM     17  N   UNL d   1      59.555  -9.818  32.669  0.00  0.00    -0.379 NA
BRANCH  17  18
ATOM     18  C   UNL d   1      59.749  -9.807  33.482  0.00  0.00     0.182 C 
BRANCH  18  19
ATOM     19  C   UNL d   1      59.312  -9.299  33.994  0.00  0.00     0.116 C 
BRANCH  19  20
ATOM     20  N   UNL d   1      59.634  -9.112  34.762  0.00  0.00    -0.297 N 
ATOM     21  C   UNL d   1      60.121  -8.444  34.853  0.00  0.00     0.107 A 
ATOM     22  C   UNL d   1      60.444  -8.257  35.625  0.00  0.00     0.142 A 
ATOM     23  O   UNL d   1      60.272  -8.745  36.288  0.00  0.00    -0.300 OA
ATOM     24  C   UNL d   1      59.774  -9.426  36.190  0.00  0.00     0.142 A 
ATOM     25  C   UNL d   1      59.452  -9.614  35.426  0.00  0.00     0.107 A 
ENDBRANCH  19  20
ENDBRANCH  18  19
ENDBRANCH  17  18
ENDBRANCH   6  17
TORSDOF 4
ENDMDL
MODEL 3
REMARK VINA RESULT:      -2.6      2.131      5.977
REMARK  4 active torsions:
REMARK  status: ('A' for Active; 'I' for Inactive)
REMARK    1  A    between atoms: N_15  and  C_6 
REMARK    2  A    between atoms: N_14  and  C_19 
REMARK    3  A    between atoms: C_18  and  N_15 
REMARK    4  A    between atoms: C_19  and  C_18 
ROOT
ATOM      1  N   UNL d   1      56.588   0.611  32.984  0.00  0.00    -0.183 N 
ATOM      2  C   UNL d   1      56.381   0.635  33.782  0.00  0.00     0.169 A 
ATOM      3  C   UNL d   1      55.600   0.641  34.008  0.00  0.00     0.073 A 
ATOM      4  C   UNL d   1      55.027   0.623  33.430  0.00  0.00     0.185 A 
ATOM      5  N   UNL d   1      55.234   0.600  32.632  0.00  0.00    -0.142 NA
ATOM      6  C   UNL d   1      57.374   0.606  32.778  0.00  0.00     0.218 A 
ATOM      7  N   UNL d   1      56.965   0.653  34.353  0.00  0.00    -0.226 NA
ATOM      8  C   UNL d   1      55.395   0.664  34.797  0.00  0.00     0.007 A 
ATOM      9  N   UNL d   1      54.231   0.629  33.643  0.00  0.00    -0.225 NA
ATOM     10  C   UNL d   1      57.956   0.623  33.339  0.00  0.00     0.071 A 
ATOM     11  C   UNL d   1      54.613   0.670  35.023  0.00  0.00     0.019 A 
ATOM     12  C   UNL d   1      57.748   0.647  34.137  0.00  0.00     0.087 A 
ATOM     13  C   UNL d   1      54.023   0.653  34.441  0.00  0.00     0.083 A 
ATOM     14  C   UNL d   1      55.982   0.682  35.369  0.00  0.00     0.000 C 
ATOM     15  C   UNL d   1      58.357   0.665  34.728  0.00  0.00     0.021 C 
ATOM     16  C   UNL d   1      53.244   0.658  34.658  0.00  0.00     0.021 C 
ENDROOT
BRANCH   6  17
ATOM     17  N   UNL d   1      57.580   0.582  31.951  0.00  0.00    -0.379 NA
BRANCH  17  18
ATOM     18  C   UNL d   1      57.970   0.628  31.213  0.00  0.00     0.182 C 
BRANCH  18  19
ATOM     19  C   UNL d   1      57.734   0.099  30.600  0.00  0.00     0.116 C 
BRANCH  19  20
ATOM     20  N   UNL d   1      58.243   0.003  29.921  0.00  0.00    -0.297 N 
ATOM     21  C   UNL d   1      58.282  -0.734  29.537  0.00  0.00     0.107 A 
ATOM     22  C   UNL d   1      58.794  -0.829  28.855  0.00  0.00     0.142 A 
ATOM     23  O   UNL d   1      59.253  -0.184  28.574  0.00  0.00    -0.300 OA
ATOM     24  C   UNL d   1      59.210   0.567  28.970  0.00  0.00     0.142 A 
ATOM     25  C   UNL d   1      58.704   0.664  29.646  0.00  0.00     0.107 A 
ENDBRANCH  19  20
ENDBRANCH  18  19
ENDBRANCH  17  18
ENDBRANCH   6  17
TORSDOF 4
ENDMDL
