MODEL 1
REMARK VINA RESULT:     101.9      0.000      0.000
REMARK  3 active torsions:
REMARK  status: ('A' for Active; 'I' for Inactive)
REMARK    1  A    between atoms: N_9  and  C_3 
REMARK    2  A    between atoms: C_14  and  C_4 
REMARK       I    between atoms: C_10  and  N_11 
REMARK    3  A    between atoms: C_13  and  C_10 
ROOT
ATOM      1  N   UNL d   1     -55.360-101.462 -40.272  0.00  0.00    -0.196 N 
ATOM      2  C   UNL d   1     -55.417-101.396 -39.457  0.00  0.00     0.167 A 
ATOM      3  C   UNL d   1     -55.091-100.825 -40.724  0.00  0.00     0.152 A 
ATOM      4  C   UNL d   1     -55.698-102.108 -39.162  0.00  0.00     0.057 A 
ATOM      5  N   UNL d   1     -55.607-102.215 -40.486  0.00  0.00    -0.161 NA
ATOM      6  N   UNL d   1     -55.204-100.692 -39.081  0.00  0.00    -0.227 NA
ATOM      7  C   UNL d   1     -54.877-100.118 -40.348  0.00  0.00     0.057 A 
ATOM      8  C   UNL d   1     -55.814-102.611 -39.792  0.00  0.00     0.124 A 
ATOM      9  C   UNL d   1     -54.933-100.052 -39.532  0.00  0.00     0.086 A 
ATOM     10  C   UNL d   1     -54.716 -99.337 -39.161  0.00  0.00     0.021 C 
ENDROOT
BRANCH   3  11
ATOM     11  N   UNL d   1     -55.035-100.891 -41.540  0.00  0.00    -0.286 N 
ATOM     12  C   UNL d   1     -55.119-100.234 -42.023  0.00  0.00     0.101 A 
ATOM     13  C   UNL d   1     -55.062-100.305 -42.847  0.00  0.00     0.102 A 
ATOM     14  N   UNL d   1     -54.918-101.046 -43.183  0.00  0.00    -0.267 N 
ATOM     15  C   UNL d   1     -54.859-101.126 -44.011  0.00  0.00     0.288 C 
ATOM     16  C   UNL d   1     -54.833-101.704 -42.704  0.00  0.00     0.102 A 
ATOM     17  O   UNL d   1     -54.716-101.860 -44.352  0.00  0.00    -0.264 OA
ATOM     18  C   UNL d   1     -54.891-101.633 -41.880  0.00  0.00     0.101 A 
BRANCH  15  19
ATOM     19  C   UNL d   1     -54.945-100.460 -44.490  0.00  0.00     0.156 A 
ATOM     20  O   UNL d   1     -55.206-100.365 -45.258  0.00  0.00    -0.300 OA
ATOM     21  C   UNL d   1     -55.171 -99.559 -45.448  0.00  0.00     0.123 A 
ATOM     22  C   UNL d   1     -54.892 -99.170 -44.800  0.00  0.00     0.029 A 
ATOM     23  C   UNL d   1     -54.750 -99.716 -44.205  0.00  0.00     0.032 A 
ENDBRANCH  15  19
ENDBRANCH   3  11
BRANCH   4  24
ATOM     24  C   UNL d   1     -55.863-102.363 -38.396  0.00  0.00     0.004 A 
ATOM     25  C   UNL d   1     -55.263-102.362 -37.820  0.00  0.00     0.000 A 
ATOM     26  C   UNL d   1     -55.428-102.617 -37.054  0.00  0.00     0.000 A 
ATOM     27  C   UNL d   1     -56.187-102.875 -36.855  0.00  0.00     0.000 A 
ATOM     28  C   UNL d   1     -56.785-102.877 -37.426  0.00  0.00     0.000 A 
ATOM     29  C   UNL d   1     -56.620-102.621 -38.193  0.00  0.00     0.000 A 
ENDBRANCH   4  24
TORSDOF 3
ENDMDL
