MODEL 1
REMARK VINA RESULT:      -8.8      0.000      0.000
REMARK  6 active torsions:
REMARK  status: ('A' for Active; 'I' for Inactive)
REMARK    1  A    between atoms: N_3  and  C_1 
REMARK    2  A    between atoms: S_2  and  C_10 
REMARK    3  A    between atoms: N_8  and  S_2 
REMARK       I    between atoms: C_9  and  N_3 
REMARK    4  A    between atoms: C_23  and  N_4 
REMARK    5  A    between atoms: C_13  and  C_9 
REMARK    6  A    between atoms: O_25  and  C_14 
ROOT
ATOM      1  N   UNL d   1      49.207  35.108  52.830  0.00  0.00    -0.184 NA
ATOM      2  C   UNL d   1      49.660  34.548  52.412  0.00  0.00     0.281 C 
ATOM      3  O   UNL d   1      49.369  34.228  51.709  0.00  0.00    -0.265 OA
ENDROOT
BRANCH   2   4
ATOM      4  C   UNL d   1      50.400  34.314  52.702  0.00  0.00     0.058 A 
ATOM      5  C   UNL d   1      50.443  33.723  53.274  0.00  0.00     0.005 A 
ATOM      6  C   UNL d   1      51.180  33.489  53.563  0.00  0.00     0.013 A 
ATOM      7  C   UNL d   1      51.872  33.846  53.282  0.00  0.00     0.104 A 
ATOM      8  C   UNL d   1      51.818  34.444  52.703  0.00  0.00     0.013 A 
ATOM      9  C   UNL d   1      51.082  34.681  52.410  0.00  0.00     0.005 A 
BRANCH   7  10
ATOM     10  S   UNL d   1      52.609  33.613  53.571  0.00  0.00     0.272 S 
ATOM     11  O   UNL d   1      52.724  34.405  53.809  0.00  0.00    -0.200 OA
ATOM     12  O   UNL d   1      52.492  32.836  53.334  0.00  0.00    -0.200 OA
BRANCH  10  13
ATOM     13  N   UNL d   1      53.345  33.383  53.860  0.00  0.00    -0.225 N 
ATOM     14  C   UNL d   1      53.582  33.633  54.602  0.00  0.00     0.118 A 
ATOM     15  C   UNL d   1      54.319  33.404  54.895  0.00  0.00     0.142 A 
ATOM     16  O   UNL d   1      54.814  32.925  54.441  0.00  0.00    -0.300 OA
ATOM     17  C   UNL d   1      54.569  32.676  53.694  0.00  0.00     0.142 A 
ATOM     18  C   UNL d   1      53.832  32.905  53.401  0.00  0.00     0.118 A 
ENDBRANCH  10  13
ENDBRANCH   7  10
ENDBRANCH   2   4
BRANCH   1  19
ATOM     19  C   UNL d   1      48.461  35.340  52.532  0.00  0.00     0.182 A 
ATOM     20  N   UNL d   1      47.880  35.731  52.957  0.00  0.00    -0.283 N 
ATOM     21  C   UNL d   1      47.232  35.857  52.462  0.00  0.00     0.094 A 
ATOM     22  C   UNL d   1      46.490  36.225  52.591  0.00  0.00     0.111 A 
ATOM     23  C   UNL d   1      47.409  35.545  51.726  0.00  0.00     0.050 A 
ATOM     24  C   UNL d   1      45.949  36.265  51.974  0.00  0.00     0.026 A 
ATOM     25  C   UNL d   1      46.121  35.953  51.232  0.00  0.00     0.003 A 
ATOM     26  C   UNL d   1      46.855  35.591  51.108  0.00  0.00     0.008 A 
ATOM     27  S   UNL d   1      48.168  35.222  51.759  0.00  0.00    -0.048 SA
BRANCH  20  28
ATOM     28  C   UNL d   1      47.928  35.962  53.747  0.00  0.00     0.082 C 
ATOM     29  C   UNL d   1      48.419  36.557  54.039  0.00  0.00     0.021 C 
ENDBRANCH  20  28
BRANCH  22  30
ATOM     30  O   UNL d   1      46.312  36.536  53.322  0.00  0.00    -0.327 OA
ATOM     31  C   UNL d   1      45.536  36.709  53.518  0.00  0.00     0.181 C 
ENDBRANCH  22  30
ENDBRANCH   1  19
TORSDOF 6
ENDMDL
MODEL 2
REMARK VINA RESULT:      -8.0      1.069      6.376
REMARK  6 active torsions:
REMARK  status: ('A' for Active; 'I' for Inactive)
REMARK    1  A    between atoms: N_3  and  C_1 
REMARK    2  A    between atoms: S_2  and  C_10 
REMARK    3  A    between atoms: N_8  and  S_2 
REMARK       I    between atoms: C_9  and  N_3 
REMARK    4  A    between atoms: C_23  and  N_4 
REMARK    5  A    between atoms: C_13  and  C_9 
REMARK    6  A    between atoms: O_25  and  C_14 
ROOT
ATOM      1  N   UNL d   1      51.744  34.250  53.191  0.00  0.00    -0.184 NA
ATOM      2  C   UNL d   1      51.106  33.804  52.897  0.00  0.00     0.281 C 
ATOM      3  O   UNL d   1      51.190  32.990  52.788  0.00  0.00    -0.265 OA
ENDROOT
BRANCH   2   4
ATOM      4  C   UNL d   1      50.389  34.177  52.715  0.00  0.00     0.058 A 
ATOM      5  C   UNL d   1      50.158  34.251  51.929  0.00  0.00     0.005 A 
ATOM      6  C   UNL d   1      49.443  34.623  51.746  0.00  0.00     0.013 A 
ATOM      7  C   UNL d   1      48.961  34.920  52.350  0.00  0.00     0.104 A 
ATOM      8  C   UNL d   1      49.203  34.840  53.145  0.00  0.00     0.013 A 
ATOM      9  C   UNL d   1      49.918  34.468  53.331  0.00  0.00     0.005 A 
BRANCH   7  10
ATOM     10  S   UNL d   1      48.247  35.291  52.169  0.00  0.00     0.272 S 
ATOM     11  O   UNL d   1      48.307  34.953  51.408  0.00  0.00    -0.200 OA
ATOM     12  O   UNL d   1      48.192  35.621  52.918  0.00  0.00    -0.200 OA
BRANCH  10  13
ATOM     13  N   UNL d   1      47.534  35.661  51.986  0.00  0.00    -0.225 N 
ATOM     14  C   UNL d   1      47.059  35.349  51.396  0.00  0.00     0.118 A 
ATOM     15  C   UNL d   1      46.344  35.717  51.210  0.00  0.00     0.142 A 
ATOM     16  O   UNL d   1      46.110  36.396  51.617  0.00  0.00    -0.300 OA
ATOM     17  C   UNL d   1      46.593  36.705  52.209  0.00  0.00     0.142 A 
ATOM     18  C   UNL d   1      47.308  36.337  52.395  0.00  0.00     0.118 A 
ENDBRANCH  10  13
ENDBRANCH   7  10
ENDBRANCH   2   4
BRANCH   1  19
ATOM     19  C   UNL d   1      52.465  33.868  53.372  0.00  0.00     0.182 A 
ATOM     20  N   UNL d   1      53.001  34.110  53.941  0.00  0.00    -0.283 N 
ATOM     21  C   UNL d   1      53.637  33.584  53.946  0.00  0.00     0.094 A 
ATOM     22  C   UNL d   1      54.339  33.554  54.403  0.00  0.00     0.111 A 
ATOM     23  C   UNL d   1      53.497  33.011  53.377  0.00  0.00     0.050 A 
ATOM     24  C   UNL d   1      54.876  32.947  54.274  0.00  0.00     0.026 A 
ATOM     25  C   UNL d   1      54.742  32.368  53.705  0.00  0.00     0.003 A 
ATOM     26  C   UNL d   1      54.048  32.400  53.254  0.00  0.00     0.008 A 
ATOM     27  S   UNL d   1      52.773  33.178  53.017  0.00  0.00    -0.048 SA
BRANCH  20  28
ATOM     28  C   UNL d   1      52.927  34.770  54.431  0.00  0.00     0.082 C 
ATOM     29  C   UNL d   1      52.944  35.554  54.178  0.00  0.00     0.021 C 
ENDBRANCH  20  28
BRANCH  22  30
ATOM     30  O   UNL d   1      54.480  34.122  54.968  0.00  0.00    -0.327 OA
ATOM     31  C   UNL d   1      55.137  34.066  55.455  0.00  0.00     0.181 C 
ENDBRANCH  22  30
ENDBRANCH   1  19
TORSDOF 6
ENDMDL
MODEL 3
REMARK VINA RESULT:      -7.5      1.219      6.438
REMARK  6 active torsions:
REMARK  status: ('A' for Active; 'I' for Inactive)
REMARK    1  A    between atoms: N_3  and  C_1 
REMARK    2  A    between atoms: S_2  and  C_10 
REMARK    3  A    between atoms: N_8  and  S_2 
REMARK       I    between atoms: C_9  and  N_3 
REMARK    4  A    between atoms: C_23  and  N_4 
REMARK    5  A    between atoms: C_13  and  C_9 
REMARK    6  A    between atoms: O_25  and  C_14 
ROOT
ATOM      1  N   UNL d   1      51.195  33.535  53.135  0.00  0.00    -0.184 NA
ATOM      2  C   UNL d   1      51.090  34.300  52.823  0.00  0.00     0.281 C 
ATOM      3  O   UNL d   1      51.747  34.784  52.696  0.00  0.00    -0.265 OA
ENDROOT
BRANCH   2   4
ATOM      4  C   UNL d   1      50.329  34.573  52.642  0.00  0.00     0.058 A 
ATOM      5  C   UNL d   1      49.880  34.939  53.226  0.00  0.00     0.005 A 
ATOM      6  C   UNL d   1      49.121  35.211  53.046  0.00  0.00     0.013 A 
ATOM      7  C   UNL d   1      48.813  35.117  52.283  0.00  0.00     0.104 A 
ATOM      8  C   UNL d   1      49.277  34.745  51.698  0.00  0.00     0.013 A 
ATOM      9  C   UNL d   1      50.036  34.471  51.874  0.00  0.00     0.005 A 
BRANCH   7  10
ATOM     10  S   UNL d   1      48.056  35.389  52.102  0.00  0.00     0.272 S 
ATOM     11  O   UNL d   1      48.069  35.796  52.832  0.00  0.00    -0.200 OA
ATOM     12  O   UNL d   1      48.047  34.988  51.387  0.00  0.00    -0.200 OA
BRANCH  10  13
ATOM     13  N   UNL d   1      47.299  35.662  51.925  0.00  0.00    -0.225 N 
ATOM     14  C   UNL d   1      46.963  36.247  52.388  0.00  0.00     0.118 A 
ATOM     15  C   UNL d   1      46.205  36.523  52.213  0.00  0.00     0.142 A 
ATOM     16  O   UNL d   1      45.789  36.210  51.573  0.00  0.00    -0.300 OA
ATOM     17  C   UNL d   1      46.133  35.621  51.109  0.00  0.00     0.142 A 
ATOM     18  C   UNL d   1      46.891  35.345  51.285  0.00  0.00     0.118 A 
ENDBRANCH  10  13
ENDBRANCH   7  10
ENDBRANCH   2   4
BRANCH   1  19
ATOM     19  C   UNL d   1      51.965  33.265  53.316  0.00  0.00     0.182 A 
ATOM     20  N   UNL d   1      52.225  32.492  53.251  0.00  0.00    -0.283 N 
ATOM     21  C   UNL d   1      53.017  32.459  53.482  0.00  0.00     0.094 A 
ATOM     22  C   UNL d   1      53.564  31.826  53.528  0.00  0.00     0.111 A 
ATOM     23  C   UNL d   1      53.251  33.216  53.692  0.00  0.00     0.050 A 
ATOM     24  C   UNL d   1      54.329  31.975  53.785  0.00  0.00     0.026 A 
ATOM     25  C   UNL d   1      54.571  32.732  53.998  0.00  0.00     0.003 A 
ATOM     26  C   UNL d   1      54.029  33.356  53.951  0.00  0.00     0.008 A 
ATOM     27  S   UNL d   1      52.607  33.722  53.592  0.00  0.00    -0.048 SA
BRANCH  20  28
ATOM     28  C   UNL d   1      51.778  31.847  52.997  0.00  0.00     0.082 C 
ATOM     29  C   UNL d   1      51.139  31.522  53.406  0.00  0.00     0.021 C 
ENDBRANCH  20  28
BRANCH  22  30
ATOM     30  O   UNL d   1      53.333  31.074  53.320  0.00  0.00    -0.327 OA
ATOM     31  C   UNL d   1      53.865  30.453  53.362  0.00  0.00     0.181 C 
ENDBRANCH  22  30
ENDBRANCH   1  19
TORSDOF 6
ENDMDL
