MODEL 1
REMARK VINA RESULT:      13.1      0.000      0.000
REMARK  7 active torsions:
REMARK  status: ('A' for Active; 'I' for Inactive)
REMARK    1  A    between atoms: C_2  and  C_1 
REMARK    2  A    between atoms: O_12  and  C_1 
REMARK       I    between atoms: C_3  and  N_4 
REMARK    3  A    between atoms: C_11  and  C_3 
REMARK    4  A    between atoms: N_4  and  C_7 
REMARK    5  A    between atoms: C_5  and  C_13 
REMARK    6  A    between atoms: O_14  and  C_5 
REMARK    7  A    between atoms: C_13  and  C_11 
ROOT
ATOM      1  C   UNL d   1     -50.467  26.328  33.397  0.00  0.00     0.063 A 
ATOM      2  C   UNL d   1     -50.731  25.549  33.343  0.00  0.00     0.023 A 
ATOM      3  C   UNL d   1     -50.204  24.914  33.367  0.00  0.00     0.059 A 
ATOM      4  C   UNL d   1     -49.647  26.484  33.479  0.00  0.00     0.006 A 
ATOM      5  C   UNL d   1     -49.117  25.845  33.503  0.00  0.00     0.002 A 
ATOM      6  C   UNL d   1     -49.404  25.068  33.446  0.00  0.00     0.017 A 
ENDROOT
BRANCH   3   7
ATOM      7  N   UNL d   1     -50.485  24.120  33.310  0.00  0.00    -0.321 N 
ATOM      8  C   UNL d   1     -51.294  23.972  33.361  0.00  0.00     0.258 C 
ATOM      9  O   UNL d   1     -51.571  23.189  33.306  0.00  0.00    -0.267 OA
ATOM     10  H   UNL d   1     -49.943  23.504  33.205  0.00  0.00     0.169 HD
BRANCH   8  11
ATOM     11  C   UNL d   1     -51.845  24.579  33.466  0.00  0.00     0.067 C 
BRANCH  11  12
ATOM     12  C   UNL d   1     -52.637  24.474  33.316  0.00  0.00     0.072 C 
BRANCH  12  13
ATOM     13  C   UNL d   1     -53.081  23.977  33.789  0.00  0.00     0.178 C 
ATOM     14  O   UNL d   1     -53.238  23.211  33.526  0.00  0.00    -0.646 OA
BRANCH  13  15
ATOM     15  O   UNL d   1     -53.366  24.231  34.510  0.00  0.00    -0.773 OA
ATOM     16  H   UNL d   1     -52.919  24.713  34.978  0.00  0.00     0.167 HD
ENDBRANCH  13  15
ENDBRANCH  12  13
ENDBRANCH  11  12
ENDBRANCH   8  11
ENDBRANCH   3   7
BRANCH   1  17
ATOM     17  C   UNL d   1     -51.007  26.951  33.372  0.00  0.00     0.178 C 
ATOM     18  O   UNL d   1     -50.723  27.730  33.353  0.00  0.00    -0.646 OA
BRANCH  17  19
ATOM     19  O   UNL d   1     -51.805  26.802  33.365  0.00  0.00    -0.773 OA
ATOM     20  H   UNL d   1     -52.350  27.404  33.213  0.00  0.00     0.167 HD
ENDBRANCH  17  19
ENDBRANCH   1  17
TORSDOF 7
ENDMDL
MODEL 2
REMARK VINA RESULT:      15.3      1.062      1.554
REMARK  7 active torsions:
REMARK  status: ('A' for Active; 'I' for Inactive)
REMARK    1  A    between atoms: C_2  and  C_1 
REMARK    2  A    between atoms: O_12  and  C_1 
REMARK       I    between atoms: C_3  and  N_4 
REMARK    3  A    between atoms: C_11  and  C_3 
REMARK    4  A    between atoms: N_4  and  C_7 
REMARK    5  A    between atoms: C_5  and  C_13 
REMARK    6  A    between atoms: O_14  and  C_5 
REMARK    7  A    between atoms: C_13  and  C_11 
ROOT
ATOM      1  C   UNL d   1     -50.759  26.629  33.891  0.00  0.00     0.063 A 
ATOM      2  C   UNL d   1     -50.654  25.826  33.736  0.00  0.00     0.023 A 
ATOM      3  C   UNL d   1     -51.278  25.355  33.470  0.00  0.00     0.059 A 
ATOM      4  C   UNL d   1     -51.512  26.979  33.776  0.00  0.00     0.006 A 
ATOM      5  C   UNL d   1     -52.140  26.505  33.509  0.00  0.00     0.002 A 
ATOM      6  C   UNL d   1     -52.012  25.698  33.359  0.00  0.00     0.017 A 
ENDROOT
BRANCH   3   7
ATOM      7  N   UNL d   1     -51.160  24.533  33.315  0.00  0.00    -0.321 N 
ATOM      8  C   UNL d   1     -51.770  24.001  33.469  0.00  0.00     0.258 C 
ATOM      9  O   UNL d   1     -51.654  23.191  33.316  0.00  0.00    -0.267 OA
ATOM     10  H   UNL d   1     -50.435  24.277  33.012  0.00  0.00     0.169 HD
BRANCH   8  11
ATOM     11  C   UNL d   1     -52.499  24.245  33.772  0.00  0.00     0.067 C 
BRANCH  11  12
ATOM     12  C   UNL d   1     -52.842  23.884  34.415  0.00  0.00     0.072 C 
BRANCH  12  13
ATOM     13  C   UNL d   1     -53.581  23.541  34.347  0.00  0.00     0.178 C 
ATOM     14  O   UNL d   1     -54.016  23.393  35.032  0.00  0.00    -0.646 OA
BRANCH  13  15
ATOM     15  O   UNL d   1     -53.886  23.348  33.615  0.00  0.00    -0.773 OA
ATOM     16  H   UNL d   1     -54.523  23.746  33.321  0.00  0.00     0.167 HD
ENDBRANCH  13  15
ENDBRANCH  12  13
ENDBRANCH  11  12
ENDBRANCH   8  11
ENDBRANCH   3   7
BRANCH   1  17
ATOM     17  C   UNL d   1     -50.125  27.086  34.156  0.00  0.00     0.178 C 
ATOM     18  O   UNL d   1     -50.206  27.516  34.861  0.00  0.00    -0.646 OA
BRANCH  17  19
ATOM     19  O   UNL d   1     -49.433  27.113  33.731  0.00  0.00    -0.773 OA
ATOM     20  H   UNL d   1     -48.962  26.441  33.643  0.00  0.00     0.167 HD
ENDBRANCH  17  19
ENDBRANCH   1  17
TORSDOF 7
ENDMDL
MODEL 3
REMARK VINA RESULT:      15.7      1.186      3.557
REMARK  7 active torsions:
REMARK  status: ('A' for Active; 'I' for Inactive)
REMARK    1  A    between atoms: C_2  and  C_1 
REMARK    2  A    between atoms: O_12  and  C_1 
REMARK       I    between atoms: C_3  and  N_4 
REMARK    3  A    between atoms: C_11  and  C_3 
REMARK    4  A    between atoms: N_4  and  C_7 
REMARK    5  A    between atoms: C_5  and  C_13 
REMARK    6  A    between atoms: O_14  and  C_5 
REMARK    7  A    between atoms: C_13  and  C_11 
ROOT
ATOM      1  C   UNL d   1     -52.628  24.415  33.676  0.00  0.00     0.063 A 
ATOM      2  C   UNL d   1     -51.820  24.282  33.581  0.00  0.00     0.023 A 
ATOM      3  C   UNL d   1     -51.301  24.898  33.403  0.00  0.00     0.059 A 
ATOM      4  C   UNL d   1     -52.933  25.192  33.592  0.00  0.00     0.006 A 
ATOM      5  C   UNL d   1     -52.410  25.812  33.414  0.00  0.00     0.002 A 
ATOM      6  C   UNL d   1     -51.600  25.655  33.322  0.00  0.00     0.017 A 
ENDROOT
BRANCH   3   7
ATOM      7  N   UNL d   1     -50.475  24.750  33.307  0.00  0.00    -0.321 N 
ATOM      8  C   UNL d   1     -49.938  25.364  33.423  0.00  0.00     0.258 C 
ATOM      9  O   UNL d   1     -49.124  25.219  33.328  0.00  0.00    -0.267 OA
ATOM     10  H   UNL d   1     -50.220  23.991  33.100  0.00  0.00     0.169 HD
BRANCH   8  11
ATOM     11  C   UNL d   1     -50.181  26.126  33.631  0.00  0.00     0.067 C 
BRANCH  11  12
ATOM     12  C   UNL d   1     -49.704  26.776  33.523  0.00  0.00     0.072 C 
BRANCH  12  13
ATOM     13  C   UNL d   1     -49.451  27.209  34.169  0.00  0.00     0.178 C 
ATOM     14  O   UNL d   1     -48.724  27.598  34.128  0.00  0.00    -0.646 OA
BRANCH  13  15
ATOM     15  O   UNL d   1     -49.907  27.259  34.844  0.00  0.00    -0.773 OA
ATOM     16  H   UNL d   1     -49.581  27.508  35.538  0.00  0.00     0.167 HD
ENDBRANCH  13  15
ENDBRANCH  12  13
ENDBRANCH  11  12
ENDBRANCH   8  11
ENDBRANCH   3   7
BRANCH   1  17
ATOM     17  C   UNL d   1     -53.134  23.788  33.853  0.00  0.00     0.178 C 
ATOM     18  O   UNL d   1     -53.765  23.622  33.341  0.00  0.00    -0.646 OA
BRANCH  17  19
ATOM     19  O   UNL d   1     -53.015  23.341  34.521  0.00  0.00    -0.773 OA
ATOM     20  H   UNL d   1     -53.007  23.689  35.270  0.00  0.00     0.167 HD
ENDBRANCH  17  19
ENDBRANCH   1  17
TORSDOF 7
ENDMDL
