MODEL 1
REMARK VINA RESULT:      64.2      0.000      0.000
REMARK  6 active torsions:
REMARK  status: ('A' for Active; 'I' for Inactive)
REMARK    1  A    between atoms: N_5  and  S_1 
REMARK    2  A    between atoms: C_6  and  S_1 
REMARK    3  A    between atoms: C_2  and  C_14 
REMARK    4  A    between atoms: C_8  and  N_5 
REMARK    5  A    between atoms: C_7  and  C_8 
REMARK       I    between atoms: N_11  and  C_7 
REMARK    6  A    between atoms: C_20  and  N_11 
ROOT
ATOM      1  C   UNL d   1      13.568  13.861  -3.837  0.00  0.00     0.298 C 
ATOM      2  N   UNL d   1      13.532  14.039  -4.636  0.00  0.00    -0.207 NA
ATOM      3  O   UNL d   1      13.664  14.464  -3.282  0.00  0.00    -0.264 OA
ENDROOT
BRANCH   1   4
ATOM      4  C   UNL d   1      13.507  13.079  -3.596  0.00  0.00     0.151 C 
ATOM      5  C   UNL d   1      12.786  12.676  -3.673  0.00  0.00     0.027 C 
BRANCH   4   6
ATOM      6  N   UNL d   1      14.150  12.687  -3.280  0.00  0.00    -0.153 NA
BRANCH   6   7
ATOM      7  S   UNL d   1      14.161  12.463  -2.486  0.00  0.00     0.285 S 
ATOM      8  O   UNL d   1      14.733  13.038  -2.331  0.00  0.00    -0.198 OA
ATOM      9  O   UNL d   1      13.589  11.888  -2.639  0.00  0.00    -0.198 OA
BRANCH   7  10
ATOM     10  C   UNL d   1      14.172  12.241  -1.695  0.00  0.00     0.105 A 
ATOM     11  C   UNL d   1      14.891  12.137  -1.316  0.00  0.00     0.012 A 
ATOM     12  C   UNL d   1      14.907  11.912  -0.514  0.00  0.00     0.001 A 
ATOM     13  C   UNL d   1      15.605  12.258  -1.735  0.00  0.00     0.001 C 
ATOM     14  C   UNL d   1      14.206  11.794  -0.107  0.00  0.00     0.000 A 
ATOM     15  C   UNL d   1      13.482  11.899  -0.490  0.00  0.00     0.001 A 
ATOM     16  C   UNL d   1      13.471  12.123  -1.288  0.00  0.00     0.013 A 
ATOM     17  C   UNL d   1      12.769  11.779  -0.076  0.00  0.00     0.000 C 
ENDBRANCH   7  10
ENDBRANCH   6   7
ENDBRANCH   4   6
ENDBRANCH   1   4
BRANCH   2  18
ATOM     18  C   UNL d   1      13.592  14.825  -4.883  0.00  0.00     0.085 A 
ATOM     19  C   UNL d   1      13.001  15.358  -4.677  0.00  0.00     0.019 A 
ATOM     20  C   UNL d   1      13.048  16.154  -4.919  0.00  0.00     0.004 A 
ATOM     21  C   UNL d   1      13.689  16.410  -5.366  0.00  0.00     0.024 A 
ATOM     22  C   UNL d   1      14.283  15.876  -5.574  0.00  0.00     0.004 A 
ATOM     23  C   UNL d   1      14.241  15.086  -5.337  0.00  0.00     0.019 A 
BRANCH  21  24
ATOM     24  C   UNL d   1      13.724  17.205  -5.601  0.00  0.00     0.111 A 
ATOM     25  N   UNL d   1      14.431  17.613  -5.689  0.00  0.00    -0.239 NA
ATOM     26  C   UNL d   1      14.259  18.386  -5.927  0.00  0.00     0.088 A 
ATOM     27  C   UNL d   1      14.739  19.033  -6.096  0.00  0.00     0.020 A 
ATOM     28  C   UNL d   1      13.439  18.453  -5.986  0.00  0.00     0.049 A 
ATOM     29  C   UNL d   1      14.399  19.747  -6.325  0.00  0.00     0.002 A 
ATOM     30  C   UNL d   1      13.579  19.814  -6.384  0.00  0.00     0.001 A 
ATOM     31  C   UNL d   1      13.099  19.166  -6.214  0.00  0.00     0.008 A 
ATOM     32  S   UNL d   1      13.109  17.721  -5.784  0.00  0.00    -0.066 SA
ENDBRANCH  21  24
ENDBRANCH   2  18
TORSDOF 6
ENDMDL
