MODEL 1
REMARK VINA RESULT:      -5.6      0.000      0.000
REMARK  7 active torsions:
REMARK  status: ('A' for Active; 'I' for Inactive)
REMARK    1  A    between atoms: C_7  and  C_3 
REMARK    2  A    between atoms: C_8  and  C_7 
REMARK       I    between atoms: N_12  and  C_8 
REMARK    3  A    between atoms: C_15  and  N_12 
REMARK    4  A    between atoms: C_13  and  C_15 
REMARK    5  A    between atoms: C_16  and  C_13 
REMARK    6  A    between atoms: O_14  and  C_16 
REMARK    7  A    between atoms: C_17  and  O_14 
ROOT
ATOM      1  C   UNL d   1     -48.729  13.995  23.182  0.00  0.00     0.082 C 
ENDROOT
BRANCH   1   2
ATOM      2  C   UNL d   1     -49.387  13.979  22.678  0.00  0.00     0.096 A 
ATOM      3  C   UNL d   1     -49.897  14.629  22.644  0.00  0.00     0.082 A 
ATOM      4  C   UNL d   1     -50.560  14.624  22.142  0.00  0.00     0.285 A 
ATOM      5  N   UNL d   1     -50.695  13.952  21.678  0.00  0.00    -0.152 NA
ATOM      6  O   UNL d   1     -51.064  15.267  22.108  0.00  0.00    -0.265 OA
ATOM      7  C   UNL d   1     -50.185  13.301  21.712  0.00  0.00     0.371 A 
ATOM      8  N   UNL d   1     -49.535  13.318  22.211  0.00  0.00    -0.191 NA
ATOM      9  O   UNL d   1     -50.332  12.635  21.243  0.00  0.00    -0.242 OA
ENDBRANCH   1   2
BRANCH   1  10
ATOM     10  C   UNL d   1     -47.988  14.206  22.885  0.00  0.00     0.281 C 
ATOM     11  O   UNL d   1     -47.880  14.943  22.527  0.00  0.00    -0.265 OA
ATOM     12  N   UNL d   1     -47.356  13.679  22.947  0.00  0.00    -0.206 NA
BRANCH  12  13
ATOM     13  C   UNL d   1     -46.616  13.890  22.651  0.00  0.00     0.104 C 
BRANCH  13  14
ATOM     14  C   UNL d   1     -46.000  13.340  22.657  0.00  0.00     0.048 C 
BRANCH  14  15
ATOM     15  C   UNL d   1     -45.341  13.457  22.173  0.00  0.00     0.124 C 
BRANCH  15  16
ATOM     16  O   UNL d   1     -44.734  12.892  22.171  0.00  0.00    -0.303 OA
BRANCH  16  17
ATOM     17  C   UNL d   1     -44.170  12.908  21.568  0.00  0.00     0.123 C 
ATOM     18  C   UNL d   1     -43.440  12.540  21.680  0.00  0.00     0.029 C 
ENDBRANCH  16  17
ENDBRANCH  15  16
ENDBRANCH  14  15
ENDBRANCH  13  14
ENDBRANCH  12  13
ENDBRANCH   1  10
TORSDOF 7
ENDMDL
MODEL 2
REMARK VINA RESULT:      -5.3      1.639      1.974
REMARK  7 active torsions:
REMARK  status: ('A' for Active; 'I' for Inactive)
REMARK    1  A    between atoms: C_7  and  C_3 
REMARK    2  A    between atoms: C_8  and  C_7 
REMARK       I    between atoms: N_12  and  C_8 
REMARK    3  A    between atoms: C_15  and  N_12 
REMARK    4  A    between atoms: C_13  and  C_15 
REMARK    5  A    between atoms: C_16  and  C_13 
REMARK    6  A    between atoms: O_14  and  C_16 
REMARK    7  A    between atoms: C_17  and  O_14 
ROOT
ATOM      1  C   UNL d   1     -48.234  13.565  22.218  0.00  0.00     0.082 C 
ENDROOT
BRANCH   1   2
ATOM      2  C   UNL d   1     -48.990  13.772  22.488  0.00  0.00     0.096 A 
ATOM      3  C   UNL d   1     -49.490  13.192  22.800  0.00  0.00     0.082 A 
ATOM      4  C   UNL d   1     -50.251  13.387  23.074  0.00  0.00     0.285 A 
ATOM      5  N   UNL d   1     -50.493  14.178  23.025  0.00  0.00    -0.152 NA
ATOM      6  O   UNL d   1     -50.745  12.814  23.382  0.00  0.00    -0.265 OA
ATOM      7  C   UNL d   1     -49.993  14.758  22.713  0.00  0.00     0.371 A 
ATOM      8  N   UNL d   1     -49.245  14.553  22.446  0.00  0.00    -0.191 NA
ATOM      9  O   UNL d   1     -50.248  15.545  22.670  0.00  0.00    -0.242 OA
ENDBRANCH   1   2
BRANCH   1  10
ATOM     10  C   UNL d   1     -47.622  13.445  22.759  0.00  0.00     0.281 C 
ATOM     11  O   UNL d   1     -47.393  14.056  23.268  0.00  0.00    -0.265 OA
ATOM     12  N   UNL d   1     -47.240  12.714  22.791  0.00  0.00    -0.206 NA
BRANCH  12  13
ATOM     13  C   UNL d   1     -46.629  12.594  23.332  0.00  0.00     0.104 C 
BRANCH  13  14
ATOM     14  C   UNL d   1     -45.951  12.185  23.100  0.00  0.00     0.048 C 
BRANCH  14  15
ATOM     15  C   UNL d   1     -45.777  11.453  23.440  0.00  0.00     0.124 C 
BRANCH  15  16
ATOM     16  O   UNL d   1     -45.009  11.147  23.375  0.00  0.00    -0.303 OA
BRANCH  16  17
ATOM     17  C   UNL d   1     -44.848  10.395  23.673  0.00  0.00     0.123 C 
ATOM     18  C   UNL d   1     -44.072  10.112  23.674  0.00  0.00     0.029 C 
ENDBRANCH  16  17
ENDBRANCH  15  16
ENDBRANCH  14  15
ENDBRANCH  13  14
ENDBRANCH  12  13
ENDBRANCH   1  10
TORSDOF 7
ENDMDL
MODEL 3
REMARK VINA RESULT:      -5.1      1.839      4.934
REMARK  7 active torsions:
REMARK  status: ('A' for Active; 'I' for Inactive)
REMARK    1  A    between atoms: C_7  and  C_3 
REMARK    2  A    between atoms: C_8  and  C_7 
REMARK       I    between atoms: N_12  and  C_8 
REMARK    3  A    between atoms: C_15  and  N_12 
REMARK    4  A    between atoms: C_13  and  C_15 
REMARK    5  A    between atoms: C_16  and  C_13 
REMARK    6  A    between atoms: O_14  and  C_16 
REMARK    7  A    between atoms: C_17  and  O_14 
ROOT
ATOM      1  C   UNL d   1     -47.155  12.373  23.698  0.00  0.00     0.082 C 
ENDROOT
BRANCH   1   2
ATOM      2  C   UNL d   1     -46.403  12.313  23.354  0.00  0.00     0.096 A 
ATOM      3  C   UNL d   1     -46.142  12.894  22.827  0.00  0.00     0.082 A 
ATOM      4  C   UNL d   1     -45.390  12.844  22.476  0.00  0.00     0.285 A 
ATOM      5  N   UNL d   1     -44.910  12.198  22.669  0.00  0.00    -0.152 NA
ATOM      6  O   UNL d   1     -45.132  13.419  21.954  0.00  0.00    -0.265 OA
ATOM      7  C   UNL d   1     -45.170  11.617  23.197  0.00  0.00     0.371 A 
ATOM      8  N   UNL d   1     -45.914  11.676  23.536  0.00  0.00    -0.191 NA
ATOM      9  O   UNL d   1     -44.679  10.975  23.382  0.00  0.00    -0.242 OA
ENDBRANCH   1   2
BRANCH   1  10
ATOM     10  C   UNL d   1     -47.782  11.931  23.394  0.00  0.00     0.281 C 
ATOM     11  O   UNL d   1     -47.782  11.107  23.464  0.00  0.00    -0.265 OA
ATOM     12  N   UNL d   1     -48.411  12.314  23.021  0.00  0.00    -0.206 NA
BRANCH  12  13
ATOM     13  C   UNL d   1     -49.038  11.873  22.717  0.00  0.00     0.104 C 
BRANCH  13  14
ATOM     14  C   UNL d   1     -49.420  12.122  22.029  0.00  0.00     0.048 C 
BRANCH  14  15
ATOM     15  C   UNL d   1     -50.106  12.578  22.083  0.00  0.00     0.124 C 
BRANCH  15  16
ATOM     16  O   UNL d   1     -50.253  13.159  21.510  0.00  0.00    -0.303 OA
BRANCH  16  17
ATOM     17  C   UNL d   1     -50.998  13.514  21.477  0.00  0.00     0.123 C 
ATOM     18  C   UNL d   1     -51.064  14.335  21.528  0.00  0.00     0.029 C 
ENDBRANCH  16  17
ENDBRANCH  15  16
ENDBRANCH  14  15
ENDBRANCH  13  14
ENDBRANCH  12  13
ENDBRANCH   1  10
TORSDOF 7
ENDMDL
MODEL 4
REMARK VINA RESULT:      -4.3      8.757      9.343
REMARK  7 active torsions:
REMARK  status: ('A' for Active; 'I' for Inactive)
REMARK    1  A    between atoms: C_7  and  C_3 
REMARK    2  A    between atoms: C_8  and  C_7 
REMARK       I    between atoms: N_12  and  C_8 
REMARK    3  A    between atoms: C_15  and  N_12 
REMARK    4  A    between atoms: C_13  and  C_15 
REMARK    5  A    between atoms: C_16  and  C_13 
REMARK    6  A    between atoms: O_14  and  C_16 
REMARK    7  A    between atoms: C_17  and  O_14 
ROOT
ATOM      1  C   UNL d   1     -40.231  14.218  18.520  0.00  0.00     0.082 C 
ENDROOT
BRANCH   1   2
ATOM      2  C   UNL d   1     -40.239  14.753  17.887  0.00  0.00     0.096 A 
ATOM      3  C   UNL d   1     -40.957  14.968  17.537  0.00  0.00     0.082 A 
ATOM      4  C   UNL d   1     -40.977  15.504  16.902  0.00  0.00     0.285 A 
ATOM      5  N   UNL d   1     -40.260  15.817  16.630  0.00  0.00    -0.152 NA
ATOM      6  O   UNL d   1     -41.687  15.717  16.555  0.00  0.00    -0.265 OA
ATOM      7  C   UNL d   1     -39.543  15.602  16.980  0.00  0.00     0.371 A 
ATOM      8  N   UNL d   1     -39.535  15.072  17.606  0.00  0.00    -0.191 NA
ATOM      9  O   UNL d   1     -38.832  15.922  16.698  0.00  0.00    -0.242 OA
ENDBRANCH   1   2
BRANCH   1  10
ATOM     10  C   UNL d   1     -40.141  14.495  19.292  0.00  0.00     0.281 C 
ATOM     11  O   UNL d   1     -40.574  15.150  19.552  0.00  0.00    -0.265 OA
ATOM     12  N   UNL d   1     -39.616  14.116  19.805  0.00  0.00    -0.206 NA
BRANCH  12  13
ATOM     13  C   UNL d   1     -39.526  14.392  20.577  0.00  0.00     0.104 C 
BRANCH  13  14
ATOM     14  C   UNL d   1     -38.946  14.065  21.064  0.00  0.00     0.048 C 
BRANCH  14  15
ATOM     15  C   UNL d   1     -39.122  13.894  21.852  0.00  0.00     0.124 C 
BRANCH  15  16
ATOM     16  O   UNL d   1     -38.509  13.675  22.367  0.00  0.00    -0.303 OA
BRANCH  16  17
ATOM     17  C   UNL d   1     -38.695  13.342  23.098  0.00  0.00     0.123 C 
ATOM     18  C   UNL d   1     -38.128  13.326  23.698  0.00  0.00     0.029 C 
ENDBRANCH  16  17
ENDBRANCH  15  16
ENDBRANCH  14  15
ENDBRANCH  13  14
ENDBRANCH  12  13
ENDBRANCH   1  10
TORSDOF 7
ENDMDL
MODEL 5
REMARK VINA RESULT:      -3.7      8.275      9.496
REMARK  7 active torsions:
REMARK  status: ('A' for Active; 'I' for Inactive)
REMARK    1  A    between atoms: C_7  and  C_3 
REMARK    2  A    between atoms: C_8  and  C_7 
REMARK       I    between atoms: N_12  and  C_8 
REMARK    3  A    between atoms: C_15  and  N_12 
REMARK    4  A    between atoms: C_13  and  C_15 
REMARK    5  A    between atoms: C_16  and  C_13 
REMARK    6  A    between atoms: O_14  and  C_16 
REMARK    7  A    between atoms: C_17  and  O_14 
ROOT
ATOM      1  C   UNL d   1     -40.589  14.712  20.740  0.00  0.00     0.082 C 
ENDROOT
BRANCH   1   2
ATOM      2  C   UNL d   1     -39.997  14.660  21.318  0.00  0.00     0.096 A 
ATOM      3  C   UNL d   1     -39.588  13.950  21.427  0.00  0.00     0.082 A 
ATOM      4  C   UNL d   1     -38.993  13.886  22.004  0.00  0.00     0.285 A 
ATOM      5  N   UNL d   1     -38.821  14.553  22.466  0.00  0.00    -0.152 NA
ATOM      6  O   UNL d   1     -38.588  13.184  22.113  0.00  0.00    -0.265 OA
ATOM      7  C   UNL d   1     -39.231  15.263  22.356  0.00  0.00     0.371 A 
ATOM      8  N   UNL d   1     -39.816  15.313  21.784  0.00  0.00    -0.191 NA
ATOM      9  O   UNL d   1     -39.050  15.922  22.824  0.00  0.00    -0.242 OA
ENDBRANCH   1   2
BRANCH   1  10
ATOM     10  C   UNL d   1     -40.417  15.044  20.004  0.00  0.00     0.281 C 
ATOM     11  O   UNL d   1     -40.303  15.860  19.933  0.00  0.00    -0.265 OA
ATOM     12  N   UNL d   1     -40.360  14.559  19.338  0.00  0.00    -0.206 NA
BRANCH  12  13
ATOM     13  C   UNL d   1     -40.189  14.891  18.602  0.00  0.00     0.104 C 
BRANCH  13  14
ATOM     14  C   UNL d   1     -40.087  14.402  17.945  0.00  0.00     0.048 C 
BRANCH  14  15
ATOM     15  C   UNL d   1     -39.658  14.673  17.295  0.00  0.00     0.124 C 
BRANCH  15  16
ATOM     16  O   UNL d   1     -39.243  14.128  16.827  0.00  0.00    -0.303 OA
BRANCH  16  17
ATOM     17  C   UNL d   1     -38.793  14.402  16.191  0.00  0.00     0.123 C 
ATOM     18  C   UNL d   1     -38.333  13.872  15.757  0.00  0.00     0.029 C 
ENDBRANCH  16  17
ENDBRANCH  15  16
ENDBRANCH  14  15
ENDBRANCH  13  14
ENDBRANCH  12  13
ENDBRANCH   1  10
TORSDOF 7
ENDMDL
MODEL 6
REMARK VINA RESULT:      -3.6      7.711      9.766
REMARK  7 active torsions:
REMARK  status: ('A' for Active; 'I' for Inactive)
REMARK    1  A    between atoms: C_7  and  C_3 
REMARK    2  A    between atoms: C_8  and  C_7 
REMARK       I    between atoms: N_12  and  C_8 
REMARK    3  A    between atoms: C_15  and  N_12 
REMARK    4  A    between atoms: C_13  and  C_15 
REMARK    5  A    between atoms: C_16  and  C_13 
REMARK    6  A    between atoms: O_14  and  C_16 
REMARK    7  A    between atoms: C_17  and  O_14 
ROOT
ATOM      1  C   UNL d   1     -40.357  14.258  18.865  0.00  0.00     0.082 C 
ENDROOT
BRANCH   1   2
ATOM      2  C   UNL d   1     -40.320  14.657  19.591  0.00  0.00     0.096 A 
ATOM      3  C   UNL d   1     -39.602  14.708  19.998  0.00  0.00     0.082 A 
ATOM      4  C   UNL d   1     -39.554  15.105  20.727  0.00  0.00     0.285 A 
ATOM      5  N   UNL d   1     -40.243  15.448  21.033  0.00  0.00    -0.152 NA
ATOM      6  O   UNL d   1     -38.844  15.156  21.130  0.00  0.00    -0.265 OA
ATOM      7  C   UNL d   1     -40.961  15.397  20.625  0.00  0.00     0.371 A 
ATOM      8  N   UNL d   1     -40.996  15.003  19.908  0.00  0.00    -0.191 NA
ATOM      9  O   UNL d   1     -41.643  15.744  20.943  0.00  0.00    -0.242 OA
ENDBRANCH   1   2
BRANCH   1  10
ATOM     10  C   UNL d   1     -40.124  14.642  18.172  0.00  0.00     0.281 C 
ATOM     11  O   UNL d   1     -40.545  15.300  17.901  0.00  0.00    -0.265 OA
ATOM     12  N   UNL d   1     -39.470  14.367  17.751  0.00  0.00    -0.206 NA
BRANCH  12  13
ATOM     13  C   UNL d   1     -39.237  14.750  17.058  0.00  0.00     0.104 C 
BRANCH  13  14
ATOM     14  C   UNL d   1     -38.575  14.484  16.645  0.00  0.00     0.048 C 
BRANCH  14  15
ATOM     15  C   UNL d   1     -38.592  14.450  15.820  0.00  0.00     0.124 C 
BRANCH  15  16
ATOM     16  O   UNL d   1     -38.146  13.871  15.428  0.00  0.00    -0.303 OA
BRANCH  16  17
ATOM     17  C   UNL d   1     -37.994  13.955  14.621  0.00  0.00     0.123 C 
ATOM     18  C   UNL d   1     -37.940  13.286  14.142  0.00  0.00     0.029 C 
ENDBRANCH  16  17
ENDBRANCH  15  16
ENDBRANCH  14  15
ENDBRANCH  13  14
ENDBRANCH  12  13
ENDBRANCH   1  10
TORSDOF 7
ENDMDL
MODEL 7
REMARK VINA RESULT:      -3.5      5.913      8.834
REMARK  7 active torsions:
REMARK  status: ('A' for Active; 'I' for Inactive)
REMARK    1  A    between atoms: C_7  and  C_3 
REMARK    2  A    between atoms: C_8  and  C_7 
REMARK       I    between atoms: N_12  and  C_8 
REMARK    3  A    between atoms: C_15  and  N_12 
REMARK    4  A    between atoms: C_13  and  C_15 
REMARK    5  A    between atoms: C_16  and  C_13 
REMARK    6  A    between atoms: O_14  and  C_16 
REMARK    7  A    between atoms: C_17  and  O_14 
ROOT
ATOM      1  C   UNL d   1     -40.166  15.688  19.078  0.00  0.00     0.082 C 
ENDROOT
BRANCH   1   2
ATOM      2  C   UNL d   1     -40.158  15.593  18.254  0.00  0.00     0.096 A 
ATOM      3  C   UNL d   1     -39.442  15.625  17.842  0.00  0.00     0.082 A 
ATOM      4  C   UNL d   1     -39.421  15.532  17.016  0.00  0.00     0.285 A 
ATOM      5  N   UNL d   1     -40.136  15.406  16.619  0.00  0.00    -0.152 NA
ATOM      6  O   UNL d   1     -38.712  15.564  16.609  0.00  0.00    -0.265 OA
ATOM      7  C   UNL d   1     -40.852  15.374  17.031  0.00  0.00     0.371 A 
ATOM      8  N   UNL d   1     -40.860  15.468  17.845  0.00  0.00    -0.191 NA
ATOM      9  O   UNL d   1     -41.561  15.248  16.620  0.00  0.00    -0.242 OA
ENDBRANCH   1   2
BRANCH   1  10
ATOM     10  C   UNL d   1     -40.212  15.025  19.568  0.00  0.00     0.281 C 
ATOM     11  O   UNL d   1     -39.587  14.484  19.594  0.00  0.00    -0.265 OA
ATOM     12  N   UNL d   1     -40.884  14.904  20.031  0.00  0.00    -0.206 NA
BRANCH  12  13
ATOM     13  C   UNL d   1     -40.930  14.241  20.521  0.00  0.00     0.104 C 
BRANCH  13  14
ATOM     14  C   UNL d   1     -41.582  14.143  21.018  0.00  0.00     0.048 C 
BRANCH  14  15
ATOM     15  C   UNL d   1     -42.026  13.449  20.979  0.00  0.00     0.124 C 
BRANCH  15  16
ATOM     16  O   UNL d   1     -42.646  13.332  21.518  0.00  0.00    -0.303 OA
BRANCH  16  17
ATOM     17  C   UNL d   1     -43.140  12.676  21.431  0.00  0.00     0.123 C 
ATOM     18  C   UNL d   1     -43.938  12.734  21.634  0.00  0.00     0.029 C 
ENDBRANCH  16  17
ENDBRANCH  15  16
ENDBRANCH  14  15
ENDBRANCH  13  14
ENDBRANCH  12  13
ENDBRANCH   1  10
TORSDOF 7
ENDMDL
