MODEL 1
REMARK VINA RESULT:      -7.5      0.000      0.000
REMARK  2 active torsions:
REMARK  status: ('A' for Active; 'I' for Inactive)
REMARK    1  A    between atoms: C_7  and  C_1 
REMARK    2  A    between atoms: C_8  and  C_7 
ROOT
ATOM      1  C   UNL d   1     -47.487  13.087  23.037  0.00  0.00     0.033 A 
ATOM      2  C   UNL d   1     -48.815  13.126  23.084  0.00  0.00     0.100 A 
ATOM      3  C   UNL d   1     -48.159  12.654  23.239  0.00  0.00     0.025 A 
ATOM      4  O   UNL d   1     -48.549  13.849  22.788  0.00  0.00    -0.305 OA
ATOM      5  C   UNL d   1     -47.727  13.820  22.760  0.00  0.00     0.123 A 
ATOM      6  C   UNL d   1     -48.263  11.900  23.541  0.00  0.00     0.002 A 
ATOM      7  C   UNL d   1     -49.584  12.846  23.231  0.00  0.00     0.025 A 
ATOM      8  C   UNL d   1     -49.023  11.611  23.690  0.00  0.00     0.000 A 
ATOM      9  C   UNL d   1     -49.685  12.086  23.535  0.00  0.00     0.002 A 
ATOM     10  C   UNL d   1     -47.600  11.422  23.697  0.00  0.00     0.000 C 
ATOM     11  C   UNL d   1     -50.444  11.796  23.684  0.00  0.00     0.000 C 
ENDROOT
BRANCH   1  12
ATOM     12  C   UNL d   1     -46.710  12.821  23.105  0.00  0.00     0.072 C 
BRANCH  12  13
ATOM     13  C   UNL d   1     -46.082  13.331  22.931  0.00  0.00     0.211 C 
ATOM     14  O   UNL d   1     -45.718  13.302  22.184  0.00  0.00    -0.644 OA
ATOM     15  O   UNL d   1     -45.817  13.869  23.498  0.00  0.00    -0.644 OA
ENDBRANCH  12  13
ENDBRANCH   1  12
TORSDOF 2
ENDMDL
MODEL 2
REMARK VINA RESULT:      -7.3      1.401      2.065
REMARK  2 active torsions:
REMARK  status: ('A' for Active; 'I' for Inactive)
REMARK    1  A    between atoms: C_7  and  C_1 
REMARK    2  A    between atoms: C_8  and  C_7 
ROOT
ATOM      1  C   UNL d   1     -47.665  13.428  22.482  0.00  0.00     0.033 A 
ATOM      2  C   UNL d   1     -48.828  12.977  22.023  0.00  0.00     0.100 A 
ATOM      3  C   UNL d   1     -48.435  13.650  22.285  0.00  0.00     0.025 A 
ATOM      4  O   UNL d   1     -48.304  12.341  22.058  0.00  0.00    -0.305 OA
ATOM      5  C   UNL d   1     -47.585  12.624  22.343  0.00  0.00     0.123 A 
ATOM      6  C   UNL d   1     -48.827  14.368  22.308  0.00  0.00     0.002 A 
ATOM      7  C   UNL d   1     -49.622  13.016  21.781  0.00  0.00     0.025 A 
ATOM      8  C   UNL d   1     -49.617  14.419  22.070  0.00  0.00     0.000 A 
ATOM      9  C   UNL d   1     -50.015  13.741  21.806  0.00  0.00     0.002 A 
ATOM     10  C   UNL d   1     -48.430  15.049  22.573  0.00  0.00     0.000 C 
ATOM     11  C   UNL d   1     -50.805  13.793  21.567  0.00  0.00     0.000 C 
ENDROOT
BRANCH   1  12
ATOM     12  C   UNL d   1     -47.082  13.933  22.770  0.00  0.00     0.072 C 
BRANCH  12  13
ATOM     13  C   UNL d   1     -46.331  13.637  22.953  0.00  0.00     0.211 C 
ATOM     14  O   UNL d   1     -46.188  13.298  23.698  0.00  0.00    -0.644 OA
ATOM     15  O   UNL d   1     -45.724  13.678  22.395  0.00  0.00    -0.644 OA
ENDBRANCH  12  13
ENDBRANCH   1  12
TORSDOF 2
ENDMDL
MODEL 3
REMARK VINA RESULT:      -7.2      1.587      2.648
REMARK  2 active torsions:
REMARK  status: ('A' for Active; 'I' for Inactive)
REMARK    1  A    between atoms: C_7  and  C_1 
REMARK    2  A    between atoms: C_8  and  C_7 
ROOT
ATOM      1  C   UNL d   1     -48.410  13.804  22.933  0.00  0.00     0.033 A 
ATOM      2  C   UNL d   1     -48.202  12.539  23.282  0.00  0.00     0.100 A 
ATOM      3  C   UNL d   1     -47.825  13.249  23.106  0.00  0.00     0.025 A 
ATOM      4  O   UNL d   1     -49.017  12.655  23.218  0.00  0.00    -0.305 OA
ATOM      5  C   UNL d   1     -49.141  13.440  23.002  0.00  0.00     0.123 A 
ATOM      6  C   UNL d   1     -47.009  13.292  23.126  0.00  0.00     0.002 A 
ATOM      7  C   UNL d   1     -47.762  11.863  23.481  0.00  0.00     0.025 A 
ATOM      8  C   UNL d   1     -46.560  12.626  23.323  0.00  0.00     0.000 A 
ATOM      9  C   UNL d   1     -46.938  11.910  23.501  0.00  0.00     0.002 A 
ATOM     10  C   UNL d   1     -46.627  14.010  22.948  0.00  0.00     0.000 C 
ATOM     11  C   UNL d   1     -46.490  11.244  23.698  0.00  0.00     0.000 C 
ENDROOT
BRANCH   1  12
ATOM     12  C   UNL d   1     -48.275  14.591  22.727  0.00  0.00     0.072 C 
BRANCH  12  13
ATOM     13  C   UNL d   1     -48.914  15.098  22.588  0.00  0.00     0.211 C 
ATOM     14  O   UNL d   1     -49.243  15.533  23.215  0.00  0.00    -0.644 OA
ATOM     15  O   UNL d   1     -49.224  15.172  21.827  0.00  0.00    -0.644 OA
ENDBRANCH  12  13
ENDBRANCH   1  12
TORSDOF 2
ENDMDL
MODEL 4
REMARK VINA RESULT:      -7.0      1.360      3.298
REMARK  2 active torsions:
REMARK  status: ('A' for Active; 'I' for Inactive)
REMARK    1  A    between atoms: C_7  and  C_1 
REMARK    2  A    between atoms: C_8  and  C_7 
ROOT
ATOM      1  C   UNL d   1     -48.466  12.357  23.086  0.00  0.00     0.033 A 
ATOM      2  C   UNL d   1     -47.168  12.643  23.119  0.00  0.00     0.100 A 
ATOM      3  C   UNL d   1     -47.915  12.964  22.993  0.00  0.00     0.025 A 
ATOM      4  O   UNL d   1     -47.257  11.840  23.289  0.00  0.00    -0.305 OA
ATOM      5  C   UNL d   1     -48.062  11.667  23.267  0.00  0.00     0.123 A 
ATOM      6  C   UNL d   1     -47.992  13.758  22.813  0.00  0.00     0.002 A 
ATOM      7  C   UNL d   1     -46.488  13.117  23.066  0.00  0.00     0.025 A 
ATOM      8  C   UNL d   1     -47.323  14.240  22.757  0.00  0.00     0.000 A 
ATOM      9  C   UNL d   1     -46.569  13.918  22.884  0.00  0.00     0.002 A 
ATOM     10  C   UNL d   1     -48.747  14.083  22.685  0.00  0.00     0.000 C 
ATOM     11  C   UNL d   1     -45.900  14.400  22.828  0.00  0.00     0.000 C 
ENDROOT
BRANCH   1  12
ATOM     12  C   UNL d   1     -49.282  12.437  23.007  0.00  0.00     0.072 C 
BRANCH  12  13
ATOM     13  C   UNL d   1     -49.764  11.764  22.990  0.00  0.00     0.211 C 
ATOM     14  O   UNL d   1     -50.069  11.453  23.698  0.00  0.00    -0.644 OA
ATOM     15  O   UNL d   1     -49.942  11.402  22.270  0.00  0.00    -0.644 OA
ENDBRANCH  12  13
ENDBRANCH   1  12
TORSDOF 2
ENDMDL
