MODEL 1
REMARK VINA RESULT:      26.5      0.000      0.000
REMARK  3 active torsions:
REMARK  status: ('A' for Active; 'I' for Inactive)
REMARK    1  A    between atoms: N_2  and  C_1 
REMARK    2  A    between atoms: C_5  and  C_1 
REMARK    3  A    between atoms: C_3  and  N_2 
ROOT
ATOM      1  N   UNL d   1     -51.457  25.441  33.895  0.00  0.00    -0.233 NA
ENDROOT
BRANCH   1   2
ATOM      2  C   UNL d   1     -51.542  24.686  33.597  0.00  0.00     0.153 C 
ATOM      3  S   UNL d   1     -50.887  24.269  33.313  0.00  0.00    -0.056 SA
BRANCH   2   4
ATOM      4  C   UNL d   1     -52.286  24.332  33.577  0.00  0.00     0.109 A 
ATOM      5  N   UNL d   1     -52.955  24.762  33.807  0.00  0.00    -0.242 NA
ATOM      6  C   UNL d   1     -53.698  24.408  33.787  0.00  0.00     0.099 A 
ATOM      7  C   UNL d   1     -53.777  23.625  33.537  0.00  0.00     0.021 A 
ATOM      8  C   UNL d   1     -53.114  23.188  33.306  0.00  0.00     0.003 A 
ATOM      9  C   UNL d   1     -52.366  23.542  33.325  0.00  0.00     0.021 A 
ENDBRANCH   2   4
ENDBRANCH   1   2
BRANCH   1  10
ATOM     10  C   UNL d   1     -50.785  25.889  33.697  0.00  0.00     0.082 A 
ATOM     11  C   UNL d   1     -50.866  26.701  33.571  0.00  0.00     0.018 A 
ATOM     12  C   UNL d   1     -50.195  27.148  33.373  0.00  0.00     0.002 A 
ATOM     13  C   UNL d   1     -51.601  27.065  33.638  0.00  0.00     0.002 C 
ATOM     14  C   UNL d   1     -49.460  26.783  33.306  0.00  0.00     0.000 A 
ATOM     15  C   UNL d   1     -49.396  25.967  33.436  0.00  0.00     0.002 A 
ATOM     16  C   UNL d   1     -50.059  25.524  33.631  0.00  0.00     0.019 A 
ATOM     17  C   UNL d   1     -48.659  25.594  33.370  0.00  0.00     0.000 C 
ENDBRANCH   1  10
TORSDOF 3
ENDMDL
