MODEL 1
REMARK VINA RESULT:      -2.0      0.000      0.000
REMARK  5 active torsions:
REMARK  status: ('A' for Active; 'I' for Inactive)
REMARK    1  A    between atoms: C_5  and  N_1 
REMARK    2  A    between atoms: C_7  and  C_5 
REMARK    3  A    between atoms: O_14  and  C_10 
REMARK    4  A    between atoms: C_18  and  O_14 
REMARK    5  A    between atoms: C_19  and  C_18 
ROOT
ATOM      1  N   UNL d   1      33.175  19.236 -23.747  0.00  0.00    -0.251 N 
ATOM      2  C   UNL d   1      33.175  19.915 -24.224  0.00  0.00     0.378 A 
ATOM      3  C   UNL d   1      33.194  19.477 -22.956  0.00  0.00     0.092 A 
ATOM      4  O   UNL d   1      33.194  20.575 -23.724  0.00  0.00    -0.258 OA
ATOM      5  C   UNL d   1      33.205  20.304 -22.941  0.00  0.00     0.121 A 
ATOM      6  O   UNL d   1      33.160  19.933 -25.047  0.00  0.00    -0.237 OA
ATOM      7  C   UNL d   1      33.201  19.045 -22.256  0.00  0.00     0.020 A 
ATOM      8  C   UNL d   1      33.224  20.696 -22.211  0.00  0.00     0.026 A 
ATOM      9  C   UNL d   1      33.220  19.438 -21.535  0.00  0.00     0.002 A 
ATOM     10  C   UNL d   1      33.232  20.264 -21.512  0.00  0.00     0.002 A 
ATOM     11  C   UNL d   1      33.228  19.006 -20.831  0.00  0.00     0.000 C 
ENDROOT
BRANCH   1  12
ATOM     12  C   UNL d   1      33.160  18.445 -23.981  0.00  0.00     0.087 C 
BRANCH  12  13
ATOM     13  C   UNL d   1      32.449  18.094 -24.223  0.00  0.00     0.041 A 
ATOM     14  C   UNL d   1      32.333  17.296 -24.121  0.00  0.00     0.102 A 
ATOM     15  C   UNL d   1      31.629  16.951 -24.360  0.00  0.00     0.025 A 
ATOM     16  C   UNL d   1      31.040  17.410 -24.704  0.00  0.00     0.002 A 
ATOM     17  C   UNL d   1      31.160  18.221 -24.807  0.00  0.00     0.000 A 
ATOM     18  C   UNL d   1      31.871  18.564 -24.564  0.00  0.00     0.004 A 
BRANCH  14  19
ATOM     19  O   UNL d   1      32.923  16.828 -23.775  0.00  0.00    -0.305 OA
BRANCH  19  20
ATOM     20  C   UNL d   1      32.731  16.097 -23.443  0.00  0.00     0.123 C 
BRANCH  20  21
ATOM     21  C   UNL d   1      33.240  15.741 -22.910  0.00  0.00     0.027 C 
ATOM     22  C   UNL d   1      32.952  15.453 -22.190  0.00  0.00     0.002 C 
ENDBRANCH  20  21
ENDBRANCH  19  20
ENDBRANCH  14  19
ENDBRANCH  12  13
ENDBRANCH   1  12
TORSDOF 5
ENDMDL
MODEL 2
REMARK VINA RESULT:      -0.5      2.100      3.887
REMARK  5 active torsions:
REMARK  status: ('A' for Active; 'I' for Inactive)
REMARK    1  A    between atoms: C_5  and  N_1 
REMARK    2  A    between atoms: C_7  and  C_5 
REMARK    3  A    between atoms: O_14  and  C_10 
REMARK    4  A    between atoms: C_18  and  O_14 
REMARK    5  A    between atoms: C_19  and  C_18 
ROOT
ATOM      1  N   UNL d   1      32.386  21.952 -22.116  0.00  0.00    -0.251 N 
ATOM      2  C   UNL d   1      32.315  22.492 -21.490  0.00  0.00     0.378 A 
ATOM      3  C   UNL d   1      32.651  22.363 -22.783  0.00  0.00     0.092 A 
ATOM      4  O   UNL d   1      32.536  23.238 -21.775  0.00  0.00    -0.258 OA
ATOM      5  C   UNL d   1      32.743  23.158 -22.573  0.00  0.00     0.121 A 
ATOM      6  O   UNL d   1      32.069  22.322 -20.724  0.00  0.00    -0.237 OA
ATOM      7  C   UNL d   1      32.815  22.111 -23.548  0.00  0.00     0.020 A 
ATOM      8  C   UNL d   1      33.005  23.700 -23.142  0.00  0.00     0.026 A 
ATOM      9  C   UNL d   1      33.075  22.651 -24.110  0.00  0.00     0.002 A 
ATOM     10  C   UNL d   1      33.170  23.447 -23.907  0.00  0.00     0.002 A 
ATOM     11  C   UNL d   1      33.241  22.399 -24.878  0.00  0.00     0.000 C 
ENDROOT
BRANCH   1  12
ATOM     12  C   UNL d   1      32.231  21.141 -22.114  0.00  0.00     0.087 C 
BRANCH  12  13
ATOM     13  C   UNL d   1      32.571  20.652 -21.537  0.00  0.00     0.041 A 
ATOM     14  C   UNL d   1      32.888  19.934 -21.747  0.00  0.00     0.102 A 
ATOM     15  C   UNL d   1      33.223  19.451 -21.176  0.00  0.00     0.025 A 
ATOM     16  C   UNL d   1      33.240  19.693 -20.390  0.00  0.00     0.002 A 
ATOM     17  C   UNL d   1      32.918  20.423 -20.178  0.00  0.00     0.000 A 
ATOM     18  C   UNL d   1      32.581  20.905 -20.758  0.00  0.00     0.004 A 
BRANCH  14  19
ATOM     19  O   UNL d   1      32.873  19.685 -22.537  0.00  0.00    -0.305 OA
BRANCH  19  20
ATOM     20  C   UNL d   1      32.956  18.885 -22.722  0.00  0.00     0.123 C 
BRANCH  20  21
ATOM     21  C   UNL d   1      32.713  18.604 -23.452  0.00  0.00     0.027 C 
ATOM     22  C   UNL d   1      33.031  17.903 -23.754  0.00  0.00     0.002 C 
ENDBRANCH  20  21
ENDBRANCH  19  20
ENDBRANCH  14  19
ENDBRANCH  12  13
ENDBRANCH   1  12
TORSDOF 5
ENDMDL
MODEL 3
REMARK VINA RESULT:       0.2      2.974      4.475
REMARK  5 active torsions:
REMARK  status: ('A' for Active; 'I' for Inactive)
REMARK    1  A    between atoms: C_5  and  N_1 
REMARK    2  A    between atoms: C_7  and  C_5 
REMARK    3  A    between atoms: O_14  and  C_10 
REMARK    4  A    between atoms: C_18  and  O_14 
REMARK    5  A    between atoms: C_19  and  C_18 
ROOT
ATOM      1  N   UNL d   1      32.123  22.423 -20.555  0.00  0.00    -0.251 N 
ATOM      2  C   UNL d   1      31.676  23.047 -20.868  0.00  0.00     0.378 A 
ATOM      3  C   UNL d   1      32.301  22.603 -19.767  0.00  0.00     0.092 A 
ATOM      4  O   UNL d   1      31.577  23.612 -20.271  0.00  0.00    -0.258 OA
ATOM      5  C   UNL d   1      31.964  23.337 -19.592  0.00  0.00     0.121 A 
ATOM      6  O   UNL d   1      31.379  23.099 -21.635  0.00  0.00    -0.237 OA
ATOM      7  C   UNL d   1      32.725  22.190 -19.197  0.00  0.00     0.020 A 
ATOM      8  C   UNL d   1      32.057  23.655 -18.832  0.00  0.00     0.026 A 
ATOM      9  C   UNL d   1      32.816  22.507 -18.445  0.00  0.00     0.002 A 
ATOM     10  C   UNL d   1      32.481  23.241 -18.262  0.00  0.00     0.002 A 
ATOM     11  C   UNL d   1      33.241  22.094 -17.871  0.00  0.00     0.000 C 
ENDROOT
BRANCH   1  12
ATOM     12  C   UNL d   1      32.369  21.729 -20.929  0.00  0.00     0.087 C 
BRANCH  12  13
ATOM     13  C   UNL d   1      32.663  21.754 -21.704  0.00  0.00     0.041 A 
ATOM     14  C   UNL d   1      32.902  21.069 -22.072  0.00  0.00     0.102 A 
ATOM     15  C   UNL d   1      33.191  21.095 -22.837  0.00  0.00     0.025 A 
ATOM     16  C   UNL d   1      33.241  21.813 -23.236  0.00  0.00     0.002 A 
ATOM     17  C   UNL d   1      32.998  22.507 -22.861  0.00  0.00     0.000 A 
ATOM     18  C   UNL d   1      32.707  22.476 -22.089  0.00  0.00     0.004 A 
BRANCH  14  19
ATOM     19  O   UNL d   1      32.854  20.344 -21.675  0.00  0.00    -0.305 OA
BRANCH  19  20
ATOM     20  C   UNL d   1      32.760  19.643 -22.102  0.00  0.00     0.123 C 
BRANCH  20  21
ATOM     21  C   UNL d   1      33.185  18.974 -21.894  0.00  0.00     0.027 C 
ATOM     22  C   UNL d   1      33.172  18.306 -22.380  0.00  0.00     0.002 C 
ENDBRANCH  20  21
ENDBRANCH  19  20
ENDBRANCH  14  19
ENDBRANCH  12  13
ENDBRANCH   1  12
TORSDOF 5
ENDMDL
MODEL 4
REMARK VINA RESULT:       0.6      2.014      4.286
REMARK  5 active torsions:
REMARK  status: ('A' for Active; 'I' for Inactive)
REMARK    1  A    between atoms: C_5  and  N_1 
REMARK    2  A    between atoms: C_7  and  C_5 
REMARK    3  A    between atoms: O_14  and  C_10 
REMARK    4  A    between atoms: C_18  and  O_14 
REMARK    5  A    between atoms: C_19  and  C_18 
ROOT
ATOM      1  N   UNL d   1      30.756  16.450 -23.982  0.00  0.00    -0.251 N 
ATOM      2  C   UNL d   1      30.813  15.793 -24.485  0.00  0.00     0.378 A 
ATOM      3  C   UNL d   1      29.966  16.528 -23.748  0.00  0.00     0.092 A 
ATOM      4  O   UNL d   1      30.056  15.466 -24.561  0.00  0.00    -0.258 OA
ATOM      5  C   UNL d   1      29.534  15.921 -24.105  0.00  0.00     0.121 A 
ATOM      6  O   UNL d   1      31.498  15.513 -24.846  0.00  0.00    -0.237 OA
ATOM      7  C   UNL d   1      29.595  17.074 -23.258  0.00  0.00     0.020 A 
ATOM      8  C   UNL d   1      28.719  15.866 -23.965  0.00  0.00     0.026 A 
ATOM      9  C   UNL d   1      28.787  17.017 -23.121  0.00  0.00     0.002 A 
ATOM     10  C   UNL d   1      28.348  16.412 -23.475  0.00  0.00     0.002 A 
ATOM     11  C   UNL d   1      28.413  17.564 -22.630  0.00  0.00     0.000 C 
ENDROOT
BRANCH   1  12
ATOM     12  C   UNL d   1      31.355  16.961 -23.734  0.00  0.00     0.087 C 
BRANCH  12  13
ATOM     13  C   UNL d   1      31.983  16.676 -23.274  0.00  0.00     0.041 A 
ATOM     14  C   UNL d   1      32.553  17.187 -23.000  0.00  0.00     0.102 A 
ATOM     15  C   UNL d   1      33.173  16.905 -22.545  0.00  0.00     0.025 A 
ATOM     16  C   UNL d   1      33.220  16.103 -22.364  0.00  0.00     0.002 A 
ATOM     17  C   UNL d   1      32.640  15.586 -22.643  0.00  0.00     0.000 A 
ATOM     18  C   UNL d   1      32.018  15.876 -23.101  0.00  0.00     0.004 A 
BRANCH  14  19
ATOM     19  O   UNL d   1      32.510  17.995 -23.179  0.00  0.00    -0.305 OA
BRANCH  19  20
ATOM     20  C   UNL d   1      33.090  18.513 -22.901  0.00  0.00     0.123 C 
BRANCH  20  21
ATOM     21  C   UNL d   1      33.193  19.244 -23.255  0.00  0.00     0.027 C 
ATOM     22  C   UNL d   1      32.561  19.775 -23.302  0.00  0.00     0.002 C 
ENDBRANCH  20  21
ENDBRANCH  19  20
ENDBRANCH  14  19
ENDBRANCH  12  13
ENDBRANCH   1  12
TORSDOF 5
ENDMDL
