MODEL 1
REMARK VINA RESULT:      -4.3      0.000      0.000
REMARK  7 active torsions:
REMARK  status: ('A' for Active; 'I' for Inactive)
REMARK    1  A    between atoms: C_6  and  C_1 
REMARK    2  A    between atoms: C_7  and  C_3 
REMARK    3  A    between atoms: O_14  and  C_6 
REMARK    4  A    between atoms: C_8  and  C_7 
REMARK    5  A    between atoms: S_10  and  C_8 
REMARK    6  A    between atoms: C_13  and  S_10 
REMARK    7  A    between atoms: C_22  and  O_14 
ROOT
ATOM      1  C   UNL d   1      60.039  -0.522  29.458  0.00  0.00     0.083 A 
ATOM      2  C   UNL d   1      59.215  -0.531  29.475  0.00  0.00     0.028 A 
ATOM      3  C   UNL d   1      58.981   0.077  29.923  0.00  0.00     0.121 A 
ATOM      4  N   UNL d   1      59.653   0.479  30.196  0.00  0.00    -0.242 NA
ATOM      5  C   UNL d   1      60.272   0.093  29.898  0.00  0.00     0.087 A 
ATOM      6  C   UNL d   1      58.765  -1.085  29.085  0.00  0.00     0.002 C 
ATOM      7  C   UNL d   1      61.101   0.285  30.014  0.00  0.00     0.021 C 
ENDROOT
BRANCH   3   8
ATOM      8  C   UNL d   1      58.165   0.206  30.040  0.00  0.00     0.220 C 
ATOM      9  O   UNL d   1      57.699   0.478  29.439  0.00  0.00    -0.284 OA
BRANCH   8  10
ATOM     10  C   UNL d   1      57.832   0.051  30.785  0.00  0.00     0.079 C 
BRANCH  10  11
ATOM     11  S   UNL d   1      57.119   0.377  30.991  0.00  0.00    -0.083 SA
BRANCH  11  12
ATOM     12  C   UNL d   1      56.751   0.129  31.704  0.00  0.00     0.030 A 
ATOM     13  C   UNL d   1      56.619  -0.678  31.845  0.00  0.00     0.007 A 
ATOM     14  C   UNL d   1      56.266  -0.895  32.532  0.00  0.00     0.012 A 
ATOM     15  C   UNL d   1      56.028  -0.350  33.106  0.00  0.00     0.058 A 
ATOM     16  C   UNL d   1      56.162   0.420  32.953  0.00  0.00     0.012 A 
ATOM     17 CL   UNL d   1      55.659  -0.556  33.826  0.00  0.00    -0.082 Cl
ATOM     18  C   UNL d   1      56.517   0.682  32.270  0.00  0.00     0.007 A 
ENDBRANCH  11  12
ENDBRANCH  10  11
ENDBRANCH   8  10
ENDBRANCH   3   8
BRANCH   1  19
ATOM     19  C   UNL d   1      60.528  -1.071  29.044  0.00  0.00     0.302 C 
ATOM     20  O   UNL d   1      61.060  -0.792  28.458  0.00  0.00    -0.259 OA
BRANCH  19  21
ATOM     21  O   UNL d   1      60.501  -1.891  29.201  0.00  0.00    -0.271 OA
BRANCH  21  22
ATOM     22  C   UNL d   1      61.132  -2.356  28.935  0.00  0.00     0.126 C 
ATOM     23  C   UNL d   1      61.069  -3.196  28.933  0.00  0.00     0.029 C 
ENDBRANCH  21  22
ENDBRANCH  19  21
ENDBRANCH   1  19
TORSDOF 7
ENDMDL
MODEL 2
REMARK VINA RESULT:      -3.6      2.369      5.155
REMARK  7 active torsions:
REMARK  status: ('A' for Active; 'I' for Inactive)
REMARK    1  A    between atoms: C_6  and  C_1 
REMARK    2  A    between atoms: C_7  and  C_3 
REMARK    3  A    between atoms: O_14  and  C_6 
REMARK    4  A    between atoms: C_8  and  C_7 
REMARK    5  A    between atoms: S_10  and  C_8 
REMARK    6  A    between atoms: C_13  and  S_10 
REMARK    7  A    between atoms: C_22  and  O_14 
ROOT
ATOM      1  C   UNL d   1      56.824   0.222  32.804  0.00  0.00     0.083 A 
ATOM      2  C   UNL d   1      56.819   0.149  31.984  0.00  0.00     0.028 A 
ATOM      3  C   UNL d   1      57.516   0.408  31.718  0.00  0.00     0.121 A 
ATOM      4  N   UNL d   1      57.974   0.649  32.366  0.00  0.00    -0.242 NA
ATOM      5  C   UNL d   1      57.528   0.524  33.004  0.00  0.00     0.087 A 
ATOM      6  C   UNL d   1      56.185  -0.143  31.565  0.00  0.00     0.002 C 
ATOM      7  C   UNL d   1      57.745   0.682  33.819  0.00  0.00     0.021 C 
ENDROOT
BRANCH   3   8
ATOM      8  C   UNL d   1      57.668   0.399  30.897  0.00  0.00     0.220 C 
ATOM      9  O   UNL d   1      57.094   0.609  30.368  0.00  0.00    -0.284 OA
BRANCH   8  10
ATOM     10  C   UNL d   1      58.418   0.170  30.625  0.00  0.00     0.079 C 
BRANCH  10  11
ATOM     11  S   UNL d   1      58.615   0.257  29.844  0.00  0.00    -0.083 SA
BRANCH  11  12
ATOM     12  C   UNL d   1      59.220  -0.228  29.522  0.00  0.00     0.030 A 
ATOM     13  C   UNL d   1      60.008  -0.124  29.761  0.00  0.00     0.007 A 
ATOM     14  C   UNL d   1      60.571  -0.598  29.441  0.00  0.00     0.012 A 
ATOM     15  C   UNL d   1      60.401  -1.185  28.885  0.00  0.00     0.058 A 
ATOM     16  C   UNL d   1      59.640  -1.270  28.668  0.00  0.00     0.012 A 
ATOM     17 CL   UNL d   1      60.973  -1.687  28.542  0.00  0.00    -0.082 Cl
ATOM     18  C   UNL d   1      59.039  -0.811  28.967  0.00  0.00     0.007 A 
ENDBRANCH  11  12
ENDBRANCH  10  11
ENDBRANCH   8  10
ENDBRANCH   3   8
BRANCH   1  19
ATOM     19  C   UNL d   1      56.192   0.011  33.322  0.00  0.00     0.302 C 
ATOM     20  O   UNL d   1      56.180  -0.752  33.672  0.00  0.00    -0.259 OA
BRANCH  19  21
ATOM     21  O   UNL d   1      55.573   0.542  33.500  0.00  0.00    -0.271 OA
BRANCH  21  22
ATOM     22  C   UNL d   1      55.066   0.348  34.126  0.00  0.00     0.126 C 
ATOM     23  C   UNL d   1      54.293   0.682  34.165  0.00  0.00     0.029 C 
ENDBRANCH  21  22
ENDBRANCH  19  21
ENDBRANCH   1  19
TORSDOF 7
ENDMDL
MODEL 3
REMARK VINA RESULT:      -2.3      1.131      1.591
REMARK  7 active torsions:
REMARK  status: ('A' for Active; 'I' for Inactive)
REMARK    1  A    between atoms: C_6  and  C_1 
REMARK    2  A    between atoms: C_7  and  C_3 
REMARK    3  A    between atoms: O_14  and  C_6 
REMARK    4  A    between atoms: C_8  and  C_7 
REMARK    5  A    between atoms: S_10  and  C_8 
REMARK    6  A    between atoms: C_13  and  S_10 
REMARK    7  A    between atoms: C_22  and  O_14 
ROOT
ATOM      1  C   UNL d   1      59.072   0.199  30.081  0.00  0.00     0.083 A 
ATOM      2  C   UNL d   1      58.257   0.110  30.154  0.00  0.00     0.028 A 
ATOM      3  C   UNL d   1      58.055   0.363  30.875  0.00  0.00     0.121 A 
ATOM      4  N   UNL d   1      58.739   0.616  31.269  0.00  0.00    -0.242 NA
ATOM      5  C   UNL d   1      59.333   0.503  30.763  0.00  0.00     0.087 A 
ATOM      6  C   UNL d   1      57.784  -0.189  29.564  0.00  0.00     0.002 C 
ATOM      7  C   UNL d   1      60.163   0.676  30.900  0.00  0.00     0.021 C 
ENDROOT
BRANCH   3   8
ATOM      8  C   UNL d   1      57.252   0.338  31.106  0.00  0.00     0.220 C 
ATOM      9  O   UNL d   1      56.667   0.243  30.557  0.00  0.00    -0.284 OA
BRANCH   8  10
ATOM     10  C   UNL d   1      57.059   0.413  31.910  0.00  0.00     0.079 C 
BRANCH  10  11
ATOM     11  S   UNL d   1      56.305   0.261  32.165  0.00  0.00    -0.083 SA
BRANCH  11  12
ATOM     12  C   UNL d   1      56.126   0.356  32.980  0.00  0.00     0.030 A 
ATOM     13  C   UNL d   1      55.337   0.380  33.234  0.00  0.00     0.007 A 
ATOM     14  C   UNL d   1      55.188   0.472  34.016  0.00  0.00     0.012 A 
ATOM     15  C   UNL d   1      55.786   0.542  34.582  0.00  0.00     0.058 A 
ATOM     16  C   UNL d   1      56.537   0.516  34.321  0.00  0.00     0.012 A 
ATOM     17 CL   UNL d   1      55.651   0.638  35.400  0.00  0.00    -0.082 Cl
ATOM     18  C   UNL d   1      56.732   0.425  33.536  0.00  0.00     0.007 A 
ENDBRANCH  11  12
ENDBRANCH  10  11
ENDBRANCH   8  10
ENDBRANCH   3   8
BRANCH   1  19
ATOM     19  C   UNL d   1      59.530  -0.002  29.401  0.00  0.00     0.302 C 
ATOM     20  O   UNL d   1      59.528   0.509  28.735  0.00  0.00    -0.259 OA
BRANCH  19  21
ATOM     21  O   UNL d   1      59.989  -0.698  29.369  0.00  0.00    -0.271 OA
BRANCH  21  22
ATOM     22  C   UNL d   1      60.115  -1.044  28.627  0.00  0.00     0.126 C 
ATOM     23  C   UNL d   1      60.795  -1.523  28.491  0.00  0.00     0.029 C 
ENDBRANCH  21  22
ENDBRANCH  19  21
ENDBRANCH   1  19
TORSDOF 7
ENDMDL
MODEL 4
REMARK VINA RESULT:      -1.8      2.463      5.245
REMARK  7 active torsions:
REMARK  status: ('A' for Active; 'I' for Inactive)
REMARK    1  A    between atoms: C_6  and  C_1 
REMARK    2  A    between atoms: C_7  and  C_3 
REMARK    3  A    between atoms: O_14  and  C_6 
REMARK    4  A    between atoms: C_8  and  C_7 
REMARK    5  A    between atoms: S_10  and  C_8 
REMARK    6  A    between atoms: C_13  and  S_10 
REMARK    7  A    between atoms: C_22  and  O_14 
ROOT
ATOM      1  C   UNL d   1      56.389  -0.783  32.690  0.00  0.00     0.083 A 
ATOM      2  C   UNL d   1      56.866  -0.251  32.282  0.00  0.00     0.028 A 
ATOM      3  C   UNL d   1      56.935  -0.514  31.540  0.00  0.00     0.121 A 
ATOM      4  N   UNL d   1      56.503  -1.218  31.468  0.00  0.00    -0.242 NA
ATOM      5  C   UNL d   1      56.186  -1.351  32.178  0.00  0.00     0.087 A 
ATOM      6  C   UNL d   1      57.188   0.415  32.622  0.00  0.00     0.002 C 
ATOM      7  C   UNL d   1      55.686  -2.012  32.400  0.00  0.00     0.021 C 
ENDROOT
BRANCH   3   8
ATOM      8  C   UNL d   1      57.394  -0.080  30.994  0.00  0.00     0.220 C 
ATOM      9  O   UNL d   1      57.186   0.673  30.786  0.00  0.00    -0.284 OA
BRANCH   8  10
ATOM     10  C   UNL d   1      58.070  -0.430  30.664  0.00  0.00     0.079 C 
BRANCH  10  11
ATOM     11  S   UNL d   1      58.452  -0.076  30.042  0.00  0.00    -0.083 SA
BRANCH  11  12
ATOM     12  C   UNL d   1      59.056  -0.501  29.642  0.00  0.00     0.030 A 
ATOM     13  C   UNL d   1      58.941  -1.298  29.441  0.00  0.00     0.007 A 
ATOM     14  C   UNL d   1      59.530  -1.686  29.060  0.00  0.00     0.012 A 
ATOM     15  C   UNL d   1      60.247  -1.328  28.859  0.00  0.00     0.058 A 
ATOM     16  C   UNL d   1      60.340  -0.563  29.060  0.00  0.00     0.012 A 
ATOM     17 CL   UNL d   1      60.872  -1.715  28.463  0.00  0.00    -0.082 Cl
ATOM     18  C   UNL d   1      59.768  -0.133  29.446  0.00  0.00     0.007 A 
ENDBRANCH  11  12
ENDBRANCH  10  11
ENDBRANCH   8  10
ENDBRANCH   3   8
BRANCH   1  19
ATOM     19  C   UNL d   1      56.165  -0.722  33.502  0.00  0.00     0.302 C 
ATOM     20  O   UNL d   1      56.327  -1.359  34.025  0.00  0.00    -0.259 OA
BRANCH  19  21
ATOM     21  O   UNL d   1      55.786  -0.043  33.805  0.00  0.00    -0.271 OA
BRANCH  21  22
ATOM     22  C   UNL d   1      55.441  -0.096  34.556  0.00  0.00     0.126 C 
ATOM     23  C   UNL d   1      55.209   0.602  34.966  0.00  0.00     0.029 C 
ENDBRANCH  21  22
ENDBRANCH  19  21
ENDBRANCH   1  19
TORSDOF 7
ENDMDL
