MODEL 1
REMARK VINA RESULT:      -6.3      0.000      0.000
REMARK  3 active torsions:
REMARK  status: ('A' for Active; 'I' for Inactive)
REMARK    1  A    between atoms: N_9  and  C_5 
REMARK    2  A    between atoms: C_12  and  N_9 
REMARK    3  A    between atoms: C_13  and  C_12 
ROOT
ATOM      1  C   UNL d   1      57.312  -0.765  31.088  0.00  0.00     0.153 A 
ATOM      2  O   UNL d   1      56.959  -1.358  31.536  0.00  0.00    -0.302 OA
ATOM      3  C   UNL d   1      57.079  -0.036  31.398  0.00  0.00     0.111 A 
ATOM      4  C   UNL d   1      56.578  -0.185  32.041  0.00  0.00     0.043 A 
ATOM      5  C   UNL d   1      57.821  -0.795  30.433  0.00  0.00     0.189 A 
ATOM      6  C   UNL d   1      56.506  -0.996  32.124  0.00  0.00     0.102 A 
ATOM      7  N   UNL d   1      58.092  -0.095  30.092  0.00  0.00    -0.203 NA
ATOM      8  N   UNL d   1      57.355   0.658  31.050  0.00  0.00    -0.222 NA
ATOM      9  C   UNL d   1      57.859   0.634  30.402  0.00  0.00     0.201 A 
ATOM     10  C   UNL d   1      56.188   0.325  32.549  0.00  0.00     0.004 A 
ATOM     11  C   UNL d   1      56.035  -1.304  32.726  0.00  0.00     0.025 A 
ATOM     12  C   UNL d   1      55.717   0.017  33.151  0.00  0.00     0.000 A 
ATOM     13  C   UNL d   1      55.640  -0.797  33.241  0.00  0.00     0.002 A 
ENDROOT
BRANCH   5  14
ATOM     14  N   UNL d   1      58.055  -1.528  30.123  0.00  0.00    -0.222 NA
BRANCH  14  15
ATOM     15  C   UNL d   1      58.575  -1.551  29.484  0.00  0.00     0.120 C 
BRANCH  15  16
ATOM     16  C   UNL d   1      58.876  -2.276  29.233  0.00  0.00     0.101 A 
ATOM     17  N   UNL d   1      58.372  -2.839  28.900  0.00  0.00    -0.242 NA
ATOM     18  C   UNL d   1      58.666  -3.571  28.645  0.00  0.00     0.099 A 
ATOM     19  C   UNL d   1      59.475  -3.737  28.726  0.00  0.00     0.021 A 
ATOM     20  C   UNL d   1      59.978  -3.174  29.058  0.00  0.00     0.003 A 
ATOM     21  C   UNL d   1      59.677  -2.444  29.312  0.00  0.00     0.021 A 
ENDBRANCH  15  16
ENDBRANCH  14  15
ENDBRANCH   5  14
TORSDOF 3
ENDMDL
MODEL 2
REMARK VINA RESULT:      -5.0      1.054      4.326
REMARK  3 active torsions:
REMARK  status: ('A' for Active; 'I' for Inactive)
REMARK    1  A    between atoms: N_9  and  C_5 
REMARK    2  A    between atoms: C_12  and  N_9 
REMARK    3  A    between atoms: C_13  and  C_12 
ROOT
ATOM      1  C   UNL d   1      58.266  -0.867  30.050  0.00  0.00     0.153 A 
ATOM      2  O   UNL d   1      58.121  -1.676  30.038  0.00  0.00    -0.302 OA
ATOM      3  C   UNL d   1      58.899  -0.713  29.542  0.00  0.00     0.111 A 
ATOM      4  C   UNL d   1      59.143  -1.435  29.218  0.00  0.00     0.043 A 
ATOM      5  C   UNL d   1      57.901  -0.245  30.460  0.00  0.00     0.189 A 
ATOM      6  C   UNL d   1      58.664  -2.025  29.523  0.00  0.00     0.102 A 
ATOM      7  N   UNL d   1      58.171   0.528  30.360  0.00  0.00    -0.203 NA
ATOM      8  N   UNL d   1      59.162   0.062  29.449  0.00  0.00    -0.222 NA
ATOM      9  C   UNL d   1      58.804   0.682  29.853  0.00  0.00     0.201 A 
ATOM     10  C   UNL d   1      59.739  -1.612  28.686  0.00  0.00     0.004 A 
ATOM     11  C   UNL d   1      58.784  -2.807  29.293  0.00  0.00     0.025 A 
ATOM     12  C   UNL d   1      59.860  -2.394  28.455  0.00  0.00     0.000 A 
ATOM     13  C   UNL d   1      59.382  -2.992  28.758  0.00  0.00     0.002 A 
ENDROOT
BRANCH   5  14
ATOM     14  N   UNL d   1      57.265  -0.402  30.970  0.00  0.00    -0.222 NA
BRANCH  14  15
ATOM     15  C   UNL d   1      57.217  -0.006  31.692  0.00  0.00     0.120 C 
BRANCH  15  16
ATOM     16  C   UNL d   1      56.616  -0.203  32.221  0.00  0.00     0.101 A 
ATOM     17  N   UNL d   1      56.474  -0.993  32.410  0.00  0.00    -0.242 NA
ATOM     18  C   UNL d   1      55.872  -1.200  32.941  0.00  0.00     0.099 A 
ATOM     19  C   UNL d   1      55.409  -0.604  33.285  0.00  0.00     0.021 A 
ATOM     20  C   UNL d   1      55.551   0.187  33.096  0.00  0.00     0.003 A 
ATOM     21  C   UNL d   1      56.155   0.386  32.564  0.00  0.00     0.021 A 
ENDBRANCH  15  16
ENDBRANCH  14  15
ENDBRANCH   5  14
TORSDOF 3
ENDMDL
MODEL 3
REMARK VINA RESULT:      -3.8      1.597      4.590
REMARK  3 active torsions:
REMARK  status: ('A' for Active; 'I' for Inactive)
REMARK    1  A    between atoms: N_9  and  C_5 
REMARK    2  A    between atoms: C_12  and  N_9 
REMARK    3  A    between atoms: C_13  and  C_12 
ROOT
ATOM      1  C   UNL d   1      58.778  -0.606  29.995  0.00  0.00     0.153 A 
ATOM      2  O   UNL d   1      59.178   0.091  30.169  0.00  0.00    -0.302 OA
ATOM      3  C   UNL d   1      59.201  -1.005  29.409  0.00  0.00     0.111 A 
ATOM      4  C   UNL d   1      59.868  -0.548  29.225  0.00  0.00     0.043 A 
ATOM      5  C   UNL d   1      58.076  -0.930  30.295  0.00  0.00     0.189 A 
ATOM      6  C   UNL d   1      59.851   0.124  29.692  0.00  0.00     0.102 A 
ATOM      7  N   UNL d   1      57.802  -1.654  30.008  0.00  0.00    -0.203 NA
ATOM      8  N   UNL d   1      58.920  -1.727  29.129  0.00  0.00    -0.222 NA
ATOM      9  C   UNL d   1      58.226  -2.053  29.423  0.00  0.00     0.201 A 
ATOM     10  C   UNL d   1      60.475  -0.673  28.690  0.00  0.00     0.004 A 
ATOM     11  C   UNL d   1      60.454   0.682  29.623  0.00  0.00     0.025 A 
ATOM     12  C   UNL d   1      61.077  -0.115  28.621  0.00  0.00     0.000 A 
ATOM     13  C   UNL d   1      61.067   0.563  29.088  0.00  0.00     0.002 A 
ENDROOT
BRANCH   5  14
ATOM     14  N   UNL d   1      57.651  -0.528  30.883  0.00  0.00    -0.222 NA
BRANCH  14  15
ATOM     15  C   UNL d   1      56.998  -0.890  31.232  0.00  0.00     0.120 C 
BRANCH  15  16
ATOM     16  C   UNL d   1      56.633  -0.530  31.878  0.00  0.00     0.101 A 
ATOM     17  N   UNL d   1      56.650   0.291  31.958  0.00  0.00    -0.242 NA
ATOM     18  C   UNL d   1      56.285   0.661  32.603  0.00  0.00     0.099 A 
ATOM     19  C   UNL d   1      55.899   0.199  33.174  0.00  0.00     0.021 A 
ATOM     20  C   UNL d   1      55.883  -0.622  33.094  0.00  0.00     0.003 A 
ATOM     21  C   UNL d   1      56.250  -0.986  32.445  0.00  0.00     0.021 A 
ENDBRANCH  15  16
ENDBRANCH  14  15
ENDBRANCH   5  14
TORSDOF 3
ENDMDL
MODEL 4
REMARK VINA RESULT:      -3.3      8.161      8.777
REMARK  3 active torsions:
REMARK  status: ('A' for Active; 'I' for Inactive)
REMARK    1  A    between atoms: N_9  and  C_5 
REMARK    2  A    between atoms: C_12  and  N_9 
REMARK    3  A    between atoms: C_13  and  C_12 
ROOT
ATOM      1  C   UNL d   1      59.780  -8.739  34.284  0.00  0.00     0.153 A 
ATOM      2  O   UNL d   1      59.220  -8.198  34.550  0.00  0.00    -0.302 OA
ATOM      3  C   UNL d   1      60.466  -8.640  34.733  0.00  0.00     0.111 A 
ATOM      4  C   UNL d   1      60.324  -8.031  35.278  0.00  0.00     0.043 A 
ATOM      5  C   UNL d   1      59.753  -9.315  33.688  0.00  0.00     0.189 A 
ATOM      6  C   UNL d   1      59.559  -7.762  35.163  0.00  0.00     0.102 A 
ATOM      7  N   UNL d   1      60.413  -9.788  33.543  0.00  0.00    -0.203 NA
ATOM      8  N   UNL d   1      61.120  -9.117  34.581  0.00  0.00    -0.222 NA
ATOM      9  C   UNL d   1      61.099  -9.688  33.992  0.00  0.00     0.201 A 
ATOM     10  C   UNL d   1      60.803  -7.702  35.854  0.00  0.00     0.004 A 
ATOM     11  C   UNL d   1      59.269  -7.151  35.634  0.00  0.00     0.025 A 
ATOM     12  C   UNL d   1      60.512  -7.092  36.325  0.00  0.00     0.000 A 
ATOM     13  C   UNL d   1      59.745  -6.816  36.215  0.00  0.00     0.002 A 
ENDROOT
BRANCH   5  14
ATOM     14  N   UNL d   1      59.063  -9.414  33.238  0.00  0.00    -0.222 NA
BRANCH  14  15
ATOM     15  C   UNL d   1      59.119  -9.698  32.466  0.00  0.00     0.120 C 
BRANCH  15  16
ATOM     16  C   UNL d   1      58.440  -9.738  31.999  0.00  0.00     0.101 A 
ATOM     17  N   UNL d   1      58.506  -9.777  31.177  0.00  0.00    -0.242 NA
ATOM     18  C   UNL d   1      57.829  -9.818  30.700  0.00  0.00     0.099 A 
ATOM     19  C   UNL d   1      57.079  -9.818  31.055  0.00  0.00     0.021 A 
ATOM     20  C   UNL d   1      57.014  -9.778  31.877  0.00  0.00     0.003 A 
ATOM     21  C   UNL d   1      57.696  -9.738  32.348  0.00  0.00     0.021 A 
ENDBRANCH  15  16
ENDBRANCH  14  15
ENDBRANCH   5  14
TORSDOF 3
ENDMDL
