MODEL 1
REMARK VINA RESULT:      -4.9      0.000      0.000
REMARK  3 active torsions:
REMARK  status: ('A' for Active; 'I' for Inactive)
REMARK       I    between atoms: C_2  and  N_1 
REMARK    1  A    between atoms: C_3  and  C_2 
REMARK    2  A    between atoms: S_5  and  C_3 
REMARK    3  A    between atoms: C_7  and  S_5 
ROOT
ATOM      1  C   UNL d   1      57.789  -0.343  30.630  0.00  0.00     0.125 C 
ENDROOT
BRANCH   1   2
ATOM      2  C   UNL d   1      58.302  -0.119  30.024  0.00  0.00     0.259 C 
ATOM      3  N   UNL d   1      58.653  -0.697  29.539  0.00  0.00    -0.268 N 
ATOM      4  C   UNL d   1      58.481  -1.493  29.672  0.00  0.00     0.110 A 
ATOM      5  C   UNL d   1      59.167  -0.482  28.931  0.00  0.00     0.110 A 
ATOM      6  C   UNL d   1      58.824  -2.074  29.197  0.00  0.00     0.142 A 
ATOM      7  O   UNL d   1      59.337  -1.859  28.589  0.00  0.00    -0.300 OA
ATOM      8  C   UNL d   1      59.510  -1.064  28.455  0.00  0.00     0.142 A 
ATOM      9  O   UNL d   1      58.473   0.682  29.892  0.00  0.00    -0.267 OA
ENDBRANCH   1   2
BRANCH   1  10
ATOM     10  S   UNL d   1      57.502   0.228  31.141  0.00  0.00    -0.095 SA
BRANCH  10  11
ATOM     11  C   UNL d   1      56.945   0.024  31.714  0.00  0.00     0.029 A 
ATOM     12  C   UNL d   1      56.810  -0.770  31.893  0.00  0.00     0.007 A 
ATOM     13  C   UNL d   1      56.253  -0.974  32.466  0.00  0.00     0.012 A 
ATOM     14  C   UNL d   1      55.831  -0.385  32.859  0.00  0.00     0.058 A 
ATOM     15  C   UNL d   1      55.966   0.409  32.680  0.00  0.00     0.012 A 
ATOM     16 CL   UNL d   1      55.271  -0.577  33.434  0.00  0.00    -0.082 Cl
ATOM     17  C   UNL d   1      56.523   0.614  32.107  0.00  0.00     0.007 A 
ENDBRANCH  10  11
ENDBRANCH   1  10
TORSDOF 3
ENDMDL
MODEL 2
REMARK VINA RESULT:      -3.9      2.403      4.310
REMARK  3 active torsions:
REMARK  status: ('A' for Active; 'I' for Inactive)
REMARK       I    between atoms: C_2  and  N_1 
REMARK    1  A    between atoms: C_3  and  C_2 
REMARK    2  A    between atoms: S_5  and  C_3 
REMARK    3  A    between atoms: C_7  and  S_5 
ROOT
ATOM      1  C   UNL d   1      57.464  -0.416  31.128  0.00  0.00     0.125 C 
ENDROOT
BRANCH   1   2
ATOM      2  C   UNL d   1      56.929  -0.810  31.617  0.00  0.00     0.259 C 
ATOM      3  N   UNL d   1      56.654  -0.445  32.313  0.00  0.00    -0.268 N 
ATOM      4  C   UNL d   1      56.922   0.312  32.504  0.00  0.00     0.110 A 
ATOM      5  C   UNL d   1      56.119  -0.830  32.808  0.00  0.00     0.110 A 
ATOM      6  C   UNL d   1      56.655   0.682  33.191  0.00  0.00     0.142 A 
ATOM      7  O   UNL d   1      56.121   0.297  33.686  0.00  0.00    -0.300 OA
ATOM      8  C   UNL d   1      55.852  -0.459  33.496  0.00  0.00     0.142 A 
ATOM      9  O   UNL d   1      56.661  -1.569  31.423  0.00  0.00    -0.267 OA
ENDBRANCH   1   2
BRANCH   1  10
ATOM     10  S   UNL d   1      57.718  -0.781  30.440  0.00  0.00    -0.095 SA
BRANCH  10  11
ATOM     11  C   UNL d   1      58.290  -0.417  29.970  0.00  0.00     0.029 A 
ATOM     12  C   UNL d   1      59.041  -0.751  29.904  0.00  0.00     0.007 A 
ATOM     13  C   UNL d   1      59.614  -0.388  29.434  0.00  0.00     0.012 A 
ATOM     14  C   UNL d   1      59.435   0.309  29.031  0.00  0.00     0.058 A 
ATOM     15  C   UNL d   1      58.683   0.643  29.097  0.00  0.00     0.012 A 
ATOM     16 CL   UNL d   1      59.998   0.682  28.558  0.00  0.00    -0.082 Cl
ATOM     17  C   UNL d   1      58.111   0.280  29.567  0.00  0.00     0.007 A 
ENDBRANCH  10  11
ENDBRANCH   1  10
TORSDOF 3
ENDMDL
MODEL 3
REMARK VINA RESULT:      -3.8      2.244      4.180
REMARK  3 active torsions:
REMARK  status: ('A' for Active; 'I' for Inactive)
REMARK       I    between atoms: C_2  and  N_1 
REMARK    1  A    between atoms: C_3  and  C_2 
REMARK    2  A    between atoms: S_5  and  C_3 
REMARK    3  A    between atoms: C_7  and  S_5 
ROOT
ATOM      1  C   UNL d   1      57.752  -0.729  30.664  0.00  0.00     0.125 C 
ENDROOT
BRANCH   1   2
ATOM      2  C   UNL d   1      57.397  -0.110  31.080  0.00  0.00     0.259 C 
ATOM      3  N   UNL d   1      56.883  -0.274  31.713  0.00  0.00    -0.268 N 
ATOM      4  C   UNL d   1      56.733  -1.060  31.918  0.00  0.00     0.110 A 
ATOM      5  C   UNL d   1      56.524   0.336  32.134  0.00  0.00     0.110 A 
ATOM      6  C   UNL d   1      56.225  -1.233  32.544  0.00  0.00     0.142 A 
ATOM      7  O   UNL d   1      55.866  -0.623  32.965  0.00  0.00    -0.300 OA
ATOM      8  C   UNL d   1      56.015   0.163  32.761  0.00  0.00     0.142 A 
ATOM      9  O   UNL d   1      57.548   0.677  30.872  0.00  0.00    -0.267 OA
ENDBRANCH   1   2
BRANCH   1  10
ATOM     10  S   UNL d   1      58.155  -0.563  29.972  0.00  0.00    -0.095 SA
BRANCH  10  11
ATOM     11  C   UNL d   1      58.657  -1.130  29.644  0.00  0.00     0.029 A 
ATOM     12  C   UNL d   1      58.381  -1.894  29.505  0.00  0.00     0.007 A 
ATOM     13  C   UNL d   1      58.883  -2.461  29.177  0.00  0.00     0.012 A 
ATOM     14  C   UNL d   1      59.660  -2.263  28.988  0.00  0.00     0.058 A 
ATOM     15  C   UNL d   1      59.937  -1.498  29.127  0.00  0.00     0.012 A 
ATOM     16 CL   UNL d   1      60.173  -2.820  28.660  0.00  0.00    -0.082 Cl
ATOM     17  C   UNL d   1      59.436  -0.931  29.455  0.00  0.00     0.007 A 
ENDBRANCH  10  11
ENDBRANCH   1  10
TORSDOF 3
ENDMDL
