MODEL 1
REMARK VINA RESULT:       7.4      0.000      0.000
REMARK  6 active torsions:
REMARK  status: ('A' for Active; 'I' for Inactive)
REMARK    1  A    between atoms: C_4  and  C_1 
REMARK    2  A    between atoms: C_3  and  C_7 
REMARK    3  A    between atoms: O_18  and  C_3 
REMARK    4  A    between atoms: C_9  and  C_4 
REMARK    5  A    between atoms: O_13  and  C_9 
REMARK    6  A    between atoms: C_15  and  O_13 
ROOT
ATOM      1  C   UNL d   1      46.085 -17.265  44.124  0.00  0.00     0.165 C 
ENDROOT
BRANCH   1   2
ATOM      2  C   UNL d   1      46.209 -18.067  44.205  0.00  0.00     0.223 C 
ATOM      3  O   UNL d   1      46.225 -18.416  44.952  0.00  0.00    -0.284 OA
BRANCH   2   4
ATOM      4  C   UNL d   1      46.321 -18.538  43.507  0.00  0.00     0.080 A 
ATOM      5  C   UNL d   1      46.301 -19.350  43.573  0.00  0.00     0.202 A 
ATOM      6  C   UNL d   1      46.411 -19.828  42.889  0.00  0.00     0.084 A 
ATOM      7  O   UNL d   1      46.172 -19.691  44.317  0.00  0.00    -0.286 OA
ATOM      8  C   UNL d   1      46.537 -19.454  42.164  0.00  0.00     0.199 A 
ATOM      9  C   UNL d   1      46.556 -18.629  42.106  0.00  0.00     0.042 A 
ATOM     10  O   UNL d   1      46.647 -19.933  41.481  0.00  0.00    -0.286 OA
ATOM     11  C   UNL d   1      46.448 -18.178  42.776  0.00  0.00     0.010 A 
ENDBRANCH   2   4
ENDBRANCH   1   2
BRANCH   1  12
ATOM     12  O   UNL d   1      45.890 -16.804  44.775  0.00  0.00    -0.302 OA
BRANCH  12  13
ATOM     13  C   UNL d   1      45.773 -15.990  44.686  0.00  0.00     0.100 A 
ATOM     14  C   UNL d   1      45.061 -15.647  44.923  0.00  0.00     0.025 A 
ATOM     15  C   UNL d   1      44.943 -14.852  44.837  0.00  0.00     0.007 A 
ATOM     16  C   UNL d   1      45.540 -14.362  44.506  0.00  0.00     0.063 A 
ATOM     17  C   UNL d   1      46.252 -14.705  44.269  0.00  0.00     0.007 A 
ATOM     18  C   UNL d   1      46.363 -15.536  44.363  0.00  0.00     0.025 A 
BRANCH  16  19
ATOM     19  C   UNL d   1      45.408 -13.541  44.422  0.00  0.00     0.296 C 
ATOM     20  O   UNL d   1      44.912 -13.250  43.830  0.00  0.00    -0.259 OA
BRANCH  19  21
ATOM     21  O   UNL d   1      45.794 -13.024  44.953  0.00  0.00    -0.296 OA
ATOM     22  C   UNL d   1      45.852 -12.217  44.793  0.00  0.00     0.185 C 
ENDBRANCH  19  21
ENDBRANCH  16  19
ENDBRANCH  12  13
ENDBRANCH   1  12
TORSDOF 6
ENDMDL
