MODEL 1
REMARK VINA RESULT:      -8.2      0.000      0.000
REMARK  4 active torsions:
REMARK  status: ('A' for Active; 'I' for Inactive)
REMARK    1  A    between atoms: S_3  and  N_1 
REMARK    2  A    between atoms: C_7  and  C_4 
REMARK    3  A    between atoms: C_12  and  C_5 
REMARK    4  A    between atoms: O_24  and  C_21 
ROOT
ATOM      1  N   UNL d   1     -48.369  12.361  22.726  0.00  0.00    -0.155 N 
ATOM      2  N   UNL d   1     -47.603  12.089  22.696  0.00  0.00    -0.156 NA
ATOM      3  C   UNL d   1     -48.363  13.160  22.574  0.00  0.00     0.096 A 
ATOM      4  C   UNL d   1     -47.120  12.721  22.524  0.00  0.00     0.103 A 
ATOM      5  C   UNL d   1     -47.582  13.390  22.447  0.00  0.00     0.041 A 
ENDROOT
BRANCH   3   6
ATOM      6  C   UNL d   1     -49.021  13.658  22.551  0.00  0.00     0.020 A 
ATOM      7  C   UNL d   1     -49.124  14.232  23.133  0.00  0.00     0.022 A 
ATOM      8  C   UNL d   1     -49.781  14.730  23.109  0.00  0.00     0.099 A 
ATOM      9  N   UNL d   1     -49.885  15.305  23.692  0.00  0.00    -0.241 NA
ATOM     10  C   UNL d   1     -50.332  14.653  22.507  0.00  0.00     0.099 A 
ATOM     11  C   UNL d   1     -50.512  15.760  23.646  0.00  0.00     0.120 A 
ATOM     12  C   UNL d   1     -51.063  15.684  23.044  0.00  0.00     0.120 A 
ATOM     13  N   UNL d   1     -50.990  15.151  22.484  0.00  0.00    -0.241 NA
ATOM     14  C   UNL d   1     -50.229  14.078  21.925  0.00  0.00     0.021 A 
ATOM     15  C   UNL d   1     -49.572  13.581  21.948  0.00  0.00     0.003 A 
ENDBRANCH   3   6
BRANCH   1  16
ATOM     16  S   UNL d   1     -49.037  11.918  22.882  0.00  0.00     0.266 S 
ATOM     17  O   UNL d   1     -49.157  11.809  22.056  0.00  0.00    -0.203 OA
ATOM     18  O   UNL d   1     -49.725  11.460  23.042  0.00  0.00    -0.203 OA
ATOM     19  C   UNL d   1     -48.924  12.021  23.680  0.00  0.00     0.165 C 
ENDBRANCH   1  16
BRANCH   4  20
ATOM     20  C   UNL d   1     -46.311  12.699  22.441  0.00  0.00     0.020 A 
ATOM     21  C   UNL d   1     -45.864  12.152  22.836  0.00  0.00     0.004 A 
ATOM     22  C   UNL d   1     -45.030  12.122  22.756  0.00  0.00     0.024 A 
ATOM     23  C   UNL d   1     -44.657  12.670  22.259  0.00  0.00     0.094 A 
ATOM     24  C   UNL d   1     -45.129  13.228  21.859  0.00  0.00     0.024 A 
ATOM     25  C   UNL d   1     -45.934  13.245  21.944  0.00  0.00     0.004 A 
BRANCH  23  26
ATOM     26  O   UNL d   1     -43.877  12.657  22.172  0.00  0.00    -0.328 OA
ATOM     27  C   UNL d   1     -43.539  12.692  21.415  0.00  0.00     0.181 C 
ENDBRANCH  23  26
ENDBRANCH   4  20
TORSDOF 4
ENDMDL
MODEL 2
REMARK VINA RESULT:      -7.2      8.282      9.692
REMARK  4 active torsions:
REMARK  status: ('A' for Active; 'I' for Inactive)
REMARK    1  A    between atoms: S_3  and  N_1 
REMARK    2  A    between atoms: C_7  and  C_4 
REMARK    3  A    between atoms: C_12  and  C_5 
REMARK    4  A    between atoms: O_24  and  C_21 
ROOT
ATOM      1  N   UNL d   1     -40.394  14.893  19.977  0.00  0.00    -0.155 N 
ATOM      2  N   UNL d   1     -40.426  14.820  19.167  0.00  0.00    -0.156 NA
ATOM      3  C   UNL d   1     -39.633  14.739  20.217  0.00  0.00     0.096 A 
ATOM      4  C   UNL d   1     -39.682  14.620  18.904  0.00  0.00     0.103 A 
ATOM      5  C   UNL d   1     -39.183  14.568  19.548  0.00  0.00     0.041 A 
ENDROOT
BRANCH   3   6
ATOM      6  C   UNL d   1     -39.354  14.751  20.994  0.00  0.00     0.020 A 
ATOM      7  C   UNL d   1     -39.285  14.047  21.418  0.00  0.00     0.022 A 
ATOM      8  C   UNL d   1     -39.006  14.059  22.194  0.00  0.00     0.099 A 
ATOM      9  N   UNL d   1     -38.938  13.355  22.619  0.00  0.00    -0.241 NA
ATOM     10  C   UNL d   1     -38.798  14.771  22.544  0.00  0.00     0.099 A 
ATOM     11  C   UNL d   1     -38.673  13.395  23.348  0.00  0.00     0.120 A 
ATOM     12  C   UNL d   1     -38.464  14.106  23.698  0.00  0.00     0.120 A 
ATOM     13  N   UNL d   1     -38.519  14.782  23.321  0.00  0.00    -0.241 NA
ATOM     14  C   UNL d   1     -38.867  15.475  22.120  0.00  0.00     0.021 A 
ATOM     15  C   UNL d   1     -39.145  15.463  21.344  0.00  0.00     0.003 A 
ENDBRANCH   3   6
BRANCH   1  16
ATOM     16  S   UNL d   1     -41.013  15.086  20.472  0.00  0.00     0.266 S 
ATOM     17  O   UNL d   1     -41.184  14.269  20.578  0.00  0.00    -0.203 OA
ATOM     18  O   UNL d   1     -41.651  15.286  20.983  0.00  0.00    -0.203 OA
ATOM     19  C   UNL d   1     -40.850  15.876  20.373  0.00  0.00     0.165 C 
ENDBRANCH   1  16
BRANCH   4  20
ATOM     20  C   UNL d   1     -39.464  14.492  18.132  0.00  0.00     0.020 A 
ATOM     21  C   UNL d   1     -39.603  15.047  17.559  0.00  0.00     0.004 A 
ATOM     22  C   UNL d   1     -39.382  14.923  16.760  0.00  0.00     0.024 A 
ATOM     23  C   UNL d   1     -39.010  14.211  16.555  0.00  0.00     0.094 A 
ATOM     24  C   UNL d   1     -38.872  13.649  17.154  0.00  0.00     0.024 A 
ATOM     25  C   UNL d   1     -39.091  13.782  17.922  0.00  0.00     0.004 A 
BRANCH  23  26
ATOM     26  O   UNL d   1     -38.795  14.078  15.812  0.00  0.00    -0.328 OA
ATOM     27  C   UNL d   1     -38.068  13.716  15.644  0.00  0.00     0.181 C 
ENDBRANCH  23  26
ENDBRANCH   4  20
TORSDOF 4
ENDMDL
MODEL 3
REMARK VINA RESULT:      -6.9      1.912      2.445
REMARK  4 active torsions:
REMARK  status: ('A' for Active; 'I' for Inactive)
REMARK    1  A    between atoms: S_3  and  N_1 
REMARK    2  A    between atoms: C_7  and  C_4 
REMARK    3  A    between atoms: C_12  and  C_5 
REMARK    4  A    between atoms: O_24  and  C_21 
ROOT
ATOM      1  N   UNL d   1     -46.940  13.308  22.931  0.00  0.00    -0.155 N 
ATOM      2  N   UNL d   1     -46.226  12.938  23.051  0.00  0.00    -0.156 NA
ATOM      3  C   UNL d   1     -47.522  12.740  22.919  0.00  0.00     0.096 A 
ATOM      4  C   UNL d   1     -46.365  12.138  23.115  0.00  0.00     0.103 A 
ATOM      5  C   UNL d   1     -47.166  12.006  23.034  0.00  0.00     0.041 A 
ENDROOT
BRANCH   3   6
ATOM      6  C   UNL d   1     -48.330  12.872  22.811  0.00  0.00     0.020 A 
ATOM      7  C   UNL d   1     -48.640  12.930  22.049  0.00  0.00     0.022 A 
ATOM      8  C   UNL d   1     -49.447  13.061  21.942  0.00  0.00     0.099 A 
ATOM      9  N   UNL d   1     -49.757  13.119  21.179  0.00  0.00    -0.241 NA
ATOM     10  C   UNL d   1     -49.941  13.133  22.592  0.00  0.00     0.099 A 
ATOM     11  C   UNL d   1     -50.521  13.243  21.106  0.00  0.00     0.120 A 
ATOM     12  C   UNL d   1     -51.015  13.315  21.756  0.00  0.00     0.120 A 
ATOM     13  N   UNL d   1     -50.749  13.265  22.483  0.00  0.00    -0.241 NA
ATOM     14  C   UNL d   1     -49.631  13.075  23.354  0.00  0.00     0.021 A 
ATOM     15  C   UNL d   1     -48.824  12.944  23.462  0.00  0.00     0.003 A 
ENDBRANCH   3   6
BRANCH   1  16
ATOM     16  S   UNL d   1     -47.063  14.109  22.837  0.00  0.00     0.266 S 
ATOM     17  O   UNL d   1     -47.340  14.160  23.630  0.00  0.00    -0.203 OA
ATOM     18  O   UNL d   1     -47.190  14.935  22.740  0.00  0.00    -0.203 OA
ATOM     19  C   UNL d   1     -46.796  14.064  22.070  0.00  0.00     0.165 C 
ENDBRANCH   1  16
BRANCH   4  20
ATOM     20  C   UNL d   1     -45.805  11.562  23.238  0.00  0.00     0.020 A 
ATOM     21  C   UNL d   1     -46.001  10.849  23.568  0.00  0.00     0.004 A 
ATOM     22  C   UNL d   1     -45.430  10.250  23.698  0.00  0.00     0.024 A 
ATOM     23  C   UNL d   1     -44.644  10.394  23.481  0.00  0.00     0.094 A 
ATOM     24  C   UNL d   1     -44.455  11.131  23.142  0.00  0.00     0.024 A 
ATOM     25  C   UNL d   1     -45.017  11.702  23.022  0.00  0.00     0.004 A 
BRANCH  23  26
ATOM     26  O   UNL d   1     -44.095   9.844  23.595  0.00  0.00    -0.328 OA
ATOM     27  C   UNL d   1     -43.301  10.059  23.694  0.00  0.00     0.181 C 
ENDBRANCH  23  26
ENDBRANCH   4  20
TORSDOF 4
ENDMDL
