MODEL 1
REMARK VINA RESULT:      -6.8      0.000      0.000
REMARK  4 active torsions:
REMARK  status: ('A' for Active; 'I' for Inactive)
REMARK    1  A    between atoms: C_3  and  S_1 
REMARK    2  A    between atoms: N_4  and  S_1 
REMARK    3  A    between atoms: C_2  and  C_8 
REMARK       I    between atoms: N_5  and  C_2 
REMARK    4  A    between atoms: C_14  and  N_5 
ROOT
ATOM      1  C   UNL d   1     -48.764  13.984  23.026  0.00  0.00     0.104 A 
ATOM      2  C   UNL d   1     -47.354  13.096  23.220  0.00  0.00     0.058 A 
ATOM      3  C   UNL d   1     -48.052  14.303  22.875  0.00  0.00     0.013 A 
ATOM      4  C   UNL d   1     -48.787  13.214  23.278  0.00  0.00     0.013 A 
ATOM      5  C   UNL d   1     -48.113  12.751  23.383  0.00  0.00     0.005 A 
ATOM      6  C   UNL d   1     -47.353  13.866  22.970  0.00  0.00     0.005 A 
ENDROOT
BRANCH   2   7
ATOM      7  C   UNL d   1     -46.639  12.649  23.317  0.00  0.00     0.279 C 
ATOM      8  N   UNL d   1     -46.571  11.906  23.082  0.00  0.00    -0.208 NA
ATOM      9  O   UNL d   1     -45.987  13.053  23.689  0.00  0.00    -0.265 OA
BRANCH   8  10
ATOM     10  C   UNL d   1     -45.863  11.496  23.189  0.00  0.00     0.085 A 
ATOM     11  C   UNL d   1     -45.176  11.810  22.901  0.00  0.00     0.020 A 
ATOM     12  C   UNL d   1     -44.469  11.399  23.009  0.00  0.00     0.013 A 
ATOM     13  C   UNL d   1     -44.449  10.675  23.404  0.00  0.00     0.058 A 
ATOM     14  C   UNL d   1     -45.166  10.359  23.698  0.00  0.00     0.013 A 
ATOM     15 CL   UNL d   1     -43.671  10.275  23.494  0.00  0.00    -0.082 Cl
ATOM     16  C   UNL d   1     -45.870  10.774  23.588  0.00  0.00     0.020 A 
ENDBRANCH   8  10
ENDBRANCH   2   7
BRANCH   1  17
ATOM     17  S   UNL d   1     -49.550  14.392  22.946  0.00  0.00     0.271 S 
ATOM     18  O   UNL d   1     -49.879  13.809  22.434  0.00  0.00    -0.200 OA
ATOM     19  O   UNL d   1     -49.230  14.947  23.436  0.00  0.00    -0.200 OA
BRANCH  17  20
ATOM     20  N   UNL d   1     -50.301  14.848  22.911  0.00  0.00    -0.226 N 
ATOM     21  C   UNL d   1     -50.427  15.483  23.440  0.00  0.00     0.111 C 
ATOM     22  C   UNL d   1     -50.881  14.650  22.357  0.00  0.00     0.111 C 
ENDBRANCH  17  20
ENDBRANCH   1  17
TORSDOF 4
ENDMDL
MODEL 2
REMARK VINA RESULT:      -6.5      1.060      1.445
REMARK  4 active torsions:
REMARK  status: ('A' for Active; 'I' for Inactive)
REMARK    1  A    between atoms: C_3  and  S_1 
REMARK    2  A    between atoms: N_4  and  S_1 
REMARK    3  A    between atoms: C_2  and  C_8 
REMARK       I    between atoms: N_5  and  C_2 
REMARK    4  A    between atoms: C_14  and  N_5 
ROOT
ATOM      1  C   UNL d   1     -48.933  14.625  22.916  0.00  0.00     0.104 A 
ATOM      2  C   UNL d   1     -47.392  13.963  22.870  0.00  0.00     0.058 A 
ATOM      3  C   UNL d   1     -48.321  15.026  22.605  0.00  0.00     0.013 A 
ATOM      4  C   UNL d   1     -48.788  13.884  23.210  0.00  0.00     0.013 A 
ATOM      5  C   UNL d   1     -48.043  13.531  23.203  0.00  0.00     0.005 A 
ATOM      6  C   UNL d   1     -47.557  14.700  22.581  0.00  0.00     0.005 A 
ENDROOT
BRANCH   2   7
ATOM      7  C   UNL d   1     -46.611  13.630  22.845  0.00  0.00     0.279 C 
ATOM      8  N   UNL d   1     -46.332  13.258  22.217  0.00  0.00    -0.208 NA
ATOM      9  O   UNL d   1     -46.138  13.721  23.548  0.00  0.00    -0.265 OA
BRANCH   8  10
ATOM     10  C   UNL d   1     -45.568  12.944  22.221  0.00  0.00     0.085 A 
ATOM     11  C   UNL d   1     -44.986  13.313  21.798  0.00  0.00     0.020 A 
ATOM     12  C   UNL d   1     -44.224  12.999  21.803  0.00  0.00     0.013 A 
ATOM     13  C   UNL d   1     -44.043  12.316  22.230  0.00  0.00     0.058 A 
ATOM     14  C   UNL d   1     -44.653  11.942  22.663  0.00  0.00     0.013 A 
ATOM     15 CL   UNL d   1     -43.216  12.019  22.204  0.00  0.00    -0.082 Cl
ATOM     16  C   UNL d   1     -45.414  12.260  22.656  0.00  0.00     0.020 A 
ENDBRANCH   8  10
ENDBRANCH   2   7
BRANCH   1  17
ATOM     17  S   UNL d   1     -49.772  14.911  22.974  0.00  0.00     0.271 S 
ATOM     18  O   UNL d   1     -49.653  15.331  23.695  0.00  0.00    -0.200 OA
ATOM     19  O   UNL d   1     -49.881  14.509  22.284  0.00  0.00    -0.200 OA
BRANCH  17  20
ATOM     20  N   UNL d   1     -50.616  15.160  22.969  0.00  0.00    -0.226 N 
ATOM     21  C   UNL d   1     -51.060  15.106  22.263  0.00  0.00     0.111 C 
ATOM     22  C   UNL d   1     -50.968  15.444  23.660  0.00  0.00     0.111 C 
ENDBRANCH  17  20
ENDBRANCH   1  17
TORSDOF 4
ENDMDL
MODEL 3
REMARK VINA RESULT:      -6.4      2.559      5.223
REMARK  4 active torsions:
REMARK  status: ('A' for Active; 'I' for Inactive)
REMARK    1  A    between atoms: C_3  and  S_1 
REMARK    2  A    between atoms: N_4  and  S_1 
REMARK    3  A    between atoms: C_2  and  C_8 
REMARK       I    between atoms: N_5  and  C_2 
REMARK    4  A    between atoms: C_14  and  N_5 
ROOT
ATOM      1  C   UNL d   1     -45.609  11.899  23.154  0.00  0.00     0.104 A 
ATOM      2  C   UNL d   1     -46.971  12.874  23.059  0.00  0.00     0.058 A 
ATOM      3  C   UNL d   1     -46.286  11.698  23.519  0.00  0.00     0.013 A 
ATOM      4  C   UNL d   1     -45.598  12.591  22.733  0.00  0.00     0.013 A 
ATOM      5  C   UNL d   1     -46.250  13.092  22.667  0.00  0.00     0.005 A 
ATOM      6  C   UNL d   1     -46.961  12.179  23.474  0.00  0.00     0.005 A 
ENDROOT
BRANCH   2   7
ATOM      7  C   UNL d   1     -47.662  13.365  23.013  0.00  0.00     0.279 C 
ATOM      8  N   UNL d   1     -48.335  13.118  22.701  0.00  0.00    -0.208 NA
ATOM      9  O   UNL d   1     -47.588  14.154  23.328  0.00  0.00    -0.265 OA
BRANCH   8  10
ATOM     10  C   UNL d   1     -48.991  13.618  22.669  0.00  0.00     0.085 A 
ATOM     11  C   UNL d   1     -49.039  14.170  22.081  0.00  0.00     0.020 A 
ATOM     12  C   UNL d   1     -49.695  14.669  22.051  0.00  0.00     0.013 A 
ATOM     13  C   UNL d   1     -50.302  14.616  22.607  0.00  0.00     0.058 A 
ATOM     14  C   UNL d   1     -50.242  14.040  23.211  0.00  0.00     0.013 A 
ATOM     15 CL   UNL d   1     -50.981  15.169  22.532  0.00  0.00    -0.082 Cl
ATOM     16  C   UNL d   1     -49.584  13.543  23.237  0.00  0.00     0.020 A 
ENDBRANCH   8  10
ENDBRANCH   2   7
BRANCH   1  17
ATOM     17  S   UNL d   1     -44.851  11.433  23.160  0.00  0.00     0.271 S 
ATOM     18  O   UNL d   1     -45.134  10.848  23.697  0.00  0.00    -0.200 OA
ATOM     19  O   UNL d   1     -44.586  11.995  22.647  0.00  0.00    -0.200 OA
BRANCH  17  20
ATOM     20  N   UNL d   1     -44.076  11.022  23.120  0.00  0.00    -0.226 N 
ATOM     21  C   UNL d   1     -43.445  11.366  22.693  0.00  0.00     0.111 C 
ATOM     22  C   UNL d   1     -43.970  10.298  23.503  0.00  0.00     0.111 C 
ENDBRANCH  17  20
ENDBRANCH   1  17
TORSDOF 4
ENDMDL
MODEL 4
REMARK VINA RESULT:      -5.7      8.607      9.010
REMARK  4 active torsions:
REMARK  status: ('A' for Active; 'I' for Inactive)
REMARK    1  A    between atoms: C_3  and  S_1 
REMARK    2  A    between atoms: N_4  and  S_1 
REMARK    3  A    between atoms: C_2  and  C_8 
REMARK       I    between atoms: N_5  and  C_2 
REMARK    4  A    between atoms: C_14  and  N_5 
ROOT
ATOM      1  C   UNL d   1     -40.551  15.314  18.007  0.00  0.00     0.104 A 
ATOM      2  C   UNL d   1     -39.772  14.952  19.448  0.00  0.00     0.058 A 
ATOM      3  C   UNL d   1     -40.559  14.578  18.307  0.00  0.00     0.013 A 
ATOM      4  C   UNL d   1     -40.153  15.886  18.421  0.00  0.00     0.013 A 
ATOM      5  C   UNL d   1     -39.760  15.740  19.132  0.00  0.00     0.005 A 
ATOM      6  C   UNL d   1     -40.175  14.396  19.020  0.00  0.00     0.005 A 
ENDROOT
BRANCH   2   7
ATOM      7  C   UNL d   1     -39.379  14.767  20.178  0.00  0.00     0.279 C 
ATOM      8  N   UNL d   1     -39.739  14.801  20.871  0.00  0.00    -0.208 NA
ATOM      9  O   UNL d   1     -38.560  14.537  20.119  0.00  0.00    -0.265 OA
BRANCH   8  10
ATOM     10  C   UNL d   1     -39.332  14.614  21.564  0.00  0.00     0.085 A 
ATOM     11  C   UNL d   1     -39.053  15.211  22.032  0.00  0.00     0.020 A 
ATOM     12  C   UNL d   1     -38.646  15.024  22.724  0.00  0.00     0.013 A 
ATOM     13  C   UNL d   1     -38.519  14.241  22.949  0.00  0.00     0.058 A 
ATOM     14  C   UNL d   1     -38.813  13.631  22.458  0.00  0.00     0.013 A 
ATOM     15 CL   UNL d   1     -38.080  14.091  23.696  0.00  0.00    -0.082 Cl
ATOM     16  C   UNL d   1     -39.219  13.823  21.766  0.00  0.00     0.020 A 
ENDBRANCH   8  10
ENDBRANCH   2   7
BRANCH   1  17
ATOM     17  S   UNL d   1     -40.939  15.578  17.252  0.00  0.00     0.271 S 
ATOM     18  O   UNL d   1     -41.614  15.908  17.633  0.00  0.00    -0.200 OA
ATOM     19  O   UNL d   1     -40.292  15.260  16.892  0.00  0.00    -0.200 OA
BRANCH  17  20
ATOM     20  N   UNL d   1     -41.267  15.811  16.470  0.00  0.00    -0.226 N 
ATOM     21  C   UNL d   1     -40.752  15.920  15.820  0.00  0.00     0.111 C 
ATOM     22  C   UNL d   1     -42.080  15.922  16.377  0.00  0.00     0.111 C 
ENDBRANCH  17  20
ENDBRANCH   1  17
TORSDOF 4
ENDMDL
MODEL 5
REMARK VINA RESULT:      -4.9      9.112     10.450
REMARK  4 active torsions:
REMARK  status: ('A' for Active; 'I' for Inactive)
REMARK    1  A    between atoms: C_3  and  S_1 
REMARK    2  A    between atoms: N_4  and  S_1 
REMARK    3  A    between atoms: C_2  and  C_8 
REMARK       I    between atoms: N_5  and  C_2 
REMARK    4  A    between atoms: C_14  and  N_5 
ROOT
ATOM      1  C   UNL d   1     -38.676  14.080  20.870  0.00  0.00     0.104 A 
ATOM      2  C   UNL d   1     -38.681  13.905  19.201  0.00  0.00     0.058 A 
ATOM      3  C   UNL d   1     -38.185  13.571  20.507  0.00  0.00     0.013 A 
ATOM      4  C   UNL d   1     -39.181  14.512  20.406  0.00  0.00     0.013 A 
ATOM      5  C   UNL d   1     -39.208  14.450  19.584  0.00  0.00     0.005 A 
ATOM      6  C   UNL d   1     -38.185  13.483  19.681  0.00  0.00     0.005 A 
ENDROOT
BRANCH   2   7
ATOM      7  C   UNL d   1     -38.681  13.815  18.356  0.00  0.00     0.279 C 
ATOM      8  N   UNL d   1     -38.141  14.146  17.898  0.00  0.00    -0.208 NA
ATOM      9  O   UNL d   1     -39.306  13.340  18.026  0.00  0.00    -0.265 OA
BRANCH   8  10
ATOM     10  C   UNL d   1     -38.165  14.041  17.079  0.00  0.00     0.085 A 
ATOM     11  C   UNL d   1     -38.410  14.651  16.609  0.00  0.00     0.020 A 
ATOM     12  C   UNL d   1     -38.434  14.545  15.792  0.00  0.00     0.013 A 
ATOM     13  C   UNL d   1     -38.214  13.830  15.444  0.00  0.00     0.058 A 
ATOM     14  C   UNL d   1     -37.962  13.205  15.940  0.00  0.00     0.013 A 
ATOM     15 CL   UNL d   1     -38.257  13.765  14.569  0.00  0.00    -0.082 Cl
ATOM     16  C   UNL d   1     -37.940  13.316  16.758  0.00  0.00     0.020 A 
ENDBRANCH   8  10
ENDBRANCH   2   7
BRANCH   1  17
ATOM     17  S   UNL d   1     -38.729  14.224  21.745  0.00  0.00     0.271 S 
ATOM     18  O   UNL d   1     -37.992  14.629  21.793  0.00  0.00    -0.200 OA
ATOM     19  O   UNL d   1     -39.434  13.836  21.693  0.00  0.00    -0.200 OA
BRANCH  17  20
ATOM     20  N   UNL d   1     -38.845  14.333  22.610  0.00  0.00    -0.226 N 
ATOM     21  C   UNL d   1     -38.818  13.669  23.119  0.00  0.00     0.111 C 
ATOM     22  C   UNL d   1     -38.981  15.086  22.919  0.00  0.00     0.111 C 
ENDBRANCH  17  20
ENDBRANCH   1  17
TORSDOF 4
ENDMDL
