MODEL 1
REMARK VINA RESULT:      51.8      0.000      0.000
REMARK  4 active torsions:
REMARK  status: ('A' for Active; 'I' for Inactive)
REMARK    1  A    between atoms: C_11  and  N_4 
REMARK    2  A    between atoms: C_18  and  C_7 
REMARK    3  A    between atoms: C_19  and  C_11 
REMARK    4  A    between atoms: O_20  and  C_16 
ROOT
ATOM      1  C   UNL d   1      14.309  14.066  -1.904  0.00  0.00     0.137 A 
ATOM      2  C   UNL d   1      14.676  13.956  -1.177  0.00  0.00     0.192 A 
ATOM      3  C   UNL d   1      13.921  13.438  -2.270  0.00  0.00     0.272 A 
ATOM      4  N   UNL d   1      13.899  12.701  -1.911  0.00  0.00    -0.258 N 
ATOM      5  N   UNL d   1      14.660  13.221  -0.811  0.00  0.00    -0.204 NA
ATOM      6  C   UNL d   1      14.327  14.808  -2.270  0.00  0.00     0.205 A 
ATOM      7  C   UNL d   1      14.270  12.585  -1.176  0.00  0.00     0.152 A 
ATOM      8  C   UNL d   1      14.714  15.427  -1.902  0.00  0.00     0.062 A 
ATOM      9  O   UNL d   1      15.066  14.582  -0.808  0.00  0.00    -0.289 OA
ATOM     10  C   UNL d   1      15.084  15.320  -1.174  0.00  0.00     0.107 A 
ATOM     11  C   UNL d   1      15.474  15.956  -0.809  0.00  0.00     0.049 A 
ATOM     12  C   UNL d   1      14.733  16.170  -2.267  0.00  0.00     0.007 A 
ATOM     13  O   UNL d   1      13.554  13.553  -2.996  0.00  0.00    -0.266 OA
ATOM     14  O   UNL d   1      13.958  14.915  -2.997  0.00  0.00    -0.286 OA
ATOM     15  C   UNL d   1      15.490  16.690  -1.175  0.00  0.00     0.096 A 
ATOM     16  C   UNL d   1      15.119  16.798  -1.906  0.00  0.00     0.024 A 
ENDROOT
BRANCH   4  17
ATOM     17  C   UNL d   1      13.506  12.066  -2.283  0.00  0.00     0.084 C 
BRANCH  17  18
ATOM     18  C   UNL d   1      13.509  12.005  -3.103  0.00  0.00     0.018 A 
ATOM     19  C   UNL d   1      14.215  11.911  -3.526  0.00  0.00     0.002 A 
ATOM     20  C   UNL d   1      14.210  11.851  -4.349  0.00  0.00     0.000 A 
ATOM     21  C   UNL d   1      13.480  11.886  -4.761  0.00  0.00     0.000 A 
ATOM     22  C   UNL d   1      12.770  11.980  -4.339  0.00  0.00     0.000 A 
ATOM     23  C   UNL d   1      12.788  12.040  -3.514  0.00  0.00     0.002 A 
ENDBRANCH  17  18
ENDBRANCH   4  17
BRANCH   7  24
ATOM     24  C   UNL d   1      14.248  11.848  -0.817  0.00  0.00     0.038 C 
ATOM     25  C   UNL d   1      14.016  11.780  -0.031  0.00  0.00     0.003 C 
ENDBRANCH   7  24
BRANCH  15  26
ATOM     26  O   UNL d   1      15.874  17.320  -0.817  0.00  0.00    -0.328 OA
ATOM     27  C   UNL d   1      15.494  18.045  -0.750  0.00  0.00     0.181 C 
ENDBRANCH  15  26
TORSDOF 4
ENDMDL
