MODEL 1
REMARK VINA RESULT:      -9.0      0.000      0.000
REMARK  7 active torsions:
REMARK  status: ('A' for Active; 'I' for Inactive)
REMARK    1  A    between atoms: C_8  and  C_2 
REMARK    2  A    between atoms: C_12  and  N_3 
REMARK    3  A    between atoms: C_6  and  C_4 
REMARK       I    between atoms: C_7  and  N_13 
REMARK    4  A    between atoms: C_9  and  C_7 
REMARK    5  A    between atoms: N_13  and  C_8 
REMARK    6  A    between atoms: C_11  and  C_9 
REMARK    7  A    between atoms: C_10  and  C_11 
ROOT
ATOM      1  N   UNL d   1      52.589  34.524  53.489  0.00  0.00    -0.165 NA
ATOM      2  C   UNL d   1      52.427  33.141  53.216  0.00  0.00     0.071 A 
ATOM      3  N   UNL d   1      53.516  33.591  54.023  0.00  0.00    -0.228 N 
ATOM      4  C   UNL d   1      52.176  33.910  53.131  0.00  0.00     0.105 A 
ATOM      5  C   UNL d   1      53.103  32.977  53.666  0.00  0.00     0.105 A 
ENDROOT
BRANCH   2   6
ATOM      6  C   UNL d   1      52.014  32.527  52.858  0.00  0.00     0.168 C 
BRANCH   6   7
ATOM      7  N   UNL d   1      52.344  31.763  52.825  0.00  0.00    -0.362 NA
ATOM      8  C   UNL d   1      52.675  30.992  52.797  0.00  0.00     0.329 C 
ATOM      9  O   UNL d   1      53.030  30.715  52.093  0.00  0.00    -0.251 OA
BRANCH   8  10
ATOM     10  C   UNL d   1      52.650  30.497  53.475  0.00  0.00     0.082 C 
BRANCH  10  11
ATOM     11  C   UNL d   1      53.127  29.804  53.506  0.00  0.00     0.076 C 
BRANCH  11  12
ATOM     12  C   UNL d   1      53.156  29.348  54.203  0.00  0.00     0.211 C 
ATOM     13  O   UNL d   1      53.135  28.515  54.143  0.00  0.00    -0.644 OA
ATOM     14  O   UNL d   1      53.206  29.727  54.939  0.00  0.00    -0.644 OA
ENDBRANCH  11  12
ENDBRANCH  10  11
ENDBRANCH   8  10
ENDBRANCH   6   7
ENDBRANCH   2   6
BRANCH   4  15
ATOM     15  C   UNL d   1      51.500  34.084  52.682  0.00  0.00     0.020 A 
ATOM     16  C   UNL d   1      50.801  34.253  53.054  0.00  0.00     0.008 A 
ATOM     17  C   UNL d   1      50.134  34.425  52.608  0.00  0.00     0.035 A 
ATOM     18 BR   UNL d   1      49.426  34.597  52.977  0.00  0.00    -0.049 Br
ATOM     19  C   UNL d   1      50.187  34.421  51.777  0.00  0.00     0.007 A 
ATOM     20  C   UNL d   1      50.895  34.249  51.403  0.00  0.00     0.001 A 
ATOM     21  C   UNL d   1      51.552  34.081  51.855  0.00  0.00     0.002 A 
ENDBRANCH   4  15
BRANCH   3  22
ATOM     22  C   UNL d   1      54.183  33.646  54.493  0.00  0.00     0.083 A 
ATOM     23  C   UNL d   1      54.098  33.615  55.309  0.00  0.00     0.019 A 
ATOM     24  C   UNL d   1      54.774  33.671  55.784  0.00  0.00     0.002 A 
ATOM     25  C   UNL d   1      55.518  33.756  55.439  0.00  0.00     0.000 A 
ATOM     26  C   UNL d   1      55.590  33.786  54.618  0.00  0.00     0.002 A 
ATOM     27  C   UNL d   1      54.920  33.731  54.149  0.00  0.00     0.019 A 
ENDBRANCH   3  22
TORSDOF 7
ENDMDL
MODEL 2
REMARK VINA RESULT:      -8.9      1.398      3.704
REMARK  7 active torsions:
REMARK  status: ('A' for Active; 'I' for Inactive)
REMARK    1  A    between atoms: C_8  and  C_2 
REMARK    2  A    between atoms: C_12  and  N_3 
REMARK    3  A    between atoms: C_6  and  C_4 
REMARK       I    between atoms: C_7  and  N_13 
REMARK    4  A    between atoms: C_9  and  C_7 
REMARK    5  A    between atoms: N_13  and  C_8 
REMARK    6  A    between atoms: C_11  and  C_9 
REMARK    7  A    between atoms: C_10  and  C_11 
ROOT
ATOM      1  N   UNL d   1      52.679  34.272  54.072  0.00  0.00    -0.165 NA
ATOM      2  C   UNL d   1      53.031  33.029  53.484  0.00  0.00     0.071 A 
ATOM      3  N   UNL d   1      51.870  33.731  53.038  0.00  0.00    -0.228 N 
ATOM      4  C   UNL d   1      53.180  33.621  54.020  0.00  0.00     0.105 A 
ATOM      5  C   UNL d   1      52.371  33.081  52.986  0.00  0.00     0.105 A 
ENDROOT
BRANCH   2   6
ATOM      6  C   UNL d   1      53.532  32.379  53.432  0.00  0.00     0.168 C 
BRANCH   6   7
ATOM      7  N   UNL d   1      53.232  31.634  53.211  0.00  0.00    -0.362 NA
ATOM      8  C   UNL d   1      52.929  30.883  52.992  0.00  0.00     0.329 C 
ATOM      9  O   UNL d   1      52.804  30.700  52.186  0.00  0.00    -0.251 OA
BRANCH   8  10
ATOM     10  C   UNL d   1      52.751  30.312  53.582  0.00  0.00     0.082 C 
BRANCH  10  11
ATOM     11  C   UNL d   1      53.249  29.641  53.681  0.00  0.00     0.076 C 
BRANCH  11  12
ATOM     12  C   UNL d   1      53.105  29.100  54.298  0.00  0.00     0.211 C 
ATOM     13  O   UNL d   1      52.414  29.189  54.762  0.00  0.00    -0.644 OA
ATOM     14  O   UNL d   1      53.645  28.488  54.441  0.00  0.00    -0.644 OA
ENDBRANCH  11  12
ENDBRANCH  10  11
ENDBRANCH   8  10
ENDBRANCH   6   7
ENDBRANCH   2   6
BRANCH   4  15
ATOM     15  C   UNL d   1      53.840  33.577  54.523  0.00  0.00     0.020 A 
ATOM     16  C   UNL d   1      54.559  33.846  54.268  0.00  0.00     0.008 A 
ATOM     17  C   UNL d   1      55.209  33.801  54.766  0.00  0.00     0.035 A 
ATOM     18 BR   UNL d   1      55.939  34.071  54.516  0.00  0.00    -0.049 Br
ATOM     19  C   UNL d   1      55.118  33.479  55.528  0.00  0.00     0.007 A 
ATOM     20  C   UNL d   1      54.389  33.207  55.784  0.00  0.00     0.001 A 
ATOM     21  C   UNL d   1      53.749  33.256  55.282  0.00  0.00     0.002 A 
ENDBRANCH   4  15
BRANCH   3  22
ATOM     22  C   UNL d   1      51.189  33.970  52.655  0.00  0.00     0.083 A 
ATOM     23  C   UNL d   1      50.510  34.102  53.097  0.00  0.00     0.019 A 
ATOM     24  C   UNL d   1      49.820  34.344  52.709  0.00  0.00     0.002 A 
ATOM     25  C   UNL d   1      49.819  34.451  51.891  0.00  0.00     0.000 A 
ATOM     26  C   UNL d   1      50.507  34.315  51.457  0.00  0.00     0.002 A 
ATOM     27  C   UNL d   1      51.190  34.075  51.843  0.00  0.00     0.019 A 
ENDBRANCH   3  22
TORSDOF 7
ENDMDL
MODEL 3
REMARK VINA RESULT:      -7.3      2.179      4.477
REMARK  7 active torsions:
REMARK  status: ('A' for Active; 'I' for Inactive)
REMARK    1  A    between atoms: C_8  and  C_2 
REMARK    2  A    between atoms: C_12  and  N_3 
REMARK    3  A    between atoms: C_6  and  C_4 
REMARK       I    between atoms: C_7  and  N_13 
REMARK    4  A    between atoms: C_9  and  C_7 
REMARK    5  A    between atoms: N_13  and  C_8 
REMARK    6  A    between atoms: C_11  and  C_9 
REMARK    7  A    between atoms: C_10  and  C_11 
ROOT
ATOM      1  N   UNL d   1      51.717  31.224  53.258  0.00  0.00    -0.165 NA
ATOM      2  C   UNL d   1      53.047  31.714  53.196  0.00  0.00     0.071 A 
ATOM      3  N   UNL d   1      51.946  32.599  52.988  0.00  0.00    -0.228 N 
ATOM      4  C   UNL d   1      52.528  31.098  53.306  0.00  0.00     0.105 A 
ATOM      5  C   UNL d   1      52.757  32.473  53.035  0.00  0.00     0.105 A 
ENDROOT
BRANCH   2   6
ATOM      6  C   UNL d   1      53.858  31.588  53.243  0.00  0.00     0.168 C 
BRANCH   6   7
ATOM      7  N   UNL d   1      54.367  32.208  53.468  0.00  0.00    -0.362 NA
ATOM      8  C   UNL d   1      54.878  32.832  53.698  0.00  0.00     0.329 C 
ATOM      9  O   UNL d   1      55.380  33.192  53.135  0.00  0.00    -0.251 OA
BRANCH   8  10
ATOM     10  C   UNL d   1      54.887  33.097  54.495  0.00  0.00     0.082 C 
BRANCH  10  11
ATOM     11  C   UNL d   1      54.995  33.915  54.664  0.00  0.00     0.076 C 
BRANCH  11  12
ATOM     12  C   UNL d   1      54.781  34.219  55.409  0.00  0.00     0.211 C 
ATOM     13  O   UNL d   1      54.069  34.652  55.481  0.00  0.00    -0.644 OA
ATOM     14  O   UNL d   1      55.274  34.088  56.063  0.00  0.00    -0.644 OA
ENDBRANCH  11  12
ENDBRANCH  10  11
ENDBRANCH   8  10
ENDBRANCH   6   7
ENDBRANCH   2   6
BRANCH   4  15
ATOM     15  C   UNL d   1      52.810  30.334  53.467  0.00  0.00     0.020 A 
ATOM     16  C   UNL d   1      52.882  30.085  54.233  0.00  0.00     0.008 A 
ATOM     17  C   UNL d   1      53.162  29.330  54.391  0.00  0.00     0.035 A 
ATOM     18 BR   UNL d   1      53.237  29.071  55.162  0.00  0.00    -0.049 Br
ATOM     19  C   UNL d   1      53.367  28.830  53.756  0.00  0.00     0.007 A 
ATOM     20  C   UNL d   1      53.293  29.085  52.981  0.00  0.00     0.001 A 
ATOM     21  C   UNL d   1      53.015  29.837  52.836  0.00  0.00     0.002 A 
ENDBRANCH   4  15
BRANCH   3  22
ATOM     22  C   UNL d   1      51.467  33.246  52.844  0.00  0.00     0.083 A 
ATOM     23  C   UNL d   1      50.852  33.408  53.364  0.00  0.00     0.019 A 
ATOM     24  C   UNL d   1      50.367  34.063  53.219  0.00  0.00     0.002 A 
ATOM     25  C   UNL d   1      50.502  34.542  52.562  0.00  0.00     0.000 A 
ATOM     26  C   UNL d   1      51.122  34.369  52.046  0.00  0.00     0.002 A 
ATOM     27  C   UNL d   1      51.602  33.720  52.192  0.00  0.00     0.019 A 
ENDBRANCH   3  22
TORSDOF 7
ENDMDL
MODEL 4
REMARK VINA RESULT:      -6.4      1.785      3.366
REMARK  7 active torsions:
REMARK  status: ('A' for Active; 'I' for Inactive)
REMARK    1  A    between atoms: C_8  and  C_2 
REMARK    2  A    between atoms: C_12  and  N_3 
REMARK    3  A    between atoms: C_6  and  C_4 
REMARK       I    between atoms: C_7  and  N_13 
REMARK    4  A    between atoms: C_9  and  C_7 
REMARK    5  A    between atoms: N_13  and  C_8 
REMARK    6  A    between atoms: C_11  and  C_9 
REMARK    7  A    between atoms: C_10  and  C_11 
ROOT
ATOM      1  N   UNL d   1      50.907  32.469  52.888  0.00  0.00    -0.165 NA
ATOM      2  C   UNL d   1      51.911  33.463  53.020  0.00  0.00     0.071 A 
ATOM      3  N   UNL d   1      52.255  32.080  53.105  0.00  0.00    -0.228 N 
ATOM      4  C   UNL d   1      51.133  33.260  52.904  0.00  0.00     0.105 A 
ATOM      5  C   UNL d   1      52.481  32.870  53.121  0.00  0.00     0.105 A 
ENDROOT
BRANCH   2   6
ATOM      6  C   UNL d   1      52.137  34.254  53.036  0.00  0.00     0.168 C 
BRANCH   6   7
ATOM      7  N   UNL d   1      52.682  34.524  53.605  0.00  0.00    -0.362 NA
ATOM      8  C   UNL d   1      53.233  34.792  54.177  0.00  0.00     0.329 C 
ATOM      9  O   UNL d   1      53.094  35.504  54.592  0.00  0.00    -0.251 OA
BRANCH   8  10
ATOM     10  C   UNL d   1      53.927  34.346  54.335  0.00  0.00     0.082 C 
BRANCH  10  11
ATOM     11  C   UNL d   1      54.264  34.353  55.107  0.00  0.00     0.076 C 
BRANCH  11  12
ATOM     12  C   UNL d   1      54.904  33.851  55.288  0.00  0.00     0.211 C 
ATOM     13  O   UNL d   1      55.675  34.077  55.058  0.00  0.00    -0.644 OA
ATOM     14  O   UNL d   1      54.765  33.140  55.692  0.00  0.00    -0.644 OA
ENDBRANCH  11  12
ENDBRANCH  10  11
ENDBRANCH   8  10
ENDBRANCH   6   7
ENDBRANCH   2   6
BRANCH   4  15
ATOM     15  C   UNL d   1      50.556  33.848  52.802  0.00  0.00     0.020 A 
ATOM     16  C   UNL d   1      50.255  33.992  52.065  0.00  0.00     0.008 A 
ATOM     17  C   UNL d   1      49.685  34.574  51.965  0.00  0.00     0.035 A 
ATOM     18 BR   UNL d   1      49.376  34.726  51.224  0.00  0.00    -0.049 Br
ATOM     19  C   UNL d   1      49.424  35.007  52.627  0.00  0.00     0.007 A 
ATOM     20  C   UNL d   1      49.730  34.859  53.372  0.00  0.00     0.001 A 
ATOM     21  C   UNL d   1      50.296  34.279  53.460  0.00  0.00     0.002 A 
ENDBRANCH   4  15
BRANCH   3  22
ATOM     22  C   UNL d   1      52.643  31.364  53.182  0.00  0.00     0.083 A 
ATOM     23  C   UNL d   1      52.201  30.684  53.308  0.00  0.00     0.019 A 
ATOM     24  C   UNL d   1      52.594  29.960  53.386  0.00  0.00     0.002 A 
ATOM     25  C   UNL d   1      53.416  29.926  53.337  0.00  0.00     0.000 A 
ATOM     26  C   UNL d   1      53.850  30.616  53.210  0.00  0.00     0.002 A 
ATOM     27  C   UNL d   1      53.459  31.333  53.133  0.00  0.00     0.019 A 
ENDBRANCH   3  22
TORSDOF 7
ENDMDL
MODEL 5
REMARK VINA RESULT:      -6.0      2.196      3.887
REMARK  7 active torsions:
REMARK  status: ('A' for Active; 'I' for Inactive)
REMARK    1  A    between atoms: C_8  and  C_2 
REMARK    2  A    between atoms: C_12  and  N_3 
REMARK    3  A    between atoms: C_6  and  C_4 
REMARK       I    between atoms: C_7  and  N_13 
REMARK    4  A    between atoms: C_9  and  C_7 
REMARK    5  A    between atoms: N_13  and  C_8 
REMARK    6  A    between atoms: C_11  and  C_9 
REMARK    7  A    between atoms: C_10  and  C_11 
ROOT
ATOM      1  N   UNL d   1      54.101  31.328  54.124  0.00  0.00    -0.165 NA
ATOM      2  C   UNL d   1      53.185  32.134  53.400  0.00  0.00     0.071 A 
ATOM      3  N   UNL d   1      54.174  32.741  54.233  0.00  0.00    -0.228 N 
ATOM      4  C   UNL d   1      53.467  31.400  53.606  0.00  0.00     0.105 A 
ATOM      5  C   UNL d   1      53.539  32.814  53.715  0.00  0.00     0.105 A 
ENDROOT
BRANCH   2   6
ATOM      6  C   UNL d   1      52.551  32.207  52.883  0.00  0.00     0.168 C 
BRANCH   6   7
ATOM      7  N   UNL d   1      52.219  32.954  52.726  0.00  0.00    -0.362 NA
ATOM      8  C   UNL d   1      51.881  33.706  52.571  0.00  0.00     0.329 C 
ATOM      9  O   UNL d   1      52.348  34.315  52.238  0.00  0.00    -0.251 OA
BRANCH   8  10
ATOM     10  C   UNL d   1      51.073  33.850  52.749  0.00  0.00     0.082 C 
BRANCH  10  11
ATOM     11  C   UNL d   1      50.646  34.434  52.318  0.00  0.00     0.076 C 
BRANCH  11  12
ATOM     12  C   UNL d   1      49.838  34.562  52.476  0.00  0.00     0.211 C 
ATOM     13  O   UNL d   1      49.279  34.419  51.871  0.00  0.00    -0.644 OA
ATOM     14  O   UNL d   1      49.604  34.827  53.226  0.00  0.00    -0.644 OA
ENDBRANCH  11  12
ENDBRANCH  10  11
ENDBRANCH   8  10
ENDBRANCH   6   7
ENDBRANCH   2   6
BRANCH   4  15
ATOM     15  C   UNL d   1      53.118  30.714  53.295  0.00  0.00     0.020 A 
ATOM     16  C   UNL d   1      52.578  30.302  53.735  0.00  0.00     0.008 A 
ATOM     17  C   UNL d   1      52.234  29.624  53.426  0.00  0.00     0.035 A 
ATOM     18 BR   UNL d   1      51.687  29.203  53.864  0.00  0.00    -0.049 Br
ATOM     19  C   UNL d   1      52.447  29.370  52.662  0.00  0.00     0.007 A 
ATOM     20  C   UNL d   1      52.994  29.789  52.218  0.00  0.00     0.001 A 
ATOM     21  C   UNL d   1      53.330  30.461  52.535  0.00  0.00     0.002 A 
ENDBRANCH   4  15
BRANCH   3  22
ATOM     22  C   UNL d   1      54.650  33.264  54.643  0.00  0.00     0.083 A 
ATOM     23  C   UNL d   1      55.297  33.596  54.260  0.00  0.00     0.019 A 
ATOM     24  C   UNL d   1      55.779  34.125  54.675  0.00  0.00     0.002 A 
ATOM     25  C   UNL d   1      55.611  34.313  55.460  0.00  0.00     0.000 A 
ATOM     26  C   UNL d   1      54.959  33.973  55.834  0.00  0.00     0.002 A 
ATOM     27  C   UNL d   1      54.482  33.449  55.422  0.00  0.00     0.019 A 
ENDBRANCH   3  22
TORSDOF 7
ENDMDL
