MODEL 1
REMARK VINA RESULT:      -2.6      0.000      0.000
REMARK  0 active torsions:
REMARK  status: ('A' for Active; 'I' for Inactive)
ROOT
ATOM      1  C   UNL d   1      32.689  22.338 -20.309  0.00  0.00     0.116 A 
ATOM      2  C   UNL d   1      32.186  22.304 -20.962  0.00  0.00     0.192 A 
ATOM      3  N   UNL d   1      32.563  20.949 -21.170  0.00  0.00    -0.145 NA
ATOM      4  C   UNL d   1      32.741  23.037 -19.889  0.00  0.00     0.285 A 
ATOM      5  N   UNL d   1      31.751  22.950 -21.186  0.00  0.00    -0.203 NA
ATOM      6  N   UNL d   1      32.124  21.612 -21.391  0.00  0.00    -0.128 NA
ATOM      7  N   UNL d   1      32.299  23.700 -20.113  0.00  0.00    -0.185 NA
ATOM      8  C   UNL d   1      31.805  23.650 -20.763  0.00  0.00     0.203 A 
ATOM      9  C   UNL d   1      33.059  20.987 -20.522  0.00  0.00     0.130 A 
ATOM     10  O   UNL d   1      33.239  23.087 -19.232  0.00  0.00    -0.265 OA
ENDROOT
TORSDOF 0
ENDMDL
MODEL 2
REMARK VINA RESULT:      -2.5      1.304      2.297
REMARK  0 active torsions:
REMARK  status: ('A' for Active; 'I' for Inactive)
ROOT
ATOM      1  C   UNL d   1      32.387  22.845 -20.286  0.00  0.00     0.116 A 
ATOM      2  C   UNL d   1      32.898  22.293 -19.945  0.00  0.00     0.192 A 
ATOM      3  N   UNL d   1      33.068  23.156 -18.828  0.00  0.00    -0.145 NA
ATOM      4  C   UNL d   1      32.055  22.675 -21.013  0.00  0.00     0.285 A 
ATOM      5  N   UNL d   1      33.070  21.597 -20.322  0.00  0.00    -0.203 NA
ATOM      6  N   UNL d   1      33.237  22.449 -19.219  0.00  0.00    -0.128 NA
ATOM      7  N   UNL d   1      32.227  21.966 -21.403  0.00  0.00    -0.185 NA
ATOM      8  C   UNL d   1      32.735  21.430 -21.051  0.00  0.00     0.203 A 
ATOM      9  C   UNL d   1      32.562  23.699 -19.169  0.00  0.00     0.130 A 
ATOM     10  O   UNL d   1      31.542  23.217 -21.367  0.00  0.00    -0.265 OA
ENDROOT
TORSDOF 0
ENDMDL
MODEL 3
REMARK VINA RESULT:      -2.2      7.425      7.805
REMARK  0 active torsions:
REMARK  status: ('A' for Active; 'I' for Inactive)
ROOT
ATOM      1  C   UNL d   1      29.025  16.662 -24.013  0.00  0.00     0.116 A 
ATOM      2  C   UNL d   1      29.841  16.550 -24.073  0.00  0.00     0.192 A 
ATOM      3  N   UNL d   1      29.895  17.562 -25.070  0.00  0.00    -0.145 NA
ATOM      4  C   UNL d   1      28.605  16.205 -23.481  0.00  0.00     0.285 A 
ATOM      5  N   UNL d   1      30.221  16.000 -23.615  0.00  0.00    -0.203 NA
ATOM      6  N   UNL d   1      30.274  16.999 -24.600  0.00  0.00    -0.128 NA
ATOM      7  N   UNL d   1      28.987  15.642 -23.011  0.00  0.00    -0.185 NA
ATOM      8  C   UNL d   1      29.796  15.544 -23.083  0.00  0.00     0.203 A 
ATOM      9  C   UNL d   1      29.089  17.669 -25.007  0.00  0.00     0.130 A 
ATOM     10  O   UNL d   1      27.788  16.305 -23.409  0.00  0.00    -0.265 OA
ENDROOT
TORSDOF 0
ENDMDL
MODEL 4
REMARK VINA RESULT:      -2.2      1.467      1.691
REMARK  0 active torsions:
REMARK  status: ('A' for Active; 'I' for Inactive)
ROOT
ATOM      1  C   UNL d   1      32.356  22.372 -21.498  0.00  0.00     0.116 A 
ATOM      2  C   UNL d   1      32.936  22.112 -22.024  0.00  0.00     0.192 A 
ATOM      3  N   UNL d   1      32.906  20.831 -21.408  0.00  0.00    -0.145 NA
ATOM      4  C   UNL d   1      32.092  23.144 -21.555  0.00  0.00     0.285 A 
ATOM      5  N   UNL d   1      33.240  22.609 -22.587  0.00  0.00    -0.203 NA
ATOM      6  N   UNL d   1      33.210  21.344 -21.979  0.00  0.00    -0.128 NA
ATOM      7  N   UNL d   1      32.399  23.655 -22.128  0.00  0.00    -0.185 NA
ATOM      8  C   UNL d   1      32.973  23.382 -22.642  0.00  0.00     0.203 A 
ATOM      9  C   UNL d   1      32.332  21.093 -20.890  0.00  0.00     0.130 A 
ATOM     10  O   UNL d   1      31.511  23.419 -21.036  0.00  0.00    -0.265 OA
ENDROOT
TORSDOF 0
ENDMDL
MODEL 5
REMARK VINA RESULT:      -2.2      7.280      7.647
REMARK  0 active torsions:
REMARK  status: ('A' for Active; 'I' for Inactive)
ROOT
ATOM      1  C   UNL d   1      29.839  16.582 -24.012  0.00  0.00     0.116 A 
ATOM      2  C   UNL d   1      29.834  15.982 -23.446  0.00  0.00     0.192 A 
ATOM      3  N   UNL d   1      31.254  15.935 -23.499  0.00  0.00    -0.145 NA
ATOM      4  C   UNL d   1      29.125  16.895 -24.258  0.00  0.00     0.285 A 
ATOM      5  N   UNL d   1      29.137  15.705 -23.138  0.00  0.00    -0.203 NA
ATOM      6  N   UNL d   1      30.539  15.660 -23.191  0.00  0.00    -0.128 NA
ATOM      7  N   UNL d   1      28.410  16.617 -23.947  0.00  0.00    -0.185 NA
ATOM      8  C   UNL d   1      28.423  16.021 -23.387  0.00  0.00     0.203 A 
ATOM      9  C   UNL d   1      31.253  16.529 -24.059  0.00  0.00     0.130 A 
ATOM     10  O   UNL d   1      29.113  17.497 -24.824  0.00  0.00    -0.265 OA
ENDROOT
TORSDOF 0
ENDMDL
MODEL 6
REMARK VINA RESULT:      -2.2      7.135      7.474
REMARK  0 active torsions:
REMARK  status: ('A' for Active; 'I' for Inactive)
ROOT
ATOM      1  C   UNL d   1      29.823  16.514 -23.941  0.00  0.00     0.116 A 
ATOM      2  C   UNL d   1      29.008  16.607 -23.849  0.00  0.00     0.192 A 
ATOM      3  N   UNL d   1      29.004  15.541 -22.908  0.00  0.00    -0.145 NA
ATOM      4  C   UNL d   1      30.217  17.007 -24.460  0.00  0.00     0.285 A 
ATOM      5  N   UNL d   1      28.604  17.174 -24.264  0.00  0.00    -0.203 NA
ATOM      6  N   UNL d   1      28.600  16.121 -23.334  0.00  0.00    -0.128 NA
ATOM      7  N   UNL d   1      29.810  17.588 -24.886  0.00  0.00    -0.185 NA
ATOM      8  C   UNL d   1      29.002  17.666 -24.783  0.00  0.00     0.203 A 
ATOM      9  C   UNL d   1      29.810  15.453 -23.003  0.00  0.00     0.130 A 
ATOM     10  O   UNL d   1      31.033  16.927 -24.564  0.00  0.00    -0.265 OA
ENDROOT
TORSDOF 0
ENDMDL
MODEL 7
REMARK VINA RESULT:      -2.2      1.472      2.190
REMARK  0 active torsions:
REMARK  status: ('A' for Active; 'I' for Inactive)
ROOT
ATOM      1  C   UNL d   1      32.467  22.477 -21.699  0.00  0.00     0.116 A 
ATOM      2  C   UNL d   1      32.855  21.831 -22.035  0.00  0.00     0.192 A 
ATOM      3  N   UNL d   1      33.241  22.649 -23.133  0.00  0.00    -0.145 NA
ATOM      4  C   UNL d   1      32.085  22.376 -20.983  0.00  0.00     0.285 A 
ATOM      5  N   UNL d   1      32.860  21.110 -21.667  0.00  0.00    -0.203 NA
ATOM      6  N   UNL d   1      33.241  21.918 -22.750  0.00  0.00    -0.128 NA
ATOM      7  N   UNL d   1      32.087  21.641 -20.602  0.00  0.00    -0.185 NA
ATOM      8  C   UNL d   1      32.477  21.012 -20.949  0.00  0.00     0.203 A 
ATOM      9  C   UNL d   1      32.855  23.285 -22.796  0.00  0.00     0.130 A 
ATOM     10  O   UNL d   1      31.691  23.012 -20.633  0.00  0.00    -0.265 OA
ENDROOT
TORSDOF 0
ENDMDL
MODEL 8
REMARK VINA RESULT:      -2.1      6.569      7.173
REMARK  0 active torsions:
REMARK  status: ('A' for Active; 'I' for Inactive)
ROOT
ATOM      1  C   UNL d   1      30.300  16.553 -24.004  0.00  0.00     0.116 A 
ATOM      2  C   UNL d   1      30.498  17.248 -24.403  0.00  0.00     0.192 A 
ATOM      3  N   UNL d   1      29.170  17.326 -24.904  0.00  0.00    -0.145 NA
ATOM      4  C   UNL d   1      30.874  16.179 -23.558  0.00  0.00     0.285 A 
ATOM      5  N   UNL d   1      31.246  17.556 -24.357  0.00  0.00    -0.203 NA
ATOM      6  N   UNL d   1      29.934  17.632 -24.851  0.00  0.00    -0.128 NA
ATOM      7  N   UNL d   1      31.640  16.489 -23.508  0.00  0.00    -0.185 NA
ATOM      8  C   UNL d   1      31.819  17.178 -23.910  0.00  0.00     0.203 A 
ATOM      9  C   UNL d   1      28.978  16.638 -24.507  0.00  0.00     0.130 A 
ATOM     10  O   UNL d   1      30.692  15.483 -23.153  0.00  0.00    -0.265 OA
ENDROOT
TORSDOF 0
ENDMDL
MODEL 9
REMARK VINA RESULT:      -2.0      6.112      7.025
REMARK  0 active torsions:
REMARK  status: ('A' for Active; 'I' for Inactive)
ROOT
ATOM      1  C   UNL d   1      31.032  17.156 -24.135  0.00  0.00     0.116 A 
ATOM      2  C   UNL d   1      31.435  16.634 -23.640  0.00  0.00     0.192 A 
ATOM      3  N   UNL d   1      32.557  17.508 -23.649  0.00  0.00    -0.145 NA
ATOM      4  C   UNL d   1      30.272  16.967 -24.370  0.00  0.00     0.285 A 
ATOM      5  N   UNL d   1      31.088  15.946 -23.388  0.00  0.00    -0.203 NA
ATOM      6  N   UNL d   1      32.195  16.810 -23.398  0.00  0.00    -0.128 NA
ATOM      7  N   UNL d   1      29.912  16.266 -24.116  0.00  0.00    -0.185 NA
ATOM      8  C   UNL d   1      30.326  15.760 -23.625  0.00  0.00     0.203 A 
ATOM      9  C   UNL d   1      32.154  18.021 -24.139  0.00  0.00     0.130 A 
ATOM     10  O   UNL d   1      29.855  17.479 -24.866  0.00  0.00    -0.265 OA
ENDROOT
TORSDOF 0
ENDMDL
