MODEL 1
REMARK VINA RESULT:      -2.7      0.000      0.000
REMARK  6 active torsions:
REMARK  status: ('A' for Active; 'I' for Inactive)
REMARK    1  A    between atoms: C_10  and  C_3 
REMARK    2  A    between atoms: N_12  and  C_4 
REMARK    3  A    between atoms: N_11  and  C_14 
REMARK    4  A    between atoms: C_19  and  N_12 
REMARK    5  A    between atoms: C_14  and  C_15 
REMARK    6  A    between atoms: C_15  and  C_19 
ROOT
ATOM      1  C   UNL d   1      30.488  16.961 -24.091  0.00  0.00     0.167 A 
ATOM      2  N   UNL d   1      30.939  17.631 -24.257  0.00  0.00    -0.195 N 
ATOM      3  C   UNL d   1      29.702  17.145 -24.239  0.00  0.00     0.057 A 
ATOM      4  C   UNL d   1      31.756  17.612 -24.159  0.00  0.00     0.167 A 
ATOM      5  N   UNL d   1      30.428  18.222 -24.507  0.00  0.00    -0.161 NA
ATOM      6  N   UNL d   1      30.853  16.272 -23.826  0.00  0.00    -0.227 NA
ATOM      7  C   UNL d   1      32.123  16.918 -23.892  0.00  0.00     0.058 A 
ATOM      8  C   UNL d   1      29.672  17.928 -24.497  0.00  0.00     0.124 A 
ATOM      9  C   UNL d   1      31.677  16.255 -23.728  0.00  0.00     0.086 A 
ATOM     10  C   UNL d   1      32.064  15.575 -23.463  0.00  0.00     0.021 C 
ENDROOT
BRANCH   4  11
ATOM     11  N   UNL d   1      32.208  18.282 -24.325  0.00  0.00    -0.225 NA
BRANCH  11  12
ATOM     12  C   UNL d   1      32.917  18.412 -23.926  0.00  0.00     0.102 C 
BRANCH  12  13
ATOM     13  C   UNL d   1      33.118  19.181 -23.671  0.00  0.00     0.040 C 
BRANCH  13  14
ATOM     14  C   UNL d   1      33.207  19.334 -22.869  0.00  0.00     0.082 C 
BRANCH  14  15
ATOM     15  N   UNL d   1      33.101  20.104 -22.582  0.00  0.00    -0.299 N 
ATOM     16  C   UNL d   1      32.855  20.228 -21.800  0.00  0.00     0.107 A 
ATOM     17  C   UNL d   1      32.749  20.995 -21.515  0.00  0.00     0.142 A 
ATOM     18  O   UNL d   1      32.889  21.642 -22.011  0.00  0.00    -0.300 OA
ATOM     19  C   UNL d   1      33.133  21.521 -22.788  0.00  0.00     0.142 A 
ATOM     20  C   UNL d   1      33.238  20.754 -23.073  0.00  0.00     0.107 A 
ENDBRANCH  14  15
ENDBRANCH  13  14
ENDBRANCH  12  13
ENDBRANCH  11  12
ENDBRANCH   4  11
BRANCH   3  21
ATOM     21  C   UNL d   1      29.108  16.580 -24.123  0.00  0.00     0.004 A 
ATOM     22  C   UNL d   1      28.728  16.529 -23.402  0.00  0.00     0.000 A 
ATOM     23  C   UNL d   1      28.139  15.971 -23.279  0.00  0.00     0.000 A 
ATOM     24  C   UNL d   1      27.930  15.455 -23.900  0.00  0.00     0.000 A 
ATOM     25  C   UNL d   1      28.320  15.515 -24.625  0.00  0.00     0.000 A 
ATOM     26  C   UNL d   1      28.903  16.071 -24.735  0.00  0.00     0.000 A 
ENDBRANCH   3  21
TORSDOF 6
ENDMDL
MODEL 2
REMARK VINA RESULT:      -0.0      1.130      2.131
REMARK  6 active torsions:
REMARK  status: ('A' for Active; 'I' for Inactive)
REMARK    1  A    between atoms: C_10  and  C_3 
REMARK    2  A    between atoms: N_12  and  C_4 
REMARK    3  A    between atoms: N_11  and  C_14 
REMARK    4  A    between atoms: C_19  and  N_12 
REMARK    5  A    between atoms: C_14  and  C_15 
REMARK    6  A    between atoms: C_15  and  C_19 
ROOT
ATOM      1  C   UNL d   1      29.104  16.659 -24.220  0.00  0.00     0.167 A 
ATOM      2  N   UNL d   1      29.923  16.631 -24.323  0.00  0.00    -0.195 N 
ATOM      3  C   UNL d   1      28.874  15.961 -23.855  0.00  0.00     0.057 A 
ATOM      4  C   UNL d   1      30.314  17.262 -24.679  0.00  0.00     0.167 A 
ATOM      5  N   UNL d   1      30.190  15.917 -24.021  0.00  0.00    -0.161 NA
ATOM      6  N   UNL d   1      28.678  17.317 -24.473  0.00  0.00    -0.227 NA
ATOM      7  C   UNL d   1      29.884  17.924 -24.933  0.00  0.00     0.058 A 
ATOM      8  C   UNL d   1      29.551  15.506 -23.734  0.00  0.00     0.124 A 
ATOM      9  C   UNL d   1      29.075  17.951 -24.831  0.00  0.00     0.086 A 
ATOM     10  C   UNL d   1      28.667  18.621 -25.093  0.00  0.00     0.021 C 
ENDROOT
BRANCH   4  11
ATOM     11  N   UNL d   1      31.132  17.235 -24.782  0.00  0.00    -0.225 NA
BRANCH  11  12
ATOM     12  C   UNL d   1      31.585  17.915 -24.674  0.00  0.00     0.102 C 
BRANCH  12  13
ATOM     13  C   UNL d   1      32.309  17.874 -24.261  0.00  0.00     0.040 C 
BRANCH  13  14
ATOM     14  C   UNL d   1      32.763  18.552 -24.167  0.00  0.00     0.082 C 
BRANCH  14  15
ATOM     15  N   UNL d   1      32.915  18.843 -23.405  0.00  0.00    -0.299 N 
ATOM     16  C   UNL d   1      32.944  19.661 -23.270  0.00  0.00     0.107 A 
ATOM     17  C   UNL d   1      33.094  19.950 -22.512  0.00  0.00     0.142 A 
ATOM     18  O   UNL d   1      33.217  19.424 -21.886  0.00  0.00    -0.300 OA
ATOM     19  C   UNL d   1      33.189  18.612 -22.019  0.00  0.00     0.142 A 
ATOM     20  C   UNL d   1      33.038  18.322 -22.776  0.00  0.00     0.107 A 
ENDBRANCH  14  15
ENDBRANCH  13  14
ENDBRANCH  12  13
ENDBRANCH  11  12
ENDBRANCH   4  11
BRANCH   3  21
ATOM     21  C   UNL d   1      28.078  15.823 -23.676  0.00  0.00     0.004 A 
ATOM     22  C   UNL d   1      27.809  15.915 -22.910  0.00  0.00     0.000 A 
ATOM     23  C   UNL d   1      27.021  15.780 -22.726  0.00  0.00     0.000 A 
ATOM     24  C   UNL d   1      26.495  15.546 -23.329  0.00  0.00     0.000 A 
ATOM     25  C   UNL d   1      26.777  15.455 -24.100  0.00  0.00     0.000 A 
ATOM     26  C   UNL d   1      27.560  15.592 -24.271  0.00  0.00     0.000 A 
ENDBRANCH   3  21
TORSDOF 6
ENDMDL
