MODEL 1
REMARK VINA RESULT:      31.9      0.000      0.000
REMARK  5 active torsions:
REMARK  status: ('A' for Active; 'I' for Inactive)
REMARK    1  A    between atoms: C_10  and  N_1 
REMARK    2  A    between atoms: C_7  and  C_4 
REMARK    3  A    between atoms: O_16  and  C_9 
REMARK    4  A    between atoms: C_15  and  C_10 
REMARK    5  A    between atoms: O_17  and  C_11 
ROOT
ATOM      1  N   UNL d   1      14.527  13.245  -0.949  0.00  0.00    -0.193 N 
ATOM      2  N   UNL d   1      14.144  13.202  -1.680  0.00  0.00    -0.163 NA
ATOM      3  C   UNL d   1      15.062  12.661  -0.746  0.00  0.00     0.281 A 
ATOM      4  C   UNL d   1      14.303  12.577  -2.194  0.00  0.00     0.102 A 
ATOM      5  C   UNL d   1      15.229  12.037  -1.246  0.00  0.00     0.064 A 
ATOM      6  C   UNL d   1      14.846  11.994  -1.977  0.00  0.00     0.026 A 
ATOM      7  O   UNL d   1      15.445  12.704  -0.016  0.00  0.00    -0.265 OA
ENDROOT
BRANCH   4   8
ATOM      8  C   UNL d   1      13.926  12.534  -2.914  0.00  0.00     0.021 A 
ATOM      9  C   UNL d   1      13.915  13.197  -3.424  0.00  0.00     0.028 A 
ATOM     10  C   UNL d   1      13.534  13.147  -4.146  0.00  0.00     0.116 A 
ATOM     11  C   UNL d   1      13.159  12.449  -4.377  0.00  0.00     0.116 A 
ATOM     12  C   UNL d   1      13.166  11.782  -3.869  0.00  0.00     0.026 A 
ATOM     13  C   UNL d   1      13.551  11.836  -3.144  0.00  0.00     0.004 A 
BRANCH  10  14
ATOM     14  O   UNL d   1      13.524  13.798  -4.647  0.00  0.00    -0.326 OA
ATOM     15  C   UNL d   1      13.741  14.542  -4.371  0.00  0.00     0.181 C 
ENDBRANCH  10  14
BRANCH  11  16
ATOM     16  O   UNL d   1      12.772  12.394  -5.105  0.00  0.00    -0.326 OA
ATOM     17  C   UNL d   1      13.100  11.928  -5.702  0.00  0.00     0.181 C 
ENDBRANCH  11  16
ENDBRANCH   4   8
BRANCH   1  18
ATOM     18  C   UNL d   1      14.364  13.869  -0.442  0.00  0.00     0.104 C 
BRANCH  18  19
ATOM     19  C   UNL d   1      14.861  14.519  -0.428  0.00  0.00     0.019 A 
ATOM     20  C   UNL d   1      14.557  15.276  -0.553  0.00  0.00     0.002 A 
ATOM     21  C   UNL d   1      15.057  15.928  -0.539  0.00  0.00     0.000 A 
ATOM     22  C   UNL d   1      15.869  15.813  -0.399  0.00  0.00     0.000 A 
ATOM     23  C   UNL d   1      16.171  15.059  -0.276  0.00  0.00     0.000 A 
ATOM     24  C   UNL d   1      15.661  14.408  -0.291  0.00  0.00     0.002 A 
ENDBRANCH  18  19
ENDBRANCH   1  18
TORSDOF 5
ENDMDL
