MODEL 1
REMARK VINA RESULT:      -9.4      0.000      0.000
REMARK  5 active torsions:
REMARK  status: ('A' for Active; 'I' for Inactive)
REMARK    1  A    between atoms: C_12  and  N_3 
REMARK    2  A    between atoms: C_11  and  C_5 
REMARK       I    between atoms: N_16  and  C_11 
REMARK    3  A    between atoms: C_15  and  C_12 
REMARK    4  A    between atoms: C_26  and  N_16 
REMARK    5  A    between atoms: C_27  and  C_26 
ROOT
ATOM      1  C   UNL d   1      53.123  32.488  53.883  0.00  0.00     0.155 A 
ATOM      2  C   UNL d   1      52.820  32.411  53.120  0.00  0.00     0.091 A 
ATOM      3  N   UNL d   1      53.237  33.225  54.217  0.00  0.00    -0.272 N 
ATOM      4  N   UNL d   1      53.316  31.806  54.315  0.00  0.00    -0.210 NA
ATOM      5  C   UNL d   1      52.740  33.838  53.021  0.00  0.00     0.094 A 
ATOM      6  C   UNL d   1      53.044  33.908  53.785  0.00  0.00     0.175 A 
ATOM      7  C   UNL d   1      52.707  31.667  52.787  0.00  0.00     0.269 A 
ATOM      8  N   UNL d   1      52.899  30.991  53.218  0.00  0.00    -0.258 N 
ATOM      9  C   UNL d   1      53.203  31.061  53.981  0.00  0.00     0.152 A 
ATOM     10  C   UNL d   1      52.628  33.086  52.689  0.00  0.00     0.016 A 
ATOM     11  N   UNL d   1      53.160  34.657  54.125  0.00  0.00    -0.128 N 
ATOM     12  C   UNL d   1      52.786  30.247  52.885  0.00  0.00     0.084 A 
ATOM     13  O   UNL d   1      52.403  31.597  52.024  0.00  0.00    -0.266 OA
ATOM     14  C   UNL d   1      53.395  30.387  54.413  0.00  0.00     0.038 A 
ATOM     15  C   UNL d   1      52.978  29.568  53.316  0.00  0.00     0.019 A 
ATOM     16  C   UNL d   1      53.282  29.637  54.080  0.00  0.00     0.005 A 
ENDROOT
BRANCH   5  17
ATOM     17  C   UNL d   1      52.548  34.517  52.590  0.00  0.00     0.282 C 
ATOM     18  N   UNL d   1      51.760  34.723  52.473  0.00  0.00    -0.206 NA
ATOM     19  O   UNL d   1      53.143  34.995  52.275  0.00  0.00    -0.265 OA
BRANCH  18  20
ATOM     20  C   UNL d   1      51.159  34.251  52.784  0.00  0.00     0.102 C 
BRANCH  20  21
ATOM     21  C   UNL d   1      50.365  34.446  52.664  0.00  0.00     0.019 A 
ATOM     22  C   UNL d   1      50.011  34.253  51.940  0.00  0.00     0.002 A 
ATOM     23  C   UNL d   1      49.214  34.445  51.808  0.00  0.00     0.000 A 
ATOM     24  C   UNL d   1      48.776  34.829  52.404  0.00  0.00     0.000 A 
ATOM     25  C   UNL d   1      49.141  35.017  53.126  0.00  0.00     0.000 A 
ATOM     26  C   UNL d   1      49.931  34.826  53.254  0.00  0.00     0.002 A 
ENDBRANCH  20  21
ENDBRANCH  18  20
ENDBRANCH   5  17
BRANCH   3  27
ATOM     27  C   UNL d   1      53.541  33.295  54.980  0.00  0.00     0.107 C 
BRANCH  27  28
ATOM     28  C   UNL d   1      54.321  33.529  55.093  0.00  0.00     0.118 A 
ATOM     29  O   UNL d   1      54.528  33.988  55.753  0.00  0.00    -0.304 OA
ATOM     30  C   UNL d   1      55.346  34.137  55.719  0.00  0.00     0.123 A 
ATOM     31  C   UNL d   1      55.632  33.773  55.046  0.00  0.00     0.029 A 
ATOM     32  C   UNL d   1      55.011  33.397  54.655  0.00  0.00     0.028 A 
ENDBRANCH  27  28
ENDBRANCH   3  27
TORSDOF 5
ENDMDL
MODEL 2
REMARK VINA RESULT:      -7.8      1.210      4.739
REMARK  5 active torsions:
REMARK  status: ('A' for Active; 'I' for Inactive)
REMARK    1  A    between atoms: C_12  and  N_3 
REMARK    2  A    between atoms: C_11  and  C_5 
REMARK       I    between atoms: N_16  and  C_11 
REMARK    3  A    between atoms: C_15  and  C_12 
REMARK    4  A    between atoms: C_26  and  N_16 
REMARK    5  A    between atoms: C_27  and  C_26 
ROOT
ATOM      1  C   UNL d   1      52.934  33.057  53.920  0.00  0.00     0.155 A 
ATOM      2  C   UNL d   1      53.634  32.626  53.848  0.00  0.00     0.091 A 
ATOM      3  N   UNL d   1      52.234  32.777  53.605  0.00  0.00    -0.272 N 
ATOM      4  N   UNL d   1      52.945  33.786  54.318  0.00  0.00    -0.210 NA
ATOM      5  C   UNL d   1      52.919  31.612  53.132  0.00  0.00     0.094 A 
ATOM      6  C   UNL d   1      52.223  32.048  53.208  0.00  0.00     0.175 A 
ATOM      7  C   UNL d   1      54.336  32.912  54.165  0.00  0.00     0.269 A 
ATOM      8  N   UNL d   1      54.345  33.635  54.560  0.00  0.00    -0.258 N 
ATOM      9  C   UNL d   1      53.649  34.072  54.636  0.00  0.00     0.152 A 
ATOM     10  C   UNL d   1      53.626  31.903  53.453  0.00  0.00     0.016 A 
ATOM     11  N   UNL d   1      51.510  31.763  52.888  0.00  0.00    -0.128 N 
ATOM     12  C   UNL d   1      55.047  33.922  54.878  0.00  0.00     0.084 A 
ATOM     13  O   UNL d   1      55.032  32.476  54.089  0.00  0.00    -0.266 OA
ATOM     14  C   UNL d   1      53.656  34.795  55.030  0.00  0.00     0.038 A 
ATOM     15  C   UNL d   1      55.058  34.647  55.274  0.00  0.00     0.019 A 
ATOM     16  C   UNL d   1      54.362  35.084  55.350  0.00  0.00     0.005 A 
ENDROOT
BRANCH   5  17
ATOM     17  C   UNL d   1      52.909  30.886  52.735  0.00  0.00     0.282 C 
ATOM     18  N   UNL d   1      52.972  30.183  53.159  0.00  0.00    -0.206 NA
ATOM     19  O   UNL d   1      52.835  30.858  51.914  0.00  0.00    -0.265 OA
BRANCH  18  20
ATOM     20  C   UNL d   1      53.046  30.202  53.981  0.00  0.00     0.102 C 
BRANCH  20  21
ATOM     21  C   UNL d   1      53.219  29.512  54.404  0.00  0.00     0.019 A 
ATOM     22  C   UNL d   1      53.025  29.478  55.208  0.00  0.00     0.002 A 
ATOM     23  C   UNL d   1      53.194  28.790  55.643  0.00  0.00     0.000 A 
ATOM     24  C   UNL d   1      53.556  28.141  55.266  0.00  0.00     0.000 A 
ATOM     25  C   UNL d   1      53.746  28.186  54.459  0.00  0.00     0.000 A 
ATOM     26  C   UNL d   1      53.577  28.869  54.031  0.00  0.00     0.002 A 
ENDBRANCH  20  21
ENDBRANCH  18  20
ENDBRANCH   5  17
BRANCH   3  27
ATOM     27  C   UNL d   1      51.538  33.213  53.682  0.00  0.00     0.107 C 
BRANCH  27  28
ATOM     28  C   UNL d   1      51.254  33.650  53.045  0.00  0.00     0.118 A 
ATOM     29  O   UNL d   1      50.440  33.794  52.967  0.00  0.00    -0.304 OA
ATOM     30  C   UNL d   1      50.322  34.245  52.278  0.00  0.00     0.123 A 
ATOM     31  C   UNL d   1      51.055  34.374  51.942  0.00  0.00     0.029 A 
ATOM     32  C   UNL d   1      51.634  34.013  52.405  0.00  0.00     0.028 A 
ENDBRANCH  27  28
ENDBRANCH   3  27
TORSDOF 5
ENDMDL
MODEL 3
REMARK VINA RESULT:      -7.0      1.285      4.052
REMARK  5 active torsions:
REMARK  status: ('A' for Active; 'I' for Inactive)
REMARK    1  A    between atoms: C_12  and  N_3 
REMARK    2  A    between atoms: C_11  and  C_5 
REMARK       I    between atoms: N_16  and  C_11 
REMARK    3  A    between atoms: C_15  and  C_12 
REMARK    4  A    between atoms: C_26  and  N_16 
REMARK    5  A    between atoms: C_27  and  C_26 
ROOT
ATOM      1  C   UNL d   1      52.181  33.888  53.613  0.00  0.00     0.155 A 
ATOM      2  C   UNL d   1      52.238  33.376  52.968  0.00  0.00     0.091 A 
ATOM      3  N   UNL d   1      52.768  33.916  54.180  0.00  0.00    -0.272 N 
ATOM      4  N   UNL d   1      51.515  34.379  53.683  0.00  0.00    -0.210 NA
ATOM      5  C   UNL d   1      53.498  32.911  53.468  0.00  0.00     0.094 A 
ATOM      6  C   UNL d   1      53.434  33.425  54.109  0.00  0.00     0.175 A 
ATOM      7  C   UNL d   1      51.644  33.350  52.400  0.00  0.00     0.269 A 
ATOM      8  N   UNL d   1      50.985  33.839  52.472  0.00  0.00    -0.258 N 
ATOM      9  C   UNL d   1      50.921  34.353  53.113  0.00  0.00     0.152 A 
ATOM     10  C   UNL d   1      52.897  32.888  52.896  0.00  0.00     0.016 A 
ATOM     11  N   UNL d   1      54.031  33.455  54.687  0.00  0.00    -0.128 N 
ATOM     12  C   UNL d   1      50.391  33.813  51.903  0.00  0.00     0.084 A 
ATOM     13  O   UNL d   1      51.709  32.836  51.758  0.00  0.00    -0.266 OA
ATOM     14  C   UNL d   1      50.262  34.842  53.187  0.00  0.00     0.038 A 
ATOM     15  C   UNL d   1      49.729  34.302  51.974  0.00  0.00     0.019 A 
ATOM     16  C   UNL d   1      49.664  34.817  52.615  0.00  0.00     0.005 A 
ENDROOT
BRANCH   5  17
ATOM     17  C   UNL d   1      54.161  32.421  53.397  0.00  0.00     0.282 C 
ATOM     18  N   UNL d   1      54.095  31.614  53.544  0.00  0.00    -0.206 NA
ATOM     19  O   UNL d   1      54.892  32.735  53.179  0.00  0.00    -0.265 OA
BRANCH  18  20
ATOM     20  C   UNL d   1      53.368  31.292  53.762  0.00  0.00     0.102 C 
BRANCH  20  21
ATOM     21  C   UNL d   1      53.288  30.478  53.890  0.00  0.00     0.019 A 
ATOM     22  C   UNL d   1      53.424  30.178  54.649  0.00  0.00     0.002 A 
ATOM     23  C   UNL d   1      53.347  29.362  54.789  0.00  0.00     0.000 A 
ATOM     24  C   UNL d   1      53.135  28.854  54.164  0.00  0.00     0.000 A 
ATOM     25  C   UNL d   1      53.001  29.166  53.406  0.00  0.00     0.000 A 
ATOM     26  C   UNL d   1      53.078  29.975  53.271  0.00  0.00     0.002 A 
ENDBRANCH  20  21
ENDBRANCH  18  20
ENDBRANCH   5  17
BRANCH   3  27
ATOM     27  C   UNL d   1      52.704  34.431  54.822  0.00  0.00     0.107 C 
BRANCH  27  28
ATOM     28  C   UNL d   1      53.006  35.194  54.770  0.00  0.00     0.118 A 
ATOM     29  O   UNL d   1      52.798  35.765  55.336  0.00  0.00    -0.304 OA
ATOM     30  C   UNL d   1      53.184  36.476  55.141  0.00  0.00     0.123 A 
ATOM     31  C   UNL d   1      53.621  36.338  54.464  0.00  0.00     0.029 A 
ATOM     32  C   UNL d   1      53.518  35.554  54.229  0.00  0.00     0.028 A 
ENDBRANCH  27  28
ENDBRANCH   3  27
TORSDOF 5
ENDMDL
MODEL 4
REMARK VINA RESULT:      -6.6      1.076      3.019
REMARK  5 active torsions:
REMARK  status: ('A' for Active; 'I' for Inactive)
REMARK    1  A    between atoms: C_12  and  N_3 
REMARK    2  A    between atoms: C_11  and  C_5 
REMARK       I    between atoms: N_16  and  C_11 
REMARK    3  A    between atoms: C_15  and  C_12 
REMARK    4  A    between atoms: C_26  and  N_16 
REMARK    5  A    between atoms: C_27  and  C_26 
ROOT
ATOM      1  C   UNL d   1      52.570  33.236  53.714  0.00  0.00     0.155 A 
ATOM      2  C   UNL d   1      52.667  34.022  53.483  0.00  0.00     0.091 A 
ATOM      3  N   UNL d   1      52.018  32.756  53.350  0.00  0.00    -0.272 N 
ATOM      4  N   UNL d   1      53.041  32.932  54.326  0.00  0.00    -0.210 NA
ATOM      5  C   UNL d   1      51.638  33.845  52.501  0.00  0.00     0.094 A 
ATOM      6  C   UNL d   1      51.547  33.060  52.738  0.00  0.00     0.175 A 
ATOM      7  C   UNL d   1      53.224  34.502  53.852  0.00  0.00     0.269 A 
ATOM      8  N   UNL d   1      53.690  34.197  54.459  0.00  0.00    -0.258 N 
ATOM      9  C   UNL d   1      53.599  33.412  54.696  0.00  0.00     0.152 A 
ATOM     10  C   UNL d   1      52.201  34.326  52.876  0.00  0.00     0.016 A 
ATOM     11  N   UNL d   1      50.986  32.571  52.368  0.00  0.00    -0.128 N 
ATOM     12  C   UNL d   1      54.247  34.677  54.828  0.00  0.00     0.084 A 
ATOM     13  O   UNL d   1      53.315  35.286  53.615  0.00  0.00    -0.266 OA
ATOM     14  C   UNL d   1      54.065  33.107  55.302  0.00  0.00     0.038 A 
ATOM     15  C   UNL d   1      54.716  34.374  55.438  0.00  0.00     0.019 A 
ATOM     16  C   UNL d   1      54.625  33.589  55.675  0.00  0.00     0.005 A 
ENDROOT
BRANCH   5  17
ATOM     17  C   UNL d   1      51.169  34.149  51.892  0.00  0.00     0.282 C 
ATOM     18  N   UNL d   1      50.463  34.534  52.067  0.00  0.00    -0.206 NA
ATOM     19  O   UNL d   1      51.402  34.069  51.104  0.00  0.00    -0.265 OA
BRANCH  18  20
ATOM     20  C   UNL d   1      50.222  34.618  52.852  0.00  0.00     0.102 C 
BRANCH  20  21
ATOM     21  C   UNL d   1      49.535  35.038  53.039  0.00  0.00     0.019 A 
ATOM     22  C   UNL d   1      49.460  35.366  53.795  0.00  0.00     0.002 A 
ATOM     23  C   UNL d   1      48.774  35.790  53.994  0.00  0.00     0.000 A 
ATOM     24  C   UNL d   1      48.167  35.882  53.431  0.00  0.00     0.000 A 
ATOM     25  C   UNL d   1      48.252  35.549  52.675  0.00  0.00     0.000 A 
ATOM     26  C   UNL d   1      48.934  35.129  52.481  0.00  0.00     0.002 A 
ENDBRANCH  20  21
ENDBRANCH  18  20
ENDBRANCH   5  17
BRANCH   3  27
ATOM     27  C   UNL d   1      51.927  31.971  53.587  0.00  0.00     0.107 C 
BRANCH  27  28
ATOM     28  C   UNL d   1      52.354  31.375  53.213  0.00  0.00     0.118 A 
ATOM     29  O   UNL d   1      52.338  30.600  53.510  0.00  0.00    -0.304 OA
ATOM     30  C   UNL d   1      52.816  30.126  53.022  0.00  0.00     0.123 A 
ATOM     31  C   UNL d   1      53.119  30.607  52.435  0.00  0.00     0.029 A 
ATOM     32  C   UNL d   1      52.841  31.376  52.544  0.00  0.00     0.028 A 
ENDBRANCH  27  28
ENDBRANCH   3  27
TORSDOF 5
ENDMDL
