MODEL 1
REMARK VINA RESULT:      -5.9      0.000      0.000
REMARK  4 active torsions:
REMARK  status: ('A' for Active; 'I' for Inactive)
REMARK       I    between atoms: C_6  and  N_7 
REMARK    1  A    between atoms: C_8  and  C_6 
REMARK    2  A    between atoms: N_7  and  C_14 
REMARK    3  A    between atoms: C_14  and  C_13 
REMARK    4  A    between atoms: O_17  and  C_15 
ROOT
ATOM      1  C   UNL d   1      58.474  -0.068  29.749  0.00  0.00     0.279 C 
ATOM      2  N   UNL d   1      58.051  -0.296  30.416  0.00  0.00    -0.206 NA
ATOM      3  O   UNL d   1      58.300   0.649  29.379  0.00  0.00    -0.265 OA
ENDROOT
BRANCH   2   4
ATOM      4  C   UNL d   1      57.455   0.184  30.718  0.00  0.00     0.102 C 
BRANCH   4   5
ATOM      5  C   UNL d   1      57.013  -0.061  31.371  0.00  0.00     0.019 A 
ATOM      6  C   UNL d   1      56.969  -0.861  31.567  0.00  0.00     0.003 A 
ATOM      7  C   UNL d   1      56.523  -1.100  32.225  0.00  0.00     0.019 A 
ATOM      8  C   UNL d   1      56.125  -0.542  32.681  0.00  0.00     0.081 A 
ATOM      9  C   UNL d   1      56.168   0.259  32.484  0.00  0.00     0.019 A 
ATOM     10  N   UNL d   1      55.652  -0.622  33.349  0.00  0.00    -0.246 NA
ATOM     11  C   UNL d   1      56.610   0.500  31.832  0.00  0.00     0.003 A 
ATOM     12  C   UNL d   1      55.718   0.676  33.036  0.00  0.00     0.021 A 
ATOM     13  C   UNL d   1      55.400   0.134  33.568  0.00  0.00     0.082 A 
ATOM     14  C   UNL d   1      54.914   0.313  34.211  0.00  0.00     0.021 C 
ENDBRANCH   4   5
ENDBRANCH   2   4
BRANCH   1  15
ATOM     15  C   UNL d   1      59.069  -0.555  29.454  0.00  0.00     0.060 A 
ATOM     16  C   UNL d   1      58.876  -1.276  29.103  0.00  0.00     0.029 A 
ATOM     17  C   UNL d   1      59.470  -1.760  28.809  0.00  0.00     0.094 A 
ATOM     18  C   UNL d   1      60.272  -1.521  28.865  0.00  0.00     0.024 A 
ATOM     19  C   UNL d   1      60.465  -0.799  29.216  0.00  0.00     0.002 A 
ATOM     20  C   UNL d   1      59.859  -0.309  29.514  0.00  0.00     0.005 A 
BRANCH  17  21
ATOM     21  O   UNL d   1      59.284  -2.486  28.456  0.00  0.00    -0.328 OA
ATOM     22  C   UNL d   1      59.441  -3.196  28.849  0.00  0.00     0.181 C 
ENDBRANCH  17  21
ENDBRANCH   1  15
TORSDOF 4
ENDMDL
MODEL 2
REMARK VINA RESULT:      -5.1      1.757      5.257
REMARK  4 active torsions:
REMARK  status: ('A' for Active; 'I' for Inactive)
REMARK       I    between atoms: C_6  and  N_7 
REMARK    1  A    between atoms: C_8  and  C_6 
REMARK    2  A    between atoms: N_7  and  C_14 
REMARK    3  A    between atoms: C_14  and  C_13 
REMARK    4  A    between atoms: O_17  and  C_15 
ROOT
ATOM      1  C   UNL d   1      56.703  -0.628  32.153  0.00  0.00     0.279 C 
ATOM      2  N   UNL d   1      57.102  -0.251  31.540  0.00  0.00    -0.206 NA
ATOM      3  O   UNL d   1      56.566  -1.440  32.114  0.00  0.00    -0.265 OA
ENDROOT
BRANCH   2   4
ATOM      4  C   UNL d   1      57.366  -0.678  30.888  0.00  0.00     0.102 C 
BRANCH   4   5
ATOM      5  C   UNL d   1      57.871  -0.327  30.338  0.00  0.00     0.019 A 
ATOM      6  C   UNL d   1      57.627   0.335  29.910  0.00  0.00     0.003 A 
ATOM      7  C   UNL d   1      58.141   0.682  29.359  0.00  0.00     0.019 A 
ATOM      8  C   UNL d   1      58.893   0.368  29.238  0.00  0.00     0.081 A 
ATOM      9  C   UNL d   1      59.137  -0.294  29.666  0.00  0.00     0.019 A 
ATOM     10  N   UNL d   1      59.503   0.596  28.737  0.00  0.00    -0.246 NA
ATOM     11  C   UNL d   1      58.630  -0.642  30.214  0.00  0.00     0.003 A 
ATOM     12  C   UNL d   1      59.906  -0.476  29.426  0.00  0.00     0.021 A 
ATOM     13  C   UNL d   1      60.131   0.072  28.855  0.00  0.00     0.082 A 
ATOM     14  C   UNL d   1      60.859   0.095  28.465  0.00  0.00     0.021 C 
ENDBRANCH   4   5
ENDBRANCH   2   4
BRANCH   1  15
ATOM     15  C   UNL d   1      56.443  -0.193  32.802  0.00  0.00     0.060 A 
ATOM     16  C   UNL d   1      55.635  -0.121  32.953  0.00  0.00     0.029 A 
ATOM     17  C   UNL d   1      55.377   0.313  33.601  0.00  0.00     0.094 A 
ATOM     18  C   UNL d   1      55.934   0.682  34.107  0.00  0.00     0.024 A 
ATOM     19  C   UNL d   1      56.742   0.610  33.955  0.00  0.00     0.002 A 
ATOM     20  C   UNL d   1      57.001   0.169  33.297  0.00  0.00     0.005 A 
BRANCH  17  21
ATOM     21  O   UNL d   1      54.567   0.389  33.759  0.00  0.00    -0.328 OA
ATOM     22  C   UNL d   1      54.306   0.608  34.513  0.00  0.00     0.181 C 
ENDBRANCH  17  21
ENDBRANCH   1  15
TORSDOF 4
ENDMDL
