MODEL 1
REMARK VINA RESULT:      53.7      0.000      0.000
REMARK  4 active torsions:
REMARK  status: ('A' for Active; 'I' for Inactive)
REMARK    1  A    between atoms: C_11  and  C_3 
REMARK    2  A    between atoms: N_10  and  C_4 
REMARK    3  A    between atoms: C_12  and  N_10 
REMARK    4  A    between atoms: C_13  and  C_12 
ROOT
ATOM      1  C   UNL d   1     -50.923  26.155  33.329  0.00  0.00     0.167 A 
ATOM      2  N   UNL d   1     -50.192  26.534  33.322  0.00  0.00    -0.195 N 
ATOM      3  C   UNL d   1     -50.788  25.348  33.338  0.00  0.00     0.057 A 
ATOM      4  C   UNL d   1     -50.153  27.355  33.312  0.00  0.00     0.167 A 
ATOM      5  N   UNL d   1     -49.612  25.957  33.328  0.00  0.00    -0.161 NA
ATOM      6  N   UNL d   1     -51.617  26.598  33.325  0.00  0.00    -0.227 NA
ATOM      7  C   UNL d   1     -50.853  27.800  33.308  0.00  0.00     0.058 A 
ATOM      8  C   UNL d   1     -49.971  25.231  33.338  0.00  0.00     0.124 A 
ATOM      9  C   UNL d   1     -51.576  27.425  33.315  0.00  0.00     0.086 A 
ATOM     10  C   UNL d   1     -52.260  27.889  33.311  0.00  0.00     0.021 C 
ENDROOT
BRANCH   4  11
ATOM     11  N   UNL d   1     -49.421  27.734  33.306  0.00  0.00    -0.225 NA
BRANCH  11  12
ATOM     12  C   UNL d   1     -49.355  28.505  33.584  0.00  0.00     0.101 C 
BRANCH  12  13
ATOM     13  C   UNL d   1     -48.772  28.695  34.148  0.00  0.00     0.019 A 
ATOM     14  C   UNL d   1     -48.352  29.407  34.090  0.00  0.00     0.002 A 
ATOM     15  C   UNL d   1     -47.779  29.594  34.645  0.00  0.00     0.000 A 
ATOM     16  C   UNL d   1     -47.616  29.072  35.267  0.00  0.00     0.000 A 
ATOM     17  C   UNL d   1     -48.035  28.364  35.324  0.00  0.00     0.000 A 
ATOM     18  C   UNL d   1     -48.614  28.175  34.763  0.00  0.00     0.002 A 
ENDBRANCH  12  13
ENDBRANCH  11  12
ENDBRANCH   4  11
BRANCH   3  19
ATOM     19  C   UNL d   1     -51.419  24.814  33.346  0.00  0.00     0.004 A 
ATOM     20  C   UNL d   1     -51.262  24.002  33.388  0.00  0.00     0.000 A 
ATOM     21  C   UNL d   1     -51.884  23.466  33.396  0.00  0.00     0.000 A 
ATOM     22  C   UNL d   1     -52.670  23.737  33.363  0.00  0.00     0.000 A 
ATOM     23  C   UNL d   1     -52.817  24.547  33.322  0.00  0.00     0.000 A 
ATOM     24  C   UNL d   1     -52.190  25.084  33.313  0.00  0.00     0.000 A 
ENDBRANCH   3  19
TORSDOF 4
ENDMDL
