MODEL 1
REMARK VINA RESULT:      -5.8      0.000      0.000
REMARK  7 active torsions:
REMARK  status: ('A' for Active; 'I' for Inactive)
REMARK    1  A    between atoms: C_2  and  S_1 
REMARK    2  A    between atoms: N_3  and  S_1 
REMARK    3  A    between atoms: C_16  and  N_3 
REMARK    4  A    between atoms: C_4  and  C_8 
REMARK       I    between atoms: N_5  and  C_4 
REMARK    5  A    between atoms: C_17  and  N_5 
REMARK    6  A    between atoms: C_20  and  C_16 
REMARK    7  A    between atoms: C_18  and  C_17 
ROOT
ATOM      1  C   UNL d   1     -42.337  13.488  21.188  0.00  0.00     0.058 A 
ATOM      2  C   UNL d   1     -42.536  12.699  21.326  0.00  0.00     0.005 A 
ATOM      3  C   UNL d   1     -42.910  14.074  21.277  0.00  0.00     0.005 A 
ATOM      4  C   UNL d   1     -43.876  13.081  21.640  0.00  0.00     0.020 A 
ATOM      5  C   UNL d   1     -43.303  12.495  21.551  0.00  0.00     0.002 A 
ATOM      6  C   UNL d   1     -43.685  13.865  21.505  0.00  0.00     0.002 A 
ENDROOT
BRANCH   4   7
ATOM      7  C   UNL d   1     -44.639  12.873  21.865  0.00  0.00     0.112 C 
BRANCH   7   8
ATOM      8  N   UNL d   1     -45.131  13.434  22.207  0.00  0.00    -0.157 NA
BRANCH   8   9
ATOM      9  S   UNL d   1     -45.867  13.214  22.520  0.00  0.00     0.285 S 
ATOM     10  O   UNL d   1     -46.151  13.080  21.762  0.00  0.00    -0.198 OA
ATOM     11  O   UNL d   1     -45.578  13.349  23.277  0.00  0.00    -0.198 OA
BRANCH   9  12
ATOM     12  C   UNL d   1     -46.597  12.997  22.840  0.00  0.00     0.105 A 
ATOM     13  C   UNL d   1     -47.201  13.548  22.899  0.00  0.00     0.012 A 
ATOM     14  C   UNL d   1     -47.926  13.329  23.217  0.00  0.00     0.001 A 
ATOM     15  C   UNL d   1     -47.068  14.327  22.630  0.00  0.00     0.001 C 
ATOM     16  C   UNL d   1     -48.051  12.552  23.482  0.00  0.00     0.000 A 
ATOM     17  C   UNL d   1     -47.437  12.002  23.420  0.00  0.00     0.001 A 
ATOM     18  C   UNL d   1     -46.710  12.222  23.100  0.00  0.00     0.013 A 
ATOM     19  C   UNL d   1     -47.563  11.226  23.685  0.00  0.00     0.000 C 
ENDBRANCH   9  12
ENDBRANCH   8   9
ENDBRANCH   7   8
ENDBRANCH   4   7
BRANCH   1  20
ATOM     20  C   UNL d   1     -41.574  13.692  20.964  0.00  0.00     0.279 C 
ATOM     21  N   UNL d   1     -41.432  13.983  20.212  0.00  0.00    -0.205 NA
ATOM     22  O   UNL d   1     -40.950  13.601  21.500  0.00  0.00    -0.265 OA
BRANCH  21  23
ATOM     23  C   UNL d   1     -40.665  14.189  19.983  0.00  0.00     0.121 C 
BRANCH  23  24
ATOM     24  C   UNL d   1     -40.538  14.502  19.231  0.00  0.00     0.101 A 
ATOM     25  N   UNL d   1     -40.580  14.007  18.577  0.00  0.00    -0.242 NA
ATOM     26  C   UNL d   1     -40.452  14.325  17.832  0.00  0.00     0.099 A 
ATOM     27  C   UNL d   1     -40.286  15.122  17.736  0.00  0.00     0.021 A 
ATOM     28  C   UNL d   1     -40.247  15.611  18.405  0.00  0.00     0.003 A 
ATOM     29  C   UNL d   1     -40.374  15.295  19.153  0.00  0.00     0.021 A 
ENDBRANCH  23  24
ENDBRANCH  21  23
ENDBRANCH   1  20
TORSDOF 7
ENDMDL
MODEL 2
REMARK VINA RESULT:      -5.7      1.581      2.654
REMARK  7 active torsions:
REMARK  status: ('A' for Active; 'I' for Inactive)
REMARK    1  A    between atoms: C_2  and  S_1 
REMARK    2  A    between atoms: N_3  and  S_1 
REMARK    3  A    between atoms: C_16  and  N_3 
REMARK    4  A    between atoms: C_4  and  C_8 
REMARK       I    between atoms: N_5  and  C_4 
REMARK    5  A    between atoms: C_17  and  N_5 
REMARK    6  A    between atoms: C_20  and  C_16 
REMARK    7  A    between atoms: C_18  and  C_17 
ROOT
ATOM      1  C   UNL d   1     -44.321  12.734  22.068  0.00  0.00     0.058 A 
ATOM      2  C   UNL d   1     -44.685  13.434  21.823  0.00  0.00     0.005 A 
ATOM      3  C   UNL d   1     -44.729  12.214  22.562  0.00  0.00     0.005 A 
ATOM      4  C   UNL d   1     -45.859  13.094  22.563  0.00  0.00     0.020 A 
ATOM      5  C   UNL d   1     -45.451  13.614  22.069  0.00  0.00     0.002 A 
ATOM      6  C   UNL d   1     -45.504  12.398  22.809  0.00  0.00     0.002 A 
ENDROOT
BRANCH   4   7
ATOM      7  C   UNL d   1     -46.622  13.277  22.806  0.00  0.00     0.112 C 
BRANCH   7   8
ATOM      8  N   UNL d   1     -47.264  12.911  22.449  0.00  0.00    -0.157 NA
BRANCH   8   9
ATOM      9  S   UNL d   1     -48.037  13.163  22.611  0.00  0.00     0.285 S 
ATOM     10  O   UNL d   1     -47.919  13.021  23.410  0.00  0.00    -0.198 OA
ATOM     11  O   UNL d   1     -48.151  13.305  21.809  0.00  0.00    -0.198 OA
BRANCH   9  12
ATOM     12  C   UNL d   1     -48.809  13.416  22.762  0.00  0.00     0.105 A 
ATOM     13  C   UNL d   1     -49.432  12.884  22.727  0.00  0.00     0.012 A 
ATOM     14  C   UNL d   1     -50.197  13.138  22.878  0.00  0.00     0.001 A 
ATOM     15  C   UNL d   1     -49.274  12.087  22.537  0.00  0.00     0.001 C 
ATOM     16  C   UNL d   1     -50.347  13.933  23.066  0.00  0.00     0.000 A 
ATOM     17  C   UNL d   1     -49.714  14.465  23.100  0.00  0.00     0.001 A 
ATOM     18  C   UNL d   1     -48.945  14.208  22.948  0.00  0.00     0.013 A 
ATOM     19  C   UNL d   1     -49.864  15.258  23.288  0.00  0.00     0.000 C 
ENDBRANCH   9  12
ENDBRANCH   8   9
ENDBRANCH   7   8
ENDBRANCH   4   7
BRANCH   1  20
ATOM     20  C   UNL d   1     -43.558  12.554  21.823  0.00  0.00     0.279 C 
ATOM     21  N   UNL d   1     -43.104  13.123  21.448  0.00  0.00    -0.205 NA
ATOM     22  O   UNL d   1     -43.252  11.797  21.957  0.00  0.00    -0.265 OA
BRANCH  21  23
ATOM     23  C   UNL d   1     -42.336  12.944  21.200  0.00  0.00     0.121 C 
BRANCH  23  24
ATOM     24  C   UNL d   1     -41.864  13.542  20.886  0.00  0.00     0.101 A 
ATOM     25  N   UNL d   1     -41.799  13.615  20.070  0.00  0.00    -0.242 NA
ATOM     26  C   UNL d   1     -41.328  14.212  19.763  0.00  0.00     0.099 A 
ATOM     27  C   UNL d   1     -40.927  14.730  20.257  0.00  0.00     0.021 A 
ATOM     28  C   UNL d   1     -41.002  14.645  21.078  0.00  0.00     0.003 A 
ATOM     29  C   UNL d   1     -41.473  14.047  21.389  0.00  0.00     0.021 A 
ENDBRANCH  23  24
ENDBRANCH  21  23
ENDBRANCH   1  20
TORSDOF 7
ENDMDL
MODEL 3
REMARK VINA RESULT:      -4.6      1.450      6.515
REMARK  7 active torsions:
REMARK  status: ('A' for Active; 'I' for Inactive)
REMARK    1  A    between atoms: C_2  and  S_1 
REMARK    2  A    between atoms: N_3  and  S_1 
REMARK    3  A    between atoms: C_16  and  N_3 
REMARK    4  A    between atoms: C_4  and  C_8 
REMARK       I    between atoms: N_5  and  C_4 
REMARK    5  A    between atoms: C_17  and  N_5 
REMARK    6  A    between atoms: C_20  and  C_16 
REMARK    7  A    between atoms: C_18  and  C_17 
ROOT
ATOM      1  C   UNL d   1     -44.893  12.779  22.262  0.00  0.00     0.058 A 
ATOM      2  C   UNL d   1     -44.761  13.474  21.835  0.00  0.00     0.005 A 
ATOM      3  C   UNL d   1     -44.300  12.207  22.301  0.00  0.00     0.005 A 
ATOM      4  C   UNL d   1     -43.449  13.025  21.489  0.00  0.00     0.020 A 
ATOM      5  C   UNL d   1     -44.042  13.597  21.449  0.00  0.00     0.002 A 
ATOM      6  C   UNL d   1     -43.573  12.334  21.911  0.00  0.00     0.002 A 
ENDROOT
BRANCH   4   7
ATOM      7  C   UNL d   1     -42.735  13.152  21.104  0.00  0.00     0.112 C 
BRANCH   7   8
ATOM      8  N   UNL d   1     -42.213  13.718  21.386  0.00  0.00    -0.157 NA
BRANCH   8   9
ATOM      9  S   UNL d   1     -41.551  13.942  20.940  0.00  0.00     0.285 S 
ATOM     10  O   UNL d   1     -41.326  13.156  20.875  0.00  0.00    -0.198 OA
ATOM     11  O   UNL d   1     -41.780  14.729  21.007  0.00  0.00    -0.198 OA
BRANCH   9  12
ATOM     12  C   UNL d   1     -40.894  14.175  20.495  0.00  0.00     0.105 A 
ATOM     13  C   UNL d   1     -40.187  14.357  20.869  0.00  0.00     0.012 A 
ATOM     14  C   UNL d   1     -39.537  14.587  20.425  0.00  0.00     0.001 A 
ATOM     15  C   UNL d   1     -40.142  14.303  21.701  0.00  0.00     0.001 C 
ATOM     16  C   UNL d   1     -39.589  14.638  19.599  0.00  0.00     0.000 A 
ATOM     17  C   UNL d   1     -40.304  14.453  19.228  0.00  0.00     0.001 A 
ATOM     18  C   UNL d   1     -40.958  14.222  19.674  0.00  0.00     0.013 A 
ATOM     19  C   UNL d   1     -40.356  14.504  18.402  0.00  0.00     0.000 C 
ENDBRANCH   9  12
ENDBRANCH   8   9
ENDBRANCH   7   8
ENDBRANCH   4   7
BRANCH   1  20
ATOM     20  C   UNL d   1     -45.608  12.656  22.645  0.00  0.00     0.279 C 
ATOM     21  N   UNL d   1     -46.297  12.976  22.339  0.00  0.00    -0.205 NA
ATOM     22  O   UNL d   1     -45.629  12.209  23.341  0.00  0.00    -0.265 OA
BRANCH  21  23
ATOM     23  C   UNL d   1     -47.018  12.853  22.723  0.00  0.00     0.121 C 
BRANCH  23  24
ATOM     24  C   UNL d   1     -47.708  13.163  22.395  0.00  0.00     0.101 A 
ATOM     25  N   UNL d   1     -48.086  12.753  21.791  0.00  0.00    -0.242 NA
ATOM     26  C   UNL d   1     -48.772  13.067  21.469  0.00  0.00     0.099 A 
ATOM     27  C   UNL d   1     -49.079  13.776  21.741  0.00  0.00     0.021 A 
ATOM     28  C   UNL d   1     -48.688  14.180  22.350  0.00  0.00     0.003 A 
ATOM     29  C   UNL d   1     -48.000  13.868  22.675  0.00  0.00     0.021 A 
ENDBRANCH  23  24
ENDBRANCH  21  23
ENDBRANCH   1  20
TORSDOF 7
ENDMDL
