MODEL 1
REMARK VINA RESULT:      97.5      0.000      0.000
REMARK  5 active torsions:
REMARK  status: ('A' for Active; 'I' for Inactive)
REMARK    1  A    between atoms: N_2  and  C_1 
REMARK    2  A    between atoms: C_13  and  N_6 
REMARK    3  A    between atoms: C_12  and  C_7 
REMARK    4  A    between atoms: O_22  and  C_19 
REMARK    5  A    between atoms: C_25  and  O_22 
ROOT
ATOM      1  N   UNL d   1     -47.204  30.281  35.942  0.00  0.00    -0.288 N 
ATOM      2  C   UNL d   1     -47.598  29.554  35.891  0.00  0.00     0.196 A 
ATOM      3  S   UNL d   1     -47.524  29.193  36.634  0.00  0.00    -0.092 SA
ATOM      4  C   UNL d   1     -46.898  30.358  36.700  0.00  0.00     0.268 A 
ATOM      5  C   UNL d   1     -47.113  29.659  37.121  0.00  0.00     0.093 A 
ATOM      6  O   UNL d   1     -46.476  30.986  36.977  0.00  0.00    -0.266 OA
ENDROOT
BRANCH   1   7
ATOM      7  C   UNL d   1     -47.176  30.768  35.302  0.00  0.00     0.139 A 
ATOM      8  C   UNL d   1     -47.680  31.372  35.192  0.00  0.00     0.296 A 
ATOM      9  N   UNL d   1     -47.494  31.747  34.491  0.00  0.00    -0.209 N 
ATOM     10  O   UNL d   1     -48.299  31.581  35.720  0.00  0.00    -0.264 OA
ATOM     11  N   UNL d   1     -46.864  31.360  34.169  0.00  0.00    -0.238 N 
ATOM     12  C   UNL d   1     -46.664  30.736  34.690  0.00  0.00     0.102 A 
ATOM     13  C   UNL d   1     -46.493  31.542  33.471  0.00  0.00     0.120 C 
ATOM     14  C   UNL d   1     -46.042  30.170  34.603  0.00  0.00     0.022 C 
BRANCH   9  15
ATOM     15  C   UNL d   1     -47.813  32.387  34.101  0.00  0.00     0.085 A 
ATOM     16  C   UNL d   1     -47.344  33.030  33.905  0.00  0.00     0.019 A 
ATOM     17  C   UNL d   1     -47.666  33.670  33.514  0.00  0.00     0.002 A 
ATOM     18  C   UNL d   1     -48.463  33.685  33.309  0.00  0.00     0.000 A 
ATOM     19  C   UNL d   1     -48.924  33.033  33.511  0.00  0.00     0.002 A 
ATOM     20  C   UNL d   1     -48.605  32.396  33.899  0.00  0.00     0.019 A 
ENDBRANCH   9  15
ENDBRANCH   1   7
BRANCH   2  21
ATOM     21  C   UNL d   1     -48.016  29.127  35.330  0.00  0.00    -0.001 A 
ATOM     22  C   UNL d   1     -48.762  29.408  34.932  0.00  0.00    -0.000 A 
ATOM     23  C   UNL d   1     -49.147  28.886  34.341  0.00  0.00     0.024 A 
ATOM     24  C   UNL d   1     -48.778  28.119  34.175  0.00  0.00     0.100 A 
ATOM     25  C   UNL d   1     -48.079  27.886  34.564  0.00  0.00     0.024 A 
ATOM     26  C   UNL d   1     -47.687  28.362  35.134  0.00  0.00    -0.000 A 
BRANCH  24  27
ATOM     27  O   UNL d   1     -49.153  27.657  33.625  0.00  0.00    -0.305 OA
BRANCH  27  28
ATOM     28  C   UNL d   1     -49.970  27.342  33.813  0.00  0.00     0.123 C 
ATOM     29  C   UNL d   1     -50.287  26.748  33.308  0.00  0.00     0.029 C 
ENDBRANCH  27  28
ENDBRANCH  24  27
ENDBRANCH   2  21
TORSDOF 5
ENDMDL
