MODEL 1
REMARK VINA RESULT:      37.8      0.000      0.000
REMARK  3 active torsions:
REMARK  status: ('A' for Active; 'I' for Inactive)
REMARK    1  A    between atoms: N_5  and  C_1 
REMARK    2  A    between atoms: C_7  and  N_2 
REMARK    3  A    between atoms: C_9  and  C_7 
ROOT
ATOM      1  C   UNL d   1      13.684  12.415  -2.654  0.00  0.00     0.720 A 
ATOM      2  N   UNL d   1      14.264  12.909  -2.329  0.00  0.00    -0.139 N 
ATOM      3  N   UNL d   1      13.416  11.913  -2.056  0.00  0.00    -0.060 NA
ATOM      4  C   UNL d   1      14.351  12.709  -1.530  0.00  0.00     0.100 A 
ATOM      5  C   UNL d   1      13.828  12.094  -1.362  0.00  0.00     0.116 A 
ATOM      6  C   UNL d   1      14.844  13.014  -0.941  0.00  0.00     0.020 A 
ATOM      7  C   UNL d   1      13.793  11.780  -0.603  0.00  0.00     0.021 A 
ATOM      8  C   UNL d   1      14.809  12.699  -0.183  0.00  0.00     0.002 A 
ATOM      9  C   UNL d   1      14.286  12.085  -0.014  0.00  0.00     0.002 A 
ENDROOT
BRANCH   2  10
ATOM     10  C   UNL d   1      14.681  13.499  -2.735  0.00  0.00     0.098 C 
BRANCH  10  11
ATOM     11  C   UNL d   1      14.660  14.277  -2.456  0.00  0.00     0.018 A 
ATOM     12  C   UNL d   1      15.105  14.492  -1.804  0.00  0.00     0.002 A 
ATOM     13  C   UNL d   1      15.082  15.269  -1.528  0.00  0.00     0.000 A 
ATOM     14  C   UNL d   1      14.608  15.829  -1.911  0.00  0.00     0.000 A 
ATOM     15  C   UNL d   1      14.160  15.602  -2.570  0.00  0.00     0.000 A 
ATOM     16  C   UNL d   1      14.186  14.827  -2.842  0.00  0.00     0.002 A 
ENDBRANCH  10  11
ENDBRANCH   2  10
BRANCH   1  17
ATOM     17  N   UNL d   1      13.427  12.430  -3.436  0.00  0.00    -0.136 N 
ATOM     18  C   UNL d   1      13.564  11.786  -3.935  0.00  0.00     0.119 A 
ATOM     19  C   UNL d   1      13.305  11.808  -4.713  0.00  0.00     0.119 A 
ATOM     20  N   UNL d   1      12.908  12.471  -5.000  0.00  0.00    -0.239 NA
ATOM     21  C   UNL d   1      12.770  13.114  -4.502  0.00  0.00     0.119 A 
ATOM     22  C   UNL d   1      13.029  13.100  -3.714  0.00  0.00     0.119 A 
ENDBRANCH   1  17
TORSDOF 3
ENDMDL
