MODEL 1
REMARK VINA RESULT:     133.5      0.000      0.000
REMARK  5 active torsions:
REMARK  status: ('A' for Active; 'I' for Inactive)
REMARK    1  A    between atoms: C_10  and  C_1 
REMARK    2  A    between atoms: C_16  and  C_2 
REMARK    3  A    between atoms: C_7  and  C_14 
REMARK    4  A    between atoms: C_13  and  C_10 
REMARK    5  A    between atoms: C_14  and  C_13 
ROOT
ATOM      1  C   UNL d   1      61.993  44.806  49.806  0.00  0.00     0.097 A 
ATOM      2  C   UNL d   1      61.643  44.294  50.382  0.00  0.00     0.009 A 
ATOM      3  C   UNL d   1      62.712  44.612  49.463  0.00  0.00     0.282 A 
ATOM      4  C   UNL d   1      62.040  43.617  50.576  0.00  0.00     0.019 A 
ATOM      5  N   UNL d   1      63.110  43.898  49.681  0.00  0.00    -0.208 NA
ATOM      6  C   UNL d   1      62.759  43.423  50.232  0.00  0.00     0.085 A 
ATOM      7  C   UNL d   1      61.690  43.113  51.147  0.00  0.00     0.013 A 
ATOM      8  C   UNL d   1      63.157  42.717  50.445  0.00  0.00     0.020 A 
ATOM      9  O   UNL d   1      63.062  45.117  48.891  0.00  0.00    -0.265 OA
ATOM     10  C   UNL d   1      62.089  42.399  51.365  0.00  0.00     0.058 A 
ATOM     11  C   UNL d   1      62.807  42.205  51.021  0.00  0.00     0.013 A 
ATOM     12 CL   UNL d   1      61.739  41.894  51.936  0.00  0.00    -0.082 Cl
ENDROOT
BRANCH   1  13
ATOM     13  C   UNL d   1      61.594  45.513  49.593  0.00  0.00     0.200 C 
ATOM     14  O   UNL d   1      60.999  45.509  48.979  0.00  0.00    -0.286 OA
BRANCH  13  15
ATOM     15  C   UNL d   1      61.766  46.222  49.967  0.00  0.00     0.045 C 
BRANCH  15  16
ATOM     16  C   UNL d   1      61.582  46.973  49.645  0.00  0.00     0.042 C 
BRANCH  16  17
ATOM     17  C   UNL d   1      61.373  47.620  50.135  0.00  0.00     0.163 A 
ATOM     18  N   UNL d   1      61.756  47.967  50.764  0.00  0.00    -0.225 NA
ATOM     19  C   UNL d   1      61.276  48.582  51.020  0.00  0.00     0.101 A 
ATOM     20  C   UNL d   1      61.386  49.117  51.635  0.00  0.00     0.021 A 
ATOM     21  C   UNL d   1      60.625  48.616  50.572  0.00  0.00     0.101 A 
ATOM     22  C   UNL d   1      60.793  49.699  51.775  0.00  0.00     0.002 A 
ATOM     23  C   UNL d   1      60.131  49.707  51.293  0.00  0.00     0.002 A 
ATOM     24  C   UNL d   1      60.069  49.150  50.692  0.00  0.00     0.021 A 
ATOM     25  N   UNL d   1      60.660  47.997  49.982  0.00  0.00    -0.225 NA
ENDBRANCH  16  17
ENDBRANCH  15  16
ENDBRANCH  13  15
ENDBRANCH   1  13
BRANCH   2  26
ATOM     26  C   UNL d   1      60.893  44.496  50.741  0.00  0.00     0.000 A 
ATOM     27  C   UNL d   1      60.908  44.845  51.489  0.00  0.00     0.000 A 
ATOM     28  C   UNL d   1      60.211  45.055  51.868  0.00  0.00     0.000 A 
ATOM     29  C   UNL d   1      59.464  44.882  51.425  0.00  0.00     0.000 A 
ATOM     30  C   UNL d   1      59.479  44.546  50.709  0.00  0.00     0.000 A 
ATOM     31  C   UNL d   1      60.228  44.344  50.351  0.00  0.00     0.000 A 
ENDBRANCH   2  26
TORSDOF 5
ENDMDL
