MODEL 1
REMARK VINA RESULT:      29.6      0.000      0.000
REMARK  4 active torsions:
REMARK  status: ('A' for Active; 'I' for Inactive)
REMARK    1  A    between atoms: C_3  and  N_1 
REMARK       I    between atoms: C_2  and  N_5 
REMARK       I    between atoms: N_4  and  C_2 
REMARK    2  A    between atoms: C_17  and  N_4 
REMARK    3  A    between atoms: N_5  and  C_16 
REMARK    4  A    between atoms: C_8  and  C_9 
ROOT
ATOM      1  C   UNL d   1     -54.732-101.900 -41.332  0.00  0.00     0.369 C 
ATOM      2  N   UNL d   1     -54.711-102.067 -42.160  0.00  0.00    -0.191 NA
ATOM      3  N   UNL d   1     -54.723-102.497 -40.793  0.00  0.00    -0.191 NA
ATOM      4  O   UNL d   1     -54.762-101.113 -41.109  0.00  0.00    -0.242 OA
ENDROOT
BRANCH   3   5
ATOM      5  C   UNL d   1     -54.745-102.289 -39.971  0.00  0.00     0.086 A 
ATOM      6  C   UNL d   1     -54.795-102.878 -39.393  0.00  0.00     0.021 A 
ATOM      7  C   UNL d   1     -54.818-102.690 -38.589  0.00  0.00     0.025 A 
ATOM      8  C   UNL d   1     -54.788-101.894 -38.394  0.00  0.00     0.127 A 
ATOM      9  C   UNL d   1     -54.737-101.266 -38.957  0.00  0.00     0.025 A 
ATOM     10  C   UNL d   1     -54.717-101.501 -39.748  0.00  0.00     0.021 A 
BRANCH   8  11
ATOM     11  N   UNL d   1     -54.812-101.697 -37.538  0.00  0.00    -0.114 N 
ATOM     12  O   UNL d   1     -54.858-102.311 -36.989  0.00  0.00    -0.532 OA
ATOM     13  O   UNL d   1     -54.789-100.906 -37.292  0.00  0.00    -0.532 OA
ENDBRANCH   8  11
ENDBRANCH   3   5
BRANCH   2  14
ATOM     14  C   UNL d   1     -54.720-101.467 -42.723  0.00  0.00     0.086 A 
ATOM     15  C   UNL d   1     -54.716-100.677 -42.482  0.00  0.00     0.019 A 
ATOM     16  C   UNL d   1     -54.725-100.086 -43.035  0.00  0.00     0.005 A 
ATOM     17  C   UNL d   1     -54.738-100.254 -43.864  0.00  0.00     0.039 A 
ATOM     18  C   UNL d   1     -54.741-101.042 -44.086  0.00  0.00     0.005 A 
ATOM     19  C   UNL d   1     -54.732-101.646 -43.519  0.00  0.00     0.019 A 
BRANCH  17  20
ATOM     20  C   UNL d   1     -54.747 -99.686 -44.429  0.00  0.00     0.196 C 
ATOM     21  O   UNL d   1     -54.755 -99.886 -45.208  0.00  0.00    -0.287 OA
ATOM     22  C   UNL d   1     -54.747 -98.893 -44.227  0.00  0.00     0.045 C 
ENDBRANCH  17  20
ENDBRANCH   2  14
TORSDOF 4
ENDMDL
MODEL 2
REMARK VINA RESULT:      30.6      0.917      5.230
REMARK  4 active torsions:
REMARK  status: ('A' for Active; 'I' for Inactive)
REMARK    1  A    between atoms: C_3  and  N_1 
REMARK       I    between atoms: C_2  and  N_5 
REMARK       I    between atoms: N_4  and  C_2 
REMARK    2  A    between atoms: C_17  and  N_4 
REMARK    3  A    between atoms: N_5  and  C_16 
REMARK    4  A    between atoms: C_8  and  C_9 
ROOT
ATOM      1  C   UNL d   1     -54.749-101.882 -41.632  0.00  0.00     0.369 C 
ATOM      2  N   UNL d   1     -54.712-102.478 -41.034  0.00  0.00    -0.191 NA
ATOM      3  N   UNL d   1     -54.715-102.080 -42.411  0.00  0.00    -0.191 NA
ATOM      4  O   UNL d   1     -54.820-101.105 -41.383  0.00  0.00    -0.242 OA
ENDROOT
BRANCH   3   5
ATOM      5  C   UNL d   1     -54.755-101.453 -42.981  0.00  0.00     0.086 A 
ATOM      6  C   UNL d   1     -54.725-100.664 -42.736  0.00  0.00     0.021 A 
ATOM      7  C   UNL d   1     -54.763-100.043 -43.280  0.00  0.00     0.025 A 
ATOM      8  C   UNL d   1     -54.832-100.247 -44.070  0.00  0.00     0.127 A 
ATOM      9  C   UNL d   1     -54.865-101.041 -44.357  0.00  0.00     0.025 A 
ATOM     10  C   UNL d   1     -54.824-101.628 -43.778  0.00  0.00     0.021 A 
BRANCH   8  11
ATOM     11  N   UNL d   1     -54.872 -99.585 -44.646  0.00  0.00    -0.114 N 
ATOM     12  O   UNL d   1     -54.795 -99.751 -45.450  0.00  0.00    -0.532 OA
ATOM     13  O   UNL d   1     -54.985 -98.808 -44.381  0.00  0.00    -0.532 OA
ENDBRANCH   8  11
ENDBRANCH   3   5
BRANCH   2  14
ATOM     14  C   UNL d   1     -54.746-102.290 -40.234  0.00  0.00     0.086 A 
ATOM     15  C   UNL d   1     -54.718-101.501 -39.995  0.00  0.00     0.019 A 
ATOM     16  C   UNL d   1     -54.751-101.315 -39.208  0.00  0.00     0.005 A 
ATOM     17  C   UNL d   1     -54.814-101.913 -38.613  0.00  0.00     0.039 A 
ATOM     18  C   UNL d   1     -54.840-102.692 -38.866  0.00  0.00     0.005 A 
ATOM     19  C   UNL d   1     -54.806-102.880 -39.673  0.00  0.00     0.019 A 
BRANCH  17  20
ATOM     20  C   UNL d   1     -54.848-101.754 -37.829  0.00  0.00     0.196 C 
ATOM     21  O   UNL d   1     -54.812-100.995 -37.565  0.00  0.00    -0.287 OA
ATOM     22  C   UNL d   1     -54.919-102.358 -37.281  0.00  0.00     0.045 C 
ENDBRANCH  17  20
ENDBRANCH   2  14
TORSDOF 4
ENDMDL
