MODEL 1
REMARK VINA RESULT:      -3.2      0.000      0.000
REMARK  6 active torsions:
REMARK  status: ('A' for Active; 'I' for Inactive)
REMARK    1  A    between atoms: C_6  and  N_1 
REMARK    2  A    between atoms: C_7  and  C_4 
REMARK    3  A    between atoms: C_8  and  C_6 
REMARK    4  A    between atoms: C_11  and  C_6 
REMARK    5  A    between atoms: C_13  and  C_7 
REMARK    6  A    between atoms: C_16  and  C_11 
ROOT
ATOM      1  N   UNL d   1      58.824   0.170  30.385  0.00  0.00    -0.254 N 
ATOM      2  C   UNL d   1      59.039   0.506  31.029  0.00  0.00     0.153 A 
ATOM      3  C   UNL d   1      58.010   0.104  30.380  0.00  0.00     0.272 A 
ATOM      4  C   UNL d   1      57.720   0.425  31.074  0.00  0.00     0.088 A 
ATOM      5  S   UNL d   1      58.371   0.677  31.478  0.00  0.00    -0.054 SA
ATOM      6  S   UNL d   1      59.865   0.647  31.182  0.00  0.00    -0.052 SA
ATOM      7  O   UNL d   1      57.529  -0.235  29.774  0.00  0.00    -0.266 OA
ENDROOT
BRANCH   1   8
ATOM      8  C   UNL d   1      59.358  -0.086  29.785  0.00  0.00     0.132 C 
BRANCH   8   9
ATOM      9  C   UNL d   1      59.343   0.236  29.043  0.00  0.00     0.228 C 
ATOM     10  O   UNL d   1      58.687   0.156  28.548  0.00  0.00    -0.643 OA
ATOM     11  O   UNL d   1      60.014   0.659  28.779  0.00  0.00    -0.643 OA
ENDBRANCH   8   9
BRANCH   8  12
ATOM     12  C   UNL d   1      59.915  -0.701  29.994  0.00  0.00     0.024 C 
BRANCH  12  13
ATOM     13  C   UNL d   1      60.003  -1.335  29.485  0.00  0.00     0.002 A 
ATOM     14  C   UNL d   1      60.604  -1.382  28.966  0.00  0.00     0.000 A 
ATOM     15  C   UNL d   1      60.669  -2.045  28.455  0.00  0.00     0.000 A 
ATOM     16  C   UNL d   1      60.122  -2.614  28.505  0.00  0.00     0.000 A 
ATOM     17  C   UNL d   1      59.495  -2.587  29.032  0.00  0.00     0.000 A 
ATOM     18  C   UNL d   1      59.426  -1.930  29.542  0.00  0.00     0.000 A 
ENDBRANCH  12  13
ENDBRANCH   8  12
ENDBRANCH   1   8
BRANCH   4  19
ATOM     19  C   UNL d   1      56.915   0.450  31.251  0.00  0.00     0.011 C 
BRANCH  19  20
ATOM     20  C   UNL d   1      56.600   0.166  31.985  0.00  0.00     0.001 A 
ATOM     21  C   UNL d   1      56.361  -0.606  32.037  0.00  0.00     0.001 A 
ATOM     22  C   UNL d   1      56.049  -0.910  32.744  0.00  0.00     0.007 A 
ATOM     23  C   UNL d   1      55.987  -0.373  33.424  0.00  0.00     0.035 A 
ATOM     24  C   UNL d   1      56.238   0.402  33.339  0.00  0.00     0.007 A 
ATOM     25 BR   UNL d   1      55.674  -0.651  34.160  0.00  0.00    -0.049 Br
ATOM     26  C   UNL d   1      56.538   0.670  32.637  0.00  0.00     0.001 A 
ENDBRANCH  19  20
ENDBRANCH   4  19
TORSDOF 6
ENDMDL
MODEL 2
REMARK VINA RESULT:      -3.0      2.159      5.218
REMARK  6 active torsions:
REMARK  status: ('A' for Active; 'I' for Inactive)
REMARK    1  A    between atoms: C_6  and  N_1 
REMARK    2  A    between atoms: C_7  and  C_4 
REMARK    3  A    between atoms: C_8  and  C_6 
REMARK    4  A    between atoms: C_11  and  C_6 
REMARK    5  A    between atoms: C_13  and  C_7 
REMARK    6  A    between atoms: C_16  and  C_11 
ROOT
ATOM      1  N   UNL d   1      57.085   0.216  32.485  0.00  0.00    -0.254 N 
ATOM      2  C   UNL d   1      57.778   0.490  32.626  0.00  0.00     0.153 A 
ATOM      3  C   UNL d   1      56.960   0.216  31.678  0.00  0.00     0.272 A 
ATOM      4  C   UNL d   1      57.629   0.511  31.312  0.00  0.00     0.088 A 
ATOM      5  S   UNL d   1      58.140   0.682  31.913  0.00  0.00    -0.054 SA
ATOM      6  S   UNL d   1      58.057   0.554  33.428  0.00  0.00    -0.052 SA
ATOM      7  O   UNL d   1      56.267  -0.041  31.269  0.00  0.00    -0.266 OA
ENDROOT
BRANCH   1   8
ATOM      8  C   UNL d   1      56.548  -0.039  33.083  0.00  0.00     0.132 C 
BRANCH   8   9
ATOM      9  C   UNL d   1      56.261  -0.795  33.094  0.00  0.00     0.228 C 
ATOM     10  O   UNL d   1      56.506  -1.344  33.660  0.00  0.00    -0.643 OA
ATOM     11  O   UNL d   1      55.701  -1.017  32.515  0.00  0.00    -0.643 OA
ENDBRANCH   8   9
BRANCH   8  12
ATOM     12  C   UNL d   1      56.321   0.535  33.675  0.00  0.00     0.024 C 
BRANCH  12  13
ATOM     13  C   UNL d   1      55.542   0.547  33.925  0.00  0.00     0.002 A 
ATOM     14  C   UNL d   1      54.938   0.674  33.423  0.00  0.00     0.000 A 
ATOM     15  C   UNL d   1      54.148   0.682  33.707  0.00  0.00     0.000 A 
ATOM     16  C   UNL d   1      54.024   0.560  34.479  0.00  0.00     0.000 A 
ATOM     17  C   UNL d   1      54.630   0.427  35.014  0.00  0.00     0.000 A 
ATOM     18  C   UNL d   1      55.418   0.419  34.736  0.00  0.00     0.000 A 
ENDBRANCH  12  13
ENDBRANCH   8  12
ENDBRANCH   1   8
BRANCH   4  19
ATOM     19  C   UNL d   1      57.692   0.587  30.494  0.00  0.00     0.011 C 
BRANCH  19  20
ATOM     20  C   UNL d   1      58.300   0.203  30.044  0.00  0.00     0.001 A 
ATOM     21  C   UNL d   1      58.972   0.617  29.861  0.00  0.00     0.001 A 
ATOM     22  C   UNL d   1      59.584   0.266  29.423  0.00  0.00     0.007 A 
ATOM     23  C   UNL d   1      59.479  -0.558  29.168  0.00  0.00     0.035 A 
ATOM     24  C   UNL d   1      58.788  -0.948  29.370  0.00  0.00     0.007 A 
ATOM     25 BR   UNL d   1      60.083  -0.946  28.720  0.00  0.00    -0.049 Br
ATOM     26  C   UNL d   1      58.208  -0.580  29.799  0.00  0.00     0.001 A 
ENDBRANCH  19  20
ENDBRANCH   4  19
TORSDOF 6
ENDMDL
MODEL 3
REMARK VINA RESULT:      -0.8      2.073      5.051
REMARK  6 active torsions:
REMARK  status: ('A' for Active; 'I' for Inactive)
REMARK    1  A    between atoms: C_6  and  N_1 
REMARK    2  A    between atoms: C_7  and  C_4 
REMARK    3  A    between atoms: C_8  and  C_6 
REMARK    4  A    between atoms: C_11  and  C_6 
REMARK    5  A    between atoms: C_13  and  C_7 
REMARK    6  A    between atoms: C_16  and  C_11 
ROOT
ATOM      1  N   UNL d   1      57.386  -0.060  31.757  0.00  0.00    -0.254 N 
ATOM      2  C   UNL d   1      58.067   0.273  31.726  0.00  0.00     0.153 A 
ATOM      3  C   UNL d   1      57.230  -0.407  31.034  0.00  0.00     0.272 A 
ATOM      4  C   UNL d   1      57.865  -0.271  30.538  0.00  0.00     0.088 A 
ATOM      5  S   UNL d   1      58.389   0.157  30.978  0.00  0.00    -0.054 SA
ATOM      6  S   UNL d   1      58.372   0.681  32.408  0.00  0.00    -0.052 SA
ATOM      7  O   UNL d   1      56.537  -0.839  30.815  0.00  0.00    -0.266 OA
ENDROOT
BRANCH   1   8
ATOM      8  C   UNL d   1      56.889  -0.057  32.437  0.00  0.00     0.132 C 
BRANCH   8   9
ATOM      9  C   UNL d   1      56.909  -0.660  32.975  0.00  0.00     0.228 C 
ATOM     10  O   UNL d   1      57.339  -0.601  33.678  0.00  0.00    -0.643 OA
ATOM     11  O   UNL d   1      56.481  -1.358  32.807  0.00  0.00    -0.643 OA
ENDBRANCH   8   9
BRANCH   8  12
ATOM     12  C   UNL d   1      56.362   0.611  32.534  0.00  0.00     0.024 C 
BRANCH  12  13
ATOM     13  C   UNL d   1      55.815   0.589  33.142  0.00  0.00     0.002 A 
ATOM     14  C   UNL d   1      56.029   0.484  33.901  0.00  0.00     0.000 A 
ATOM     15  C   UNL d   1      55.446   0.466  34.504  0.00  0.00     0.000 A 
ATOM     16  C   UNL d   1      54.687   0.554  34.298  0.00  0.00     0.000 A 
ATOM     17  C   UNL d   1      54.444   0.663  33.523  0.00  0.00     0.000 A 
ATOM     18  C   UNL d   1      55.020   0.682  32.919  0.00  0.00     0.000 A 
ENDBRANCH  12  13
ENDBRANCH   8  12
ENDBRANCH   1   8
BRANCH   4  19
ATOM     19  C   UNL d   1      57.891  -0.547  29.762  0.00  0.00     0.011 C 
BRANCH  19  20
ATOM     20  C   UNL d   1      58.563  -0.957  29.445  0.00  0.00     0.001 A 
ATOM     21  C   UNL d   1      59.103  -0.543  29.005  0.00  0.00     0.001 A 
ATOM     22  C   UNL d   1      59.770  -0.920  28.683  0.00  0.00     0.007 A 
ATOM     23  C   UNL d   1      59.868  -1.770  28.834  0.00  0.00     0.035 A 
ATOM     24  C   UNL d   1      59.303  -2.159  29.282  0.00  0.00     0.007 A 
ATOM     25 BR   UNL d   1      60.536  -2.184  28.520  0.00  0.00    -0.049 Br
ATOM     26  C   UNL d   1      58.663  -1.765  29.583  0.00  0.00     0.001 A 
ENDBRANCH  19  20
ENDBRANCH   4  19
TORSDOF 6
ENDMDL
