MODEL 1
REMARK VINA RESULT:      -8.3      0.000      0.000
REMARK  4 active torsions:
REMARK  status: ('A' for Active; 'I' for Inactive)
REMARK    1  A    between atoms: C_8  and  C_6 
REMARK    2  A    between atoms: C_9  and  C_8 
REMARK       I    between atoms: N_11  and  C_9 
REMARK       I    between atoms: C_10  and  N_12 
REMARK    3  A    between atoms: C_17  and  N_11 
REMARK    4  A    between atoms: N_12  and  C_18 
ROOT
ATOM      1  N   UNL d   1     -49.195  12.828  21.591  0.00  0.00    -0.207 NA
ATOM      2  N   UNL d   1     -48.293  13.785  22.632  0.00  0.00    -0.240 NA
ATOM      3  C   UNL d   1     -48.449  12.743  21.902  0.00  0.00     0.297 A 
ATOM      4  C   UNL d   1     -49.748  13.431  21.699  0.00  0.00     0.086 A 
ATOM      5  C   UNL d   1     -48.969  14.248  22.592  0.00  0.00     0.083 A 
ATOM      6  C   UNL d   1     -48.145  13.069  22.255  0.00  0.00     0.144 A 
ATOM      7  C   UNL d   1     -49.669  14.117  22.168  0.00  0.00     0.035 A 
ATOM      8  O   UNL d   1     -48.045  12.064  21.673  0.00  0.00    -0.264 OA
ATOM      9  C   UNL d   1     -50.293  14.657  22.203  0.00  0.00     0.003 A 
ATOM     10  C   UNL d   1     -48.891  14.926  23.056  0.00  0.00     0.019 A 
ATOM     11  C   UNL d   1     -50.445  13.297  21.275  0.00  0.00     0.019 A 
ATOM     12  C   UNL d   1     -49.520  15.479  23.096  0.00  0.00     0.002 A 
ATOM     13  C   UNL d   1     -51.064  13.843  21.315  0.00  0.00     0.002 A 
ATOM     14  C   UNL d   1     -50.987  14.522  21.779  0.00  0.00     0.000 A 
ATOM     15  C   UNL d   1     -50.214  15.344  22.672  0.00  0.00     0.000 A 
ENDROOT
BRANCH   6  16
ATOM     16  C   UNL d   1     -47.401  12.759  22.423  0.00  0.00     0.086 C 
BRANCH  16  17
ATOM     17  C   UNL d   1     -47.241  12.477  23.191  0.00  0.00     0.281 C 
ATOM     18  N   UNL d   1     -46.457  12.401  23.446  0.00  0.00    -0.208 NA
ATOM     19  O   UNL d   1     -47.860  12.274  23.698  0.00  0.00    -0.265 OA
BRANCH  18  20
ATOM     20  C   UNL d   1     -45.834  12.603  22.942  0.00  0.00     0.085 A 
ATOM     21  C   UNL d   1     -45.392  12.009  22.586  0.00  0.00     0.021 A 
ATOM     22  C   UNL d   1     -44.770  12.203  22.083  0.00  0.00     0.021 A 
ATOM     23  C   UNL d   1     -44.591  13.001  21.937  0.00  0.00     0.085 A 
ATOM     24  C   UNL d   1     -45.038  13.594  22.296  0.00  0.00     0.021 A 
ATOM     25  C   UNL d   1     -45.659  13.395  22.798  0.00  0.00     0.021 A 
BRANCH  23  26
ATOM     26  N   UNL d   1     -43.981  13.196  21.443  0.00  0.00    -0.208 NA
ATOM     27  C   UNL d   1     -43.277  12.786  21.486  0.00  0.00     0.279 C 
ATOM     28  O   UNL d   1     -43.185  12.185  22.020  0.00  0.00    -0.265 OA
ATOM     29  C   UNL d   1     -42.659  12.982  20.988  0.00  0.00     0.068 C 
ENDBRANCH  23  26
ENDBRANCH  18  20
ENDBRANCH  16  17
ENDBRANCH   6  16
TORSDOF 4
ENDMDL
MODEL 2
REMARK VINA RESULT:      -8.2      7.592      9.815
REMARK  4 active torsions:
REMARK  status: ('A' for Active; 'I' for Inactive)
REMARK    1  A    between atoms: C_8  and  C_6 
REMARK    2  A    between atoms: C_9  and  C_8 
REMARK       I    between atoms: N_11  and  C_9 
REMARK       I    between atoms: C_10  and  N_12 
REMARK    3  A    between atoms: C_17  and  N_11 
REMARK    4  A    between atoms: N_12  and  C_18 
ROOT
ATOM      1  N   UNL d   1     -39.281  15.381  17.153  0.00  0.00    -0.207 NA
ATOM      2  N   UNL d   1     -39.282  14.009  18.119  0.00  0.00    -0.240 NA
ATOM      3  C   UNL d   1     -39.609  15.225  17.881  0.00  0.00     0.297 A 
ATOM      4  C   UNL d   1     -38.837  14.892  16.657  0.00  0.00     0.086 A 
ATOM      5  C   UNL d   1     -38.841  13.719  17.490  0.00  0.00     0.083 A 
ATOM      6  C   UNL d   1     -39.607  14.759  18.206  0.00  0.00     0.144 A 
ATOM      7  C   UNL d   1     -38.613  14.100  16.791  0.00  0.00     0.035 A 
ATOM      8  O   UNL d   1     -40.021  15.849  18.223  0.00  0.00    -0.264 OA
ATOM      9  C   UNL d   1     -38.164  13.704  16.221  0.00  0.00     0.003 A 
ATOM     10  C   UNL d   1     -38.620  12.934  17.622  0.00  0.00     0.019 A 
ATOM     11  C   UNL d   1     -38.611  15.275  15.961  0.00  0.00     0.019 A 
ATOM     12  C   UNL d   1     -38.164  12.527  17.048  0.00  0.00     0.002 A 
ATOM     13  C   UNL d   1     -38.162  14.873  15.395  0.00  0.00     0.002 A 
ATOM     14  C   UNL d   1     -37.940  14.088  15.526  0.00  0.00     0.000 A 
ATOM     15  C   UNL d   1     -37.940  12.911  16.354  0.00  0.00     0.000 A 
ENDROOT
BRANCH   6  16
ATOM     16  C   UNL d   1     -40.018  14.856  18.913  0.00  0.00     0.086 C 
BRANCH  16  17
ATOM     17  C   UNL d   1     -40.732  14.444  19.031  0.00  0.00     0.281 C 
ATOM     18  N   UNL d   1     -41.019  14.329  19.798  0.00  0.00    -0.208 NA
ATOM     19  O   UNL d   1     -41.154  14.150  18.385  0.00  0.00    -0.265 OA
BRANCH  18  20
ATOM     20  C   UNL d   1     -40.600  14.621  20.448  0.00  0.00     0.085 A 
ATOM     21  C   UNL d   1     -39.994  14.173  20.774  0.00  0.00     0.021 A 
ATOM     22  C   UNL d   1     -39.572  14.457  21.421  0.00  0.00     0.021 A 
ATOM     23  C   UNL d   1     -39.762  15.199  21.743  0.00  0.00     0.085 A 
ATOM     24  C   UNL d   1     -40.371  15.646  21.412  0.00  0.00     0.021 A 
ATOM     25  C   UNL d   1     -40.790  15.357  20.765  0.00  0.00     0.021 A 
BRANCH  23  26
ATOM     26  N   UNL d   1     -39.350  15.482  22.378  0.00  0.00    -0.208 NA
ATOM     27  C   UNL d   1     -38.552  15.635  22.310  0.00  0.00     0.279 C 
ATOM     28  O   UNL d   1     -38.168  15.505  21.609  0.00  0.00    -0.265 OA
ATOM     29  C   UNL d   1     -38.134  15.922  22.952  0.00  0.00     0.068 C 
ENDBRANCH  23  26
ENDBRANCH  18  20
ENDBRANCH  16  17
ENDBRANCH   6  16
TORSDOF 4
ENDMDL
MODEL 3
REMARK VINA RESULT:      -6.4      5.334      9.552
REMARK  4 active torsions:
REMARK  status: ('A' for Active; 'I' for Inactive)
REMARK    1  A    between atoms: C_8  and  C_6 
REMARK    2  A    between atoms: C_9  and  C_8 
REMARK       I    between atoms: N_11  and  C_9 
REMARK       I    between atoms: C_10  and  N_12 
REMARK    3  A    between atoms: C_17  and  N_11 
REMARK    4  A    between atoms: N_12  and  C_18 
ROOT
ATOM      1  N   UNL d   1     -39.449  15.241  17.219  0.00  0.00    -0.207 NA
ATOM      2  N   UNL d   1     -39.142  14.171  18.473  0.00  0.00    -0.240 NA
ATOM      3  C   UNL d   1     -39.647  15.252  18.008  0.00  0.00     0.297 A 
ATOM      4  C   UNL d   1     -39.024  14.680  16.788  0.00  0.00     0.086 A 
ATOM      5  C   UNL d   1     -38.763  13.766  17.868  0.00  0.00     0.083 A 
ATOM      6  C   UNL d   1     -39.542  14.888  18.430  0.00  0.00     0.144 A 
ATOM      7  C   UNL d   1     -38.686  13.971  17.069  0.00  0.00     0.035 A 
ATOM      8  O   UNL d   1     -40.081  15.906  18.254  0.00  0.00    -0.264 OA
ATOM      9  C   UNL d   1     -38.279  13.481  16.543  0.00  0.00     0.003 A 
ATOM     10  C   UNL d   1     -38.429  13.064  18.146  0.00  0.00     0.019 A 
ATOM     11  C   UNL d   1     -38.949  14.888  15.992  0.00  0.00     0.019 A 
ATOM     12  C   UNL d   1     -38.014  12.562  17.618  0.00  0.00     0.002 A 
ATOM     13  C   UNL d   1     -38.540  14.393  15.472  0.00  0.00     0.002 A 
ATOM     14  C   UNL d   1     -38.205  13.690  15.749  0.00  0.00     0.000 A 
ATOM     15  C   UNL d   1     -37.940  12.771  16.824  0.00  0.00     0.000 A 
ENDROOT
BRANCH   6  16
ATOM     16  C   UNL d   1     -39.855  15.130  19.153  0.00  0.00     0.086 C 
BRANCH  16  17
ATOM     17  C   UNL d   1     -39.353  15.475  19.721  0.00  0.00     0.281 C 
ATOM     18  N   UNL d   1     -39.543  15.422  20.524  0.00  0.00    -0.208 NA
ATOM     19  O   UNL d   1     -38.667  15.870  19.486  0.00  0.00    -0.265 OA
BRANCH  18  20
ATOM     20  C   UNL d   1     -40.229  15.029  20.765  0.00  0.00     0.085 A 
ATOM     21  C   UNL d   1     -40.177  14.256  21.040  0.00  0.00     0.021 A 
ATOM     22  C   UNL d   1     -40.856  13.858  21.282  0.00  0.00     0.021 A 
ATOM     23  C   UNL d   1     -41.592  14.239  21.246  0.00  0.00     0.085 A 
ATOM     24  C   UNL d   1     -41.640  15.015  20.968  0.00  0.00     0.021 A 
ATOM     25  C   UNL d   1     -40.959  15.409  20.728  0.00  0.00     0.021 A 
BRANCH  23  26
ATOM     26  N   UNL d   1     -42.261  13.851  21.482  0.00  0.00    -0.208 NA
ATOM     27  C   UNL d   1     -42.572  13.257  21.019  0.00  0.00     0.279 C 
ATOM     28  O   UNL d   1     -42.214  13.051  20.322  0.00  0.00    -0.265 OA
ATOM     29  C   UNL d   1     -43.248  12.863  21.256  0.00  0.00     0.068 C 
ENDBRANCH  23  26
ENDBRANCH  18  20
ENDBRANCH  16  17
ENDBRANCH   6  16
TORSDOF 4
ENDMDL
MODEL 4
REMARK VINA RESULT:      -6.2      7.736      9.617
REMARK  4 active torsions:
REMARK  status: ('A' for Active; 'I' for Inactive)
REMARK    1  A    between atoms: C_8  and  C_6 
REMARK    2  A    between atoms: C_9  and  C_8 
REMARK       I    between atoms: N_11  and  C_9 
REMARK       I    between atoms: C_10  and  N_12 
REMARK    3  A    between atoms: C_17  and  N_11 
REMARK    4  A    between atoms: N_12  and  C_18 
ROOT
ATOM      1  N   UNL d   1     -39.777  13.578  17.479  0.00  0.00    -0.207 NA
ATOM      2  N   UNL d   1     -39.291  15.053  18.113  0.00  0.00    -0.240 NA
ATOM      3  C   UNL d   1     -39.956  13.959  18.174  0.00  0.00     0.297 A 
ATOM      4  C   UNL d   1     -39.286  13.812  16.858  0.00  0.00     0.086 A 
ATOM      5  C   UNL d   1     -38.872  15.076  17.407  0.00  0.00     0.083 A 
ATOM      6  C   UNL d   1     -39.790  14.459  18.386  0.00  0.00     0.144 A 
ATOM      7  C   UNL d   1     -38.844  14.517  16.796  0.00  0.00     0.035 A 
ATOM      8  O   UNL d   1     -40.473  13.559  18.673  0.00  0.00    -0.264 OA
ATOM      9  C   UNL d   1     -38.382  14.648  16.124  0.00  0.00     0.003 A 
ATOM     10  C   UNL d   1     -38.435  15.774  17.346  0.00  0.00     0.019 A 
ATOM     11  C   UNL d   1     -39.259  13.252  16.250  0.00  0.00     0.019 A 
ATOM     12  C   UNL d   1     -37.965  15.913  16.667  0.00  0.00     0.002 A 
ATOM     13  C   UNL d   1     -38.795  13.391  15.581  0.00  0.00     0.002 A 
ATOM     14  C   UNL d   1     -38.358  14.088  15.519  0.00  0.00     0.000 A 
ATOM     15  C   UNL d   1     -37.940  15.354  16.062  0.00  0.00     0.000 A 
ENDROOT
BRANCH   6  16
ATOM     16  C   UNL d   1     -40.118  14.624  19.124  0.00  0.00     0.086 C 
BRANCH  16  17
ATOM     17  C   UNL d   1     -40.536  15.335  19.235  0.00  0.00     0.281 C 
ATOM     18  N   UNL d   1     -40.568  15.682  19.986  0.00  0.00    -0.208 NA
ATOM     19  O   UNL d   1     -40.920  15.696  18.599  0.00  0.00    -0.265 OA
BRANCH  18  20
ATOM     20  C   UNL d   1     -40.185  15.324  20.625  0.00  0.00     0.085 A 
ATOM     21  C   UNL d   1     -40.579  14.753  21.064  0.00  0.00     0.021 A 
ATOM     22  C   UNL d   1     -40.204  14.392  21.703  0.00  0.00     0.021 A 
ATOM     23  C   UNL d   1     -39.427  14.609  21.900  0.00  0.00     0.085 A 
ATOM     24  C   UNL d   1     -39.035  15.183  21.456  0.00  0.00     0.021 A 
ATOM     25  C   UNL d   1     -39.414  15.541  20.819  0.00  0.00     0.021 A 
BRANCH  23  26
ATOM     26  N   UNL d   1     -39.056  14.257  22.527  0.00  0.00    -0.208 NA
ATOM     27  C   UNL d   1     -38.564  13.619  22.402  0.00  0.00     0.279 C 
ATOM     28  O   UNL d   1     -38.445  13.334  21.654  0.00  0.00    -0.265 OA
ATOM     29  C   UNL d   1     -38.188  13.262  23.034  0.00  0.00     0.068 C 
ENDBRANCH  23  26
ENDBRANCH  18  20
ENDBRANCH  16  17
ENDBRANCH   6  16
TORSDOF 4
ENDMDL
