MODEL 1
REMARK VINA RESULT:      56.7      0.000      0.000
REMARK  4 active torsions:
REMARK  status: ('A' for Active; 'I' for Inactive)
REMARK    1  A    between atoms: C_3  and  C_14 
REMARK    2  A    between atoms: C_21  and  C_4 
REMARK    3  A    between atoms: S_15  and  C_5 
REMARK    4  A    between atoms: C_14  and  S_15 
ROOT
ATOM      1  C   UNL d   1     -50.849  24.820  33.448  0.00  0.00     0.092 A 
ATOM      2  C   UNL d   1     -50.335  26.146  33.392  0.00  0.00     0.057 A 
ATOM      3  C   UNL d   1     -50.206  25.334  33.423  0.00  0.00     0.016 A 
ATOM      4  C   UNL d   1     -51.619  25.120  33.444  0.00  0.00     0.120 A 
ATOM      5  N   UNL d   1     -51.751  25.924  33.414  0.00  0.00    -0.239 NA
ATOM      6  C   UNL d   1     -51.104  26.446  33.388  0.00  0.00     0.081 A 
ATOM      7  C   UNL d   1     -49.690  26.664  33.367  0.00  0.00     0.193 A 
ATOM      8  C   UNL d   1     -50.722  24.006  33.479  0.00  0.00     0.103 C 
ATOM      9  N   UNL d   1     -50.596  23.191  33.509  0.00  0.00    -0.191 NA
ATOM     10  C   UNL d   1     -50.593  27.783  33.331  0.00  0.00     0.042 A 
ATOM     11  C   UNL d   1     -49.811  27.486  33.336  0.00  0.00     0.019 A 
ATOM     12  C   UNL d   1     -51.241  27.266  33.357  0.00  0.00    -0.003 A 
ATOM     13  O   UNL d   1     -48.919  26.363  33.371  0.00  0.00    -0.287 OA
ATOM     14  C   UNL d   1     -51.250  28.276  33.318  0.00  0.00     0.009 C 
ATOM     15  C   UNL d   1     -49.943  28.294  33.306  0.00  0.00     0.009 C 
ENDROOT
BRANCH   3  16
ATOM     16  C   UNL d   1     -49.436  25.035  33.428  0.00  0.00     0.001 C 
ATOM     17  C   UNL d   1     -48.807  25.547  33.313  0.00  0.00     0.000 C 
ENDBRANCH   3  16
BRANCH   4  18
ATOM     18  S   UNL d   1     -52.260  24.600  33.470  0.00  0.00    -0.067 SA
BRANCH  18  19
ATOM     19  C   UNL d   1     -52.951  24.825  33.860  0.00  0.00     0.041 C 
BRANCH  19  20
ATOM     20  C   UNL d   1     -53.441  24.253  34.197  0.00  0.00     0.051 A 
ATOM     21  C   UNL d   1     -53.752  23.652  33.885  0.00  0.00     0.127 A 
ATOM     22  O   UNL d   1     -54.210  23.190  34.359  0.00  0.00    -0.211 OA
ATOM     23  C   UNL d   1     -53.886  23.191  33.309  0.00  0.00     0.029 C 
ATOM     24  N   UNL d   1     -54.165  23.581  35.072  0.00  0.00    -0.126 NA
ATOM     25  C   UNL d   1     -53.691  24.239  34.978  0.00  0.00     0.111 A 
ATOM     26  C   UNL d   1     -53.498  24.787  35.555  0.00  0.00     0.023 C 
ENDBRANCH  19  20
ENDBRANCH  18  19
ENDBRANCH   4  18
TORSDOF 4
ENDMDL
