MODEL 1
REMARK VINA RESULT:     160.9      0.000      0.000
REMARK  8 active torsions:
REMARK  status: ('A' for Active; 'I' for Inactive)
REMARK    1  A    between atoms: C_10  and  C_3 
REMARK       I    between atoms: N_14  and  C_10 
REMARK    2  A    between atoms: C_12  and  C_13 
REMARK       I    between atoms: N_21  and  C_12 
REMARK    3  A    between atoms: C_29  and  N_14 
REMARK    4  A    between atoms: C_28  and  N_21 
REMARK    5  A    between atoms: O_30  and  C_22 
REMARK    6  A    between atoms: C_23  and  C_31 
REMARK    7  A    between atoms: C_31  and  C_28 
REMARK    8  A    between atoms: C_32  and  O_30 
ROOT
ATOM      1  N   UNL d   1     -55.512-100.633 -41.899  0.00  0.00    -0.277 N 
ATOM      2  C   UNL d   1     -55.517-101.318 -41.425  0.00  0.00     0.163 A 
ATOM      3  C   UNL d   1     -55.635-101.080 -40.642  0.00  0.00     0.124 A 
ATOM      4  C   UNL d   1     -55.626 -99.980 -41.402  0.00  0.00     0.152 A 
ATOM      5  N   UNL d   1     -55.415-102.059 -41.769  0.00  0.00    -0.190 NA
ATOM      6  S   UNL d   1     -55.701-100.263 -40.626  0.00  0.00    -0.051 SA
ATOM      7  C   UNL d   1     -55.404-100.694 -42.712  0.00  0.00     0.071 A 
ATOM      8  C   UNL d   1     -55.302-101.435 -43.057  0.00  0.00     0.074 A 
ATOM      9  C   UNL d   1     -55.307-102.121 -42.584  0.00  0.00     0.282 A 
ATOM     10  C   UNL d   1     -55.399-100.012 -43.184  0.00  0.00     0.023 A 
ATOM     11  C   UNL d   1     -55.291-100.075 -43.998  0.00  0.00     0.059 A 
ATOM     12  S   UNL d   1     -55.658 -99.191 -41.647  0.00  0.00    -0.052 SA
ATOM     13  C   UNL d   1     -55.194-101.499 -43.875  0.00  0.00     0.006 A 
ATOM     14  O   UNL d   1     -55.204-102.872 -42.936  0.00  0.00    -0.265 OA
ATOM     15  C   UNL d   1     -55.189-100.817 -44.347  0.00  0.00     0.005 A 
ENDROOT
BRANCH  11  16
ATOM     16  C   UNL d   1     -55.286 -99.396 -44.467  0.00  0.00     0.279 C 
ATOM     17  O   UNL d   1     -54.737 -98.799 -44.323  0.00  0.00    -0.265 OA
ATOM     18  N   UNL d   1     -55.829 -99.313 -45.080  0.00  0.00    -0.206 NA
BRANCH  18  19
ATOM     19  C   UNL d   1     -56.378 -99.910 -45.224  0.00  0.00     0.102 C 
BRANCH  19  20
ATOM     20  C   UNL d   1     -57.151 -99.832 -44.957  0.00  0.00     0.021 C 
BRANCH  20  21
ATOM     21  C   UNL d   1     -57.770 -99.790 -45.505  0.00  0.00     0.002 A 
ATOM     22  C   UNL d   1     -58.454 -99.376 -45.310  0.00  0.00     0.002 A 
ATOM     23  C   UNL d   1     -59.074 -99.331 -45.850  0.00  0.00     0.025 A 
ATOM     24  C   UNL d   1     -59.009 -99.700 -46.585  0.00  0.00     0.100 A 
ATOM     25  C   UNL d   1     -58.325-100.115 -46.780  0.00  0.00     0.025 A 
ATOM     26  C   UNL d   1     -57.705-100.159 -46.240  0.00  0.00     0.002 A 
BRANCH  24  27
ATOM     27  O   UNL d   1     -59.633 -99.654 -47.127  0.00  0.00    -0.305 OA
BRANCH  27  28
ATOM     28  C   UNL d   1     -59.482 -99.456 -47.912  0.00  0.00     0.123 C 
ATOM     29  C   UNL d   1     -58.773 -99.072 -48.115  0.00  0.00     0.029 C 
ENDBRANCH  27  28
ENDBRANCH  24  27
ENDBRANCH  20  21
ENDBRANCH  19  20
ENDBRANCH  18  19
ENDBRANCH  11  16
BRANCH   3  30
ATOM     30  C   UNL d   1     -55.676-101.587 -39.991  0.00  0.00     0.288 C 
ATOM     31  N   UNL d   1     -55.174-101.470 -39.345  0.00  0.00    -0.207 NA
ATOM     32  O   UNL d   1     -56.215-102.209 -39.981  0.00  0.00    -0.265 OA
BRANCH  31  33
ATOM     33  C   UNL d   1     -55.213-101.975 -38.692  0.00  0.00     0.085 C 
ATOM     34  C   UNL d   1     -55.078-101.686 -37.938  0.00  0.00     0.021 C 
ATOM     35  C   UNL d   1     -55.388-102.776 -38.798  0.00  0.00     0.021 C 
ENDBRANCH  31  33
ENDBRANCH   3  30
TORSDOF 8
ENDMDL
