MODEL 1
REMARK VINA RESULT:      41.9      0.000      0.000
REMARK  3 active torsions:
REMARK  status: ('A' for Active; 'I' for Inactive)
REMARK    1  A    between atoms: C_4  and  C_1 
REMARK    2  A    between atoms: N_2  and  C_9 
REMARK       I    between atoms: N_7  and  C_4 
REMARK    3  A    between atoms: C_11  and  N_7 
ROOT
ATOM      1  C   UNL d   1      59.334  49.621  51.366  0.00  0.00     0.087 A 
ATOM      2  S   UNL d   1      60.004  49.640  50.885  0.00  0.00    -0.082 SA
ATOM      3  C   UNL d   1      59.578  49.624  52.145  0.00  0.00     0.012 A 
ATOM      4  C   UNL d   1      60.407  49.645  52.163  0.00  0.00     0.008 A 
ATOM      5  C   UNL d   1      60.679  49.655  51.361  0.00  0.00     0.030 A 
ATOM      6  C   UNL d   1      61.744  49.676  52.616  0.00  0.00     0.127 A 
ATOM      7  C   UNL d   1      60.945  49.656  52.771  0.00  0.00     0.024 A 
ATOM      8  C   UNL d   1      61.472  49.675  51.212  0.00  0.00     0.008 A 
ATOM      9  C   UNL d   1      62.016  49.686  51.814  0.00  0.00     0.024 A 
ENDROOT
BRANCH   1  10
ATOM     10  C   UNL d   1      58.553  49.602  51.102  0.00  0.00     0.286 C 
ATOM     11  N   UNL d   1      58.378  49.670  50.299  0.00  0.00    -0.189 NA
ATOM     12  O   UNL d   1      57.924  49.513  51.651  0.00  0.00    -0.265 OA
BRANCH  11  13
ATOM     13  C   UNL d   1      57.602  49.654  50.018  0.00  0.00     0.166 A 
ATOM     14  N   UNL d   1      57.478  49.681  49.192  0.00  0.00    -0.225 NA
ATOM     15  C   UNL d   1      56.708  49.666  48.894  0.00  0.00     0.101 A 
ATOM     16  C   UNL d   1      56.057  49.622  49.419  0.00  0.00     0.021 A 
ATOM     17  C   UNL d   1      56.183  49.595  50.222  0.00  0.00     0.005 A 
ATOM     18  C   UNL d   1      56.962  49.611  50.524  0.00  0.00     0.039 A 
ENDBRANCH  11  13
ENDBRANCH   1  10
BRANCH   6  19
ATOM     19  N   UNL d   1      62.320  49.688  53.236  0.00  0.00    -0.114 N 
ATOM     20  O   UNL d   1      62.105  49.694  54.018  0.00  0.00    -0.532 OA
ATOM     21  O   UNL d   1      63.123  49.694  53.030  0.00  0.00    -0.532 OA
ENDBRANCH   6  19
TORSDOF 3
ENDMDL
