MODEL 1
REMARK VINA RESULT:       5.4      0.000      0.000
REMARK  0 active torsions:
REMARK  status: ('A' for Active; 'I' for Inactive)
ROOT
ATOM      1  N   UNL d   1     -53.050  24.444  33.311  0.00  0.00    -0.152 NA
ATOM      2  C   UNL d   1     -52.340  24.854  33.309  0.00  0.00     0.284 A 
ATOM      3  C   UNL d   1     -53.047  23.609  33.315  0.00  0.00     0.371 A 
ATOM      4  C   UNL d   1     -51.622  24.444  33.310  0.00  0.00     0.076 A 
ATOM      5  N   UNL d   1     -52.329  23.199  33.316  0.00  0.00    -0.191 NA
ATOM      6  C   UNL d   1     -51.614  23.619  33.314  0.00  0.00     0.091 A 
ATOM      7  O   UNL d   1     -52.343  25.680  33.306  0.00  0.00    -0.265 OA
ATOM      8  O   UNL d   1     -53.761  23.194  33.317  0.00  0.00    -0.242 OA
ATOM      9  C   UNL d   1     -50.912  24.864  33.308  0.00  0.00     0.006 A 
ATOM     10  C   UNL d   1     -50.896  23.213  33.315  0.00  0.00     0.019 A 
ATOM     11  C   UNL d   1     -50.194  24.458  33.309  0.00  0.00     0.000 A 
ATOM     12  C   UNL d   1     -50.186  23.633  33.313  0.00  0.00     0.002 A 
ENDROOT
TORSDOF 0
ENDMDL
