MODEL 1
REMARK VINA RESULT:      -6.5      0.000      0.000
REMARK  4 active torsions:
REMARK  status: ('A' for Active; 'I' for Inactive)
REMARK    1  A    between atoms: C_12  and  N_1 
REMARK    2  A    between atoms: N_3  and  C_11 
REMARK    3  A    between atoms: C_11  and  C_15 
REMARK    4  A    between atoms: C_15  and  C_12 
ROOT
ATOM      1  N   UNL d   1     -49.003  12.837  23.499  0.00  0.00    -0.303 N 
ATOM      2  C   UNL d   1     -49.634  12.296  23.478  0.00  0.00     0.064 A 
ATOM      3  C   UNL d   1     -50.313  12.707  23.253  0.00  0.00     0.018 A 
ATOM      4  C   UNL d   1     -50.110  13.499  23.135  0.00  0.00     0.018 A 
ATOM      5  C   UNL d   1     -49.296  13.579  23.287  0.00  0.00     0.064 A 
ATOM      6  C   UNL d   1     -48.934  14.318  23.212  0.00  0.00     0.018 A 
ATOM      7  C   UNL d   1     -50.554  14.157  22.908  0.00  0.00     0.002 A 
ATOM      8  C   UNL d   1     -49.378  14.972  22.987  0.00  0.00     0.002 A 
ATOM      9  C   UNL d   1     -50.184  14.892  22.836  0.00  0.00     0.000 A 
ATOM     10  C   UNL d   1     -49.587  11.492  23.651  0.00  0.00     0.019 C 
ATOM     11  C   UNL d   1     -51.064  12.379  23.164  0.00  0.00     0.002 C 
ATOM     12  C   UNL d   1     -50.627  15.547  22.610  0.00  0.00     0.000 C 
ENDROOT
BRANCH   1  13
ATOM     13  C   UNL d   1     -48.219  12.661  23.698  0.00  0.00     0.124 C 
BRANCH  13  14
ATOM     14  C   UNL d   1     -47.679  12.474  23.100  0.00  0.00     0.232 C 
ATOM     15  O   UNL d   1     -47.895  11.960  22.501  0.00  0.00    -0.283 OA
BRANCH  14  16
ATOM     16  C   UNL d   1     -46.926  12.808  23.114  0.00  0.00     0.144 C 
BRANCH  16  17
ATOM     17  N   UNL d   1     -46.257  12.331  23.111  0.00  0.00    -0.225 N 
ATOM     18  N   UNL d   1     -46.168  11.628  23.540  0.00  0.00    -0.165 NA
ATOM     19  C   UNL d   1     -45.413  11.326  23.378  0.00  0.00     0.103 A 
ATOM     20  C   UNL d   1     -45.085  10.636  23.683  0.00  0.00     0.022 C 
ATOM     21  C   UNL d   1     -45.038  11.844  22.849  0.00  0.00     0.040 A 
ATOM     22  C   UNL d   1     -45.563  12.464  22.686  0.00  0.00     0.085 A 
ATOM     23  C   UNL d   1     -45.418  13.103  22.188  0.00  0.00     0.021 C 
ENDBRANCH  16  17
ENDBRANCH  14  16
ENDBRANCH  13  14
ENDBRANCH   1  13
TORSDOF 4
ENDMDL
MODEL 2
REMARK VINA RESULT:      -6.2      8.520     10.257
REMARK  4 active torsions:
REMARK  status: ('A' for Active; 'I' for Inactive)
REMARK    1  A    between atoms: C_12  and  N_1 
REMARK    2  A    between atoms: N_3  and  C_11 
REMARK    3  A    between atoms: C_11  and  C_15 
REMARK    4  A    between atoms: C_15  and  C_12 
ROOT
ATOM      1  N   UNL d   1     -39.704  14.906  19.510  0.00  0.00    -0.303 N 
ATOM      2  C   UNL d   1     -40.370  15.393  19.608  0.00  0.00     0.064 A 
ATOM      3  C   UNL d   1     -40.559  15.407  20.411  0.00  0.00     0.018 A 
ATOM      4  C   UNL d   1     -40.015  14.932  20.813  0.00  0.00     0.018 A 
ATOM      5  C   UNL d   1     -39.484  14.621  20.253  0.00  0.00     0.064 A 
ATOM      6  C   UNL d   1     -38.874  14.121  20.498  0.00  0.00     0.018 A 
ATOM      7  C   UNL d   1     -39.930  14.741  21.612  0.00  0.00     0.002 A 
ATOM      8  C   UNL d   1     -38.791  13.932  21.293  0.00  0.00     0.002 A 
ATOM      9  C   UNL d   1     -39.317  14.240  21.848  0.00  0.00     0.000 A 
ATOM     10  C   UNL d   1     -40.770  15.791  19.008  0.00  0.00     0.019 C 
ATOM     11  C   UNL d   1     -41.184  15.824  20.750  0.00  0.00     0.002 C 
ATOM     12  C   UNL d   1     -39.234  14.050  22.644  0.00  0.00     0.000 C 
ENDROOT
BRANCH   1  13
ATOM     13  C   UNL d   1     -39.327  14.737  18.792  0.00  0.00     0.124 C 
BRANCH  13  14
ATOM     14  C   UNL d   1     -39.556  14.070  18.359  0.00  0.00     0.232 C 
ATOM     15  O   UNL d   1     -40.327  14.000  18.094  0.00  0.00    -0.283 OA
BRANCH  14  16
ATOM     16  C   UNL d   1     -39.003  13.481  18.200  0.00  0.00     0.144 C 
BRANCH  16  17
ATOM     17  N   UNL d   1     -38.660  13.420  17.455  0.00  0.00    -0.225 N 
ATOM     18  N   UNL d   1     -38.750  13.968  16.841  0.00  0.00    -0.165 NA
ATOM     19  C   UNL d   1     -38.314  13.694  16.191  0.00  0.00     0.103 A 
ATOM     20  C   UNL d   1     -38.243  14.061  15.458  0.00  0.00     0.022 C 
ATOM     21  C   UNL d   1     -37.956  12.978  16.407  0.00  0.00     0.040 A 
ATOM     22  C   UNL d   1     -38.172  12.811  17.190  0.00  0.00     0.085 A 
ATOM     23  C   UNL d   1     -37.941  12.154  17.627  0.00  0.00     0.021 C 
ENDBRANCH  16  17
ENDBRANCH  14  16
ENDBRANCH  13  14
ENDBRANCH   1  13
TORSDOF 4
ENDMDL
MODEL 3
REMARK VINA RESULT:      -6.2      9.416     10.110
REMARK  4 active torsions:
REMARK  status: ('A' for Active; 'I' for Inactive)
REMARK    1  A    between atoms: C_12  and  N_1 
REMARK    2  A    between atoms: N_3  and  C_11 
REMARK    3  A    between atoms: C_11  and  C_15 
REMARK    4  A    between atoms: C_15  and  C_12 
ROOT
ATOM      1  N   UNL d   1     -39.432  14.059  18.512  0.00  0.00    -0.303 N 
ATOM      2  C   UNL d   1     -38.931  13.755  17.922  0.00  0.00     0.064 A 
ATOM      3  C   UNL d   1     -39.172  14.067  17.197  0.00  0.00     0.018 A 
ATOM      4  C   UNL d   1     -39.819  14.564  17.332  0.00  0.00     0.018 A 
ATOM      5  C   UNL d   1     -39.980  14.558  18.148  0.00  0.00     0.064 A 
ATOM      6  C   UNL d   1     -40.604  15.009  18.448  0.00  0.00     0.018 A 
ATOM      7  C   UNL d   1     -40.283  15.020  16.823  0.00  0.00     0.002 A 
ATOM      8  C   UNL d   1     -41.065  15.462  17.940  0.00  0.00     0.002 A 
ATOM      9  C   UNL d   1     -40.905  15.467  17.132  0.00  0.00     0.000 A 
ATOM     10  C   UNL d   1     -38.305  13.233  18.042  0.00  0.00     0.019 C 
ATOM     11  C   UNL d   1     -38.825  13.909  16.467  0.00  0.00     0.002 C 
ATOM     12  C   UNL d   1     -41.367  15.921  16.624  0.00  0.00     0.000 C 
ENDROOT
BRANCH   1  13
ATOM     13  C   UNL d   1     -39.388  13.890  19.321  0.00  0.00     0.124 C 
BRANCH  13  14
ATOM     14  C   UNL d   1     -38.903  14.351  19.808  0.00  0.00     0.232 C 
ATOM     15  O   UNL d   1     -38.109  14.437  19.630  0.00  0.00    -0.283 OA
BRANCH  14  16
ATOM     16  C   UNL d   1     -39.227  14.721  20.468  0.00  0.00     0.144 C 
BRANCH  16  17
ATOM     17  N   UNL d   1     -39.030  14.471  21.226  0.00  0.00    -0.225 N 
ATOM     18  N   UNL d   1     -38.660  13.754  21.413  0.00  0.00    -0.165 NA
ATOM     19  C   UNL d   1     -38.564  13.725  22.235  0.00  0.00     0.103 A 
ATOM     20  C   UNL d   1     -38.222  13.115  22.668  0.00  0.00     0.022 C 
ATOM     21  C   UNL d   1     -38.874  14.425  22.554  0.00  0.00     0.040 A 
ATOM     22  C   UNL d   1     -39.161  14.885  21.927  0.00  0.00     0.085 A 
ATOM     23  C   UNL d   1     -39.516  15.624  21.991  0.00  0.00     0.021 C 
ENDBRANCH  16  17
ENDBRANCH  14  16
ENDBRANCH  13  14
ENDBRANCH   1  13
TORSDOF 4
ENDMDL
MODEL 4
REMARK VINA RESULT:      -5.9      9.334     10.502
REMARK  4 active torsions:
REMARK  status: ('A' for Active; 'I' for Inactive)
REMARK    1  A    between atoms: C_12  and  N_1 
REMARK    2  A    between atoms: N_3  and  C_11 
REMARK    3  A    between atoms: C_11  and  C_15 
REMARK    4  A    between atoms: C_15  and  C_12 
ROOT
ATOM      1  N   UNL d   1     -39.425  15.103  18.301  0.00  0.00    -0.303 N 
ATOM      2  C   UNL d   1     -40.091  15.468  17.961  0.00  0.00     0.064 A 
ATOM      3  C   UNL d   1     -40.092  15.294  17.154  0.00  0.00     0.018 A 
ATOM      4  C   UNL d   1     -39.433  14.824  16.989  0.00  0.00     0.018 A 
ATOM      5  C   UNL d   1     -39.019  14.706  17.701  0.00  0.00     0.064 A 
ATOM      6  C   UNL d   1     -38.328  14.253  17.705  0.00  0.00     0.018 A 
ATOM      7  C   UNL d   1     -39.153  14.488  16.289  0.00  0.00     0.002 A 
ATOM      8  C   UNL d   1     -38.051  13.919  17.007  0.00  0.00     0.002 A 
ATOM      9  C   UNL d   1     -38.462  14.037  16.302  0.00  0.00     0.000 A 
ATOM     10  C   UNL d   1     -40.649  15.922  18.362  0.00  0.00     0.019 C 
ATOM     11  C   UNL d   1     -40.657  15.547  16.610  0.00  0.00     0.002 C 
ATOM     12  C   UNL d   1     -38.185  13.703  15.603  0.00  0.00     0.000 C 
ENDROOT
BRANCH   1  13
ATOM     13  C   UNL d   1     -39.208  15.134  19.098  0.00  0.00     0.124 C 
BRANCH  13  14
ATOM     14  C   UNL d   1     -39.670  14.740  19.661  0.00  0.00     0.232 C 
ATOM     15  O   UNL d   1     -39.986  14.006  19.490  0.00  0.00    -0.283 OA
BRANCH  14  16
ATOM     16  C   UNL d   1     -39.806  15.095  20.392  0.00  0.00     0.144 C 
BRANCH  16  17
ATOM     17  N   UNL d   1     -39.466  14.790  21.075  0.00  0.00    -0.225 N 
ATOM     18  N   UNL d   1     -39.116  14.042  21.143  0.00  0.00    -0.165 NA
ATOM     19  C   UNL d   1     -38.845  13.959  21.921  0.00  0.00     0.103 A 
ATOM     20  C   UNL d   1     -38.461  13.305  22.240  0.00  0.00     0.022 C 
ATOM     21  C   UNL d   1     -39.028  14.656  22.332  0.00  0.00     0.040 A 
ATOM     22  C   UNL d   1     -39.412  15.168  21.806  0.00  0.00     0.085 A 
ATOM     23  C   UNL d   1     -39.691  15.922  21.980  0.00  0.00     0.021 C 
ENDBRANCH  16  17
ENDBRANCH  14  16
ENDBRANCH  13  14
ENDBRANCH   1  13
TORSDOF 4
ENDMDL
