MODEL 1
REMARK VINA RESULT:      19.2      0.000      0.000
REMARK  8 active torsions:
REMARK  status: ('A' for Active; 'I' for Inactive)
REMARK    1  A    between atoms: N_5  and  C_1 
REMARK    2  A    between atoms: N_8  and  C_3 
REMARK    3  A    between atoms: C_17  and  N_8 
REMARK    4  A    between atoms: C_28  and  N_9 
REMARK    5  A    between atoms: C_10  and  C_17 
REMARK    6  A    between atoms: C_20  and  O_27 
REMARK    7  A    between atoms: O_27  and  C_29 
REMARK    8  A    between atoms: C_29  and  C_28 
ROOT
ATOM      1  C   UNL d   1      30.565  17.234 -24.247  0.00  0.00     0.737 A 
ATOM      2  N   UNL d   1      30.606  17.953 -23.884  0.00  0.00    -0.041 NA
ATOM      3  C   UNL d   1      31.282  18.380 -23.906  0.00  0.00     0.182 A 
ATOM      4  N   UNL d   1      31.210  16.943 -24.634  0.00  0.00    -0.060 NA
ATOM      5  C   UNL d   1      31.927  18.093 -24.292  0.00  0.00     0.055 A 
ATOM      6  C   UNL d   1      31.896  17.379 -24.656  0.00  0.00     0.103 A 
ATOM      7  C   UNL d   1      32.604  18.524 -24.313  0.00  0.00     0.005 A 
ATOM      8  C   UNL d   1      32.542  17.092 -25.042  0.00  0.00     0.020 A 
ATOM      9  C   UNL d   1      33.240  18.240 -24.694  0.00  0.00     0.000 A 
ATOM     10  C   UNL d   1      33.209  17.526 -25.057  0.00  0.00     0.002 A 
ENDROOT
BRANCH   1  11
ATOM     11  N   UNL d   1      29.874  16.793 -24.226  0.00  0.00    -0.134 N 
ATOM     12  C   UNL d   1      29.855  16.065 -23.816  0.00  0.00     0.117 A 
ATOM     13  C   UNL d   1      29.159  15.623 -23.797  0.00  0.00     0.100 A 
ATOM     14  N   UNL d   1      28.478  15.895 -24.181  0.00  0.00    -0.298 N 
ATOM     15  C   UNL d   1      28.498  16.624 -24.591  0.00  0.00     0.100 A 
ATOM     16  C   UNL d   1      29.197  17.065 -24.609  0.00  0.00     0.117 A 
BRANCH  14  17
ATOM     17  C   UNL d   1      27.783  15.454 -24.162  0.00  0.00     0.107 C 
BRANCH  17  18
ATOM     18  C   UNL d   1      27.051  15.827 -24.060  0.00  0.00     0.142 C 
BRANCH  18  19
ATOM     19  O   UNL d   1      26.475  15.506 -23.551  0.00  0.00    -0.304 OA
BRANCH  19  20
ATOM     20  C   UNL d   1      26.107  15.972 -22.982  0.00  0.00     0.100 A 
ATOM     21  C   UNL d   1      25.357  15.758 -22.689  0.00  0.00     0.025 A 
ATOM     22  C   UNL d   1      24.992  16.228 -22.118  0.00  0.00     0.002 A 
ATOM     23  C   UNL d   1      25.367  16.917 -21.832  0.00  0.00     0.000 A 
ATOM     24  C   UNL d   1      26.116  17.130 -22.126  0.00  0.00     0.002 A 
ATOM     25  C   UNL d   1      24.993  17.389 -21.256  0.00  0.00     0.000 C 
ATOM     26  C   UNL d   1      26.485  16.651 -22.705  0.00  0.00     0.025 A 
ENDBRANCH  19  20
ENDBRANCH  18  19
ENDBRANCH  17  18
ENDBRANCH  14  17
ENDBRANCH   1  11
BRANCH   3  27
ATOM     27  N   UNL d   1      31.312  19.086 -23.547  0.00  0.00    -0.223 NA
BRANCH  27  28
ATOM     28  C   UNL d   1      31.924  19.284 -23.126  0.00  0.00     0.125 C 
BRANCH  28  29
ATOM     29  C   UNL d   1      32.271  19.728 -22.421  0.00  0.00     0.119 A 
ATOM     30  O   UNL d   1      32.843  19.623 -21.561  0.00  0.00    -0.304 OA
ATOM     31  C   UNL d   1      32.917  20.593 -21.095  0.00  0.00     0.123 A 
ATOM     32  C   UNL d   1      32.434  20.888 -21.747  0.00  0.00     0.029 A 
ATOM     33  C   UNL d   1      32.161  20.539 -22.302  0.00  0.00     0.028 A 
ENDBRANCH  28  29
ENDBRANCH  27  28
ENDBRANCH   3  27
TORSDOF 8
ENDMDL
MODEL 2
REMARK VINA RESULT:      20.5      1.173      6.042
REMARK  8 active torsions:
REMARK  status: ('A' for Active; 'I' for Inactive)
REMARK    1  A    between atoms: N_5  and  C_1 
REMARK    2  A    between atoms: N_8  and  C_3 
REMARK    3  A    between atoms: C_17  and  N_8 
REMARK    4  A    between atoms: C_28  and  N_9 
REMARK    5  A    between atoms: C_10  and  C_17 
REMARK    6  A    between atoms: C_20  and  O_27 
REMARK    7  A    between atoms: O_27  and  C_29 
REMARK    8  A    between atoms: C_29  and  C_28 
ROOT
ATOM      1  C   UNL d   1      30.496  17.167 -23.388  0.00  0.00     0.737 A 
ATOM      2  N   UNL d   1      30.053  16.918 -22.761  0.00  0.00    -0.041 NA
ATOM      3  C   UNL d   1      29.429  16.431 -22.874  0.00  0.00     0.182 A 
ATOM      4  N   UNL d   1      30.308  16.923 -24.134  0.00  0.00    -0.060 NA
ATOM      5  C   UNL d   1      29.239  16.185 -23.617  0.00  0.00     0.055 A 
ATOM      6  C   UNL d   1      29.673  16.428 -24.246  0.00  0.00     0.103 A 
ATOM      7  C   UNL d   1      28.611  15.696 -23.727  0.00  0.00     0.005 A 
ATOM      8  C   UNL d   1      29.482  16.182 -24.989  0.00  0.00     0.020 A 
ATOM      9  C   UNL d   1      28.425  15.455 -24.460  0.00  0.00     0.000 A 
ATOM     10  C   UNL d   1      28.859  15.697 -25.089  0.00  0.00     0.002 A 
ENDROOT
BRANCH   1  11
ATOM     11  N   UNL d   1      31.136  17.666 -23.276  0.00  0.00    -0.134 N 
ATOM     12  C   UNL d   1      31.913  17.356 -23.277  0.00  0.00     0.117 A 
ATOM     13  C   UNL d   1      32.555  17.860 -23.165  0.00  0.00     0.100 A 
ATOM     14  N   UNL d   1      32.438  18.672 -23.051  0.00  0.00    -0.298 N 
ATOM     15  C   UNL d   1      31.661  18.981 -23.050  0.00  0.00     0.100 A 
ATOM     16  C   UNL d   1      31.017  18.474 -23.163  0.00  0.00     0.117 A 
BRANCH  14  17
ATOM     17  C   UNL d   1      33.080  19.175 -22.938  0.00  0.00     0.107 C 
BRANCH  17  18
ATOM     18  C   UNL d   1      33.108  19.680 -22.283  0.00  0.00     0.142 C 
BRANCH  18  19
ATOM     19  O   UNL d   1      33.239  20.497 -22.378  0.00  0.00    -0.304 OA
BRANCH  19  20
ATOM     20  C   UNL d   1      32.991  21.034 -21.807  0.00  0.00     0.100 A 
ATOM     21  C   UNL d   1      33.235  20.944 -21.015  0.00  0.00     0.025 A 
ATOM     22  C   UNL d   1      32.984  21.485 -20.446  0.00  0.00     0.002 A 
ATOM     23  C   UNL d   1      32.487  22.122 -20.656  0.00  0.00     0.000 A 
ATOM     24  C   UNL d   1      32.244  22.211 -21.447  0.00  0.00     0.002 A 
ATOM     25  C   UNL d   1      32.236  22.666 -20.077  0.00  0.00     0.000 C 
ATOM     26  C   UNL d   1      32.500  21.661 -22.023  0.00  0.00     0.025 A 
ENDBRANCH  19  20
ENDBRANCH  18  19
ENDBRANCH  17  18
ENDBRANCH  14  17
ENDBRANCH   1  11
BRANCH   3  27
ATOM     27  N   UNL d   1      29.000  16.191 -22.253  0.00  0.00    -0.223 NA
BRANCH  27  28
ATOM     28  C   UNL d   1      28.243  16.077 -22.321  0.00  0.00     0.125 C 
BRANCH  28  29
ATOM     29  C   UNL d   1      27.409  16.416 -22.390  0.00  0.00     0.119 A 
ATOM     30  O   UNL d   1      26.849  17.197 -22.781  0.00  0.00    -0.304 OA
ATOM     31  C   UNL d   1      25.819  17.035 -22.505  0.00  0.00     0.123 A 
ATOM     32  C   UNL d   1      26.091  16.319 -22.106  0.00  0.00     0.029 A 
ATOM     33  C   UNL d   1      26.747  16.053 -22.051  0.00  0.00     0.028 A 
ENDBRANCH  28  29
ENDBRANCH  27  28
ENDBRANCH   3  27
TORSDOF 8
ENDMDL
