MODEL 1
REMARK VINA RESULT:      -5.8      0.000      0.000
REMARK  1 active torsions:
REMARK  status: ('A' for Active; 'I' for Inactive)
REMARK       I    between atoms: N_2  and  C_1 
REMARK    1  A    between atoms: C_5  and  N_2 
ROOT
ATOM      1  C   UNL d   1     -48.738  11.546  23.107  0.00  0.00     0.100 A 
ATOM      2  C   UNL d   1     -50.183  12.267  22.749  0.00  0.00     0.058 A 
ATOM      3 CL   UNL d   1     -50.901  12.626  22.569  0.00  0.00    -0.082 Cl
ATOM      4  C   UNL d   1     -49.313  11.648  23.698  0.00  0.00     0.021 A 
ATOM      5  C   UNL d   1     -48.889  11.807  22.339  0.00  0.00     0.021 A 
ATOM      6  C   UNL d   1     -50.032  12.007  23.517  0.00  0.00     0.013 A 
ATOM      7  C   UNL d   1     -49.614  12.168  22.161  0.00  0.00     0.013 A 
ENDROOT
BRANCH   1   8
ATOM      8  N   UNL d   1     -48.018  11.186  23.292  0.00  0.00    -0.056 NA
ATOM      9  C   UNL d   1     -47.370  11.642  23.511  0.00  0.00     0.787 C 
ATOM     10  N   UNL d   1     -46.651  11.287  23.695  0.00  0.00     0.064 N 
ATOM     11  N   UNL d   1     -47.445  12.463  23.545  0.00  0.00     0.064 N 
ENDBRANCH   1   8
TORSDOF 1
ENDMDL
MODEL 2
REMARK VINA RESULT:      -5.6      2.210      2.968
REMARK  1 active torsions:
REMARK  status: ('A' for Active; 'I' for Inactive)
REMARK       I    between atoms: N_2  and  C_1 
REMARK    1  A    between atoms: C_5  and  N_2 
ROOT
ATOM      1  C   UNL d   1     -48.053  12.802  23.233  0.00  0.00     0.100 A 
ATOM      2  C   UNL d   1     -46.575  13.406  22.804  0.00  0.00     0.058 A 
ATOM      3 CL   UNL d   1     -45.839  13.705  22.591  0.00  0.00    -0.082 Cl
ATOM      4  C   UNL d   1     -47.995  13.547  22.872  0.00  0.00     0.021 A 
ATOM      5  C   UNL d   1     -47.371  12.361  23.378  0.00  0.00     0.021 A 
ATOM      6  C   UNL d   1     -47.257  13.846  22.659  0.00  0.00     0.013 A 
ATOM      7  C   UNL d   1     -46.630  12.666  23.162  0.00  0.00     0.013 A 
ENDROOT
BRANCH   1   8
ATOM      8  N   UNL d   1     -48.794  12.504  23.446  0.00  0.00    -0.056 NA
ATOM      9  C   UNL d   1     -49.218  12.032  22.921  0.00  0.00     0.787 C 
ATOM     10  N   UNL d   1     -49.956  11.735  23.130  0.00  0.00     0.064 N 
ATOM     11  N   UNL d   1     -48.896  11.858  22.182  0.00  0.00     0.064 N 
ENDBRANCH   1   8
TORSDOF 1
ENDMDL
MODEL 3
REMARK VINA RESULT:      -5.4      2.300      3.123
REMARK  1 active torsions:
REMARK  status: ('A' for Active; 'I' for Inactive)
REMARK       I    between atoms: N_2  and  C_1 
REMARK    1  A    between atoms: C_5  and  N_2 
ROOT
ATOM      1  C   UNL d   1     -47.948  13.018  22.967  0.00  0.00     0.100 A 
ATOM      2  C   UNL d   1     -46.782  11.952  23.455  0.00  0.00     0.058 A 
ATOM      3 CL   UNL d   1     -46.203  11.421  23.698  0.00  0.00    -0.082 Cl
ATOM      4  C   UNL d   1     -47.145  13.215  22.894  0.00  0.00     0.021 A 
ATOM      5  C   UNL d   1     -48.164  12.288  23.284  0.00  0.00     0.021 A 
ATOM      6  C   UNL d   1     -46.565  12.682  23.138  0.00  0.00     0.013 A 
ATOM      7  C   UNL d   1     -47.578  11.755  23.528  0.00  0.00     0.013 A 
ENDROOT
BRANCH   1   8
ATOM      8  N   UNL d   1     -48.526  13.554  22.722  0.00  0.00    -0.056 NA
ATOM      9  C   UNL d   1     -48.839  13.509  21.962  0.00  0.00     0.787 C 
ATOM     10  N   UNL d   1     -49.415  14.041  21.714  0.00  0.00     0.064 N 
ATOM     11  N   UNL d   1     -48.569  12.923  21.447  0.00  0.00     0.064 N 
ENDBRANCH   1   8
TORSDOF 1
ENDMDL
