MODEL 1
REMARK VINA RESULT:      10.3      0.000      0.000
REMARK  2 active torsions:
REMARK  status: ('A' for Active; 'I' for Inactive)
REMARK    1  A    between atoms: C_4  and  C_1 
REMARK    2  A    between atoms: N_6  and  C_5 
ROOT
ATOM      1  C   UNL d   1     -55.410-102.762 -38.216  0.00  0.00     0.024 A 
ATOM      2  C   UNL d   1     -55.421-102.670 -36.566  0.00  0.00     0.064 A 
ATOM      3  C   UNL d   1     -56.115-102.602 -37.811  0.00  0.00     0.004 A 
ATOM      4  C   UNL d   1     -54.711-102.875 -37.793  0.00  0.00     0.004 A 
ATOM      5  C   UNL d   1     -56.121-102.557 -36.990  0.00  0.00     0.018 A 
ATOM      6  C   UNL d   1     -54.717-102.830 -36.964  0.00  0.00     0.018 A 
ENDROOT
BRANCH   1   7
ATOM      7  C   UNL d   1     -55.401-102.808 -39.036  0.00  0.00     0.111 A 
ATOM      8  N   UNL d   1     -56.044-102.837 -39.540  0.00  0.00    -0.237 NA
ATOM      9  C   UNL d   1     -55.746-102.880 -40.308  0.00  0.00     0.106 A 
ATOM     10  C   UNL d   1     -54.948-102.877 -40.274  0.00  0.00     0.058 A 
ATOM     11  S   UNL d   1     -54.730-102.832 -39.491  0.00  0.00    -0.066 SA
ENDBRANCH   1   7
BRANCH   2  12
ATOM     12  N   UNL d   1     -55.453-102.619 -35.743  0.00  0.00    -0.301 N 
ATOM     13  C   UNL d   1     -54.809-102.313 -35.339  0.00  0.00     0.100 C 
ATOM     14  C   UNL d   1     -56.119-102.871 -35.339  0.00  0.00     0.100 C 
ENDBRANCH   2  12
TORSDOF 2
ENDMDL
