MODEL 1
REMARK VINA RESULT:      28.3      0.000      0.000
REMARK  4 active torsions:
REMARK  status: ('A' for Active; 'I' for Inactive)
REMARK    1  A    between atoms: S_10  and  C_3 
REMARK    2  A    between atoms: C_11  and  C_7 
REMARK    3  A    between atoms: C_13  and  S_10 
REMARK    4  A    between atoms: C_15  and  C_13 
ROOT
ATOM      1  N   UNL d   1      45.357 -15.726  44.339  0.00  0.00    -0.186 N 
ATOM      2  N   UNL d   1      45.619 -14.994  44.084  0.00  0.00    -0.162 NA
ATOM      3  C   UNL d   1      45.671 -16.489  44.247  0.00  0.00     0.217 A 
ATOM      4  C   UNL d   1      44.657 -15.797  44.774  0.00  0.00     0.187 A 
ATOM      5  N   UNL d   1      45.165 -17.013  44.623  0.00  0.00    -0.120 NA
ATOM      6  N   UNL d   1      44.536 -16.586  44.950  0.00  0.00    -0.127 NA
ATOM      7  C   UNL d   1      45.176 -14.316  44.265  0.00  0.00     0.102 A 
ATOM      8  C   UNL d   1      44.216 -15.115  44.954  0.00  0.00     0.042 A 
ATOM      9  C   UNL d   1      44.474 -14.382  44.701  0.00  0.00     0.024 A 
ENDROOT
BRANCH   3  10
ATOM     10  S   UNL d   1      46.366 -16.703  43.852  0.00  0.00    -0.046 SA
BRANCH  10  11
ATOM     11  C   UNL d   1      46.642 -17.469  43.888  0.00  0.00     0.038 C 
BRANCH  11  12
ATOM     12  C   UNL d   1      46.581 -17.960  43.236  0.00  0.00     0.007 A 
ATOM     13  C   UNL d   1      46.453 -18.774  43.323  0.00  0.00     0.003 A 
ATOM     14  C   UNL d   1      46.392 -19.265  42.654  0.00  0.00     0.030 A 
ATOM     15  C   UNL d   1      46.459 -18.936  41.907  0.00  0.00     0.140 A 
ATOM     16  C   UNL d   1      46.586 -18.131  41.800  0.00  0.00     0.030 A 
ATOM     17  F   UNL d   1      46.397 -19.428  41.245  0.00  0.00    -0.204 F 
ATOM     18  C   UNL d   1      46.647 -17.640  42.468  0.00  0.00     0.003 A 
ENDBRANCH  11  12
ENDBRANCH  10  11
ENDBRANCH   3  10
BRANCH   7  19
ATOM     19  C   UNL d   1      45.436 -13.574  44.010  0.00  0.00     0.022 A 
ATOM     20  C   UNL d   1      45.274 -13.325  43.250  0.00  0.00     0.022 A 
ATOM     21  C   UNL d   1      45.525 -12.590  42.980  0.00  0.00     0.099 A 
ATOM     22  N   UNL d   1      45.958 -12.093  43.511  0.00  0.00    -0.242 NA
ATOM     23  C   UNL d   1      46.120 -12.345  44.273  0.00  0.00     0.099 A 
ATOM     24  C   UNL d   1      45.859 -13.085  44.523  0.00  0.00     0.022 A 
ENDBRANCH   7  19
TORSDOF 4
ENDMDL
