MODEL 1
REMARK VINA RESULT:      -5.3      0.000      0.000
REMARK  3 active torsions:
REMARK  status: ('A' for Active; 'I' for Inactive)
REMARK    1  A    between atoms: C_15  and  N_5 
REMARK    2  A    between atoms: C_21  and  C_15 
REMARK    3  A    between atoms: O_20  and  C_21 
ROOT
ATOM      1  C   UNL d   1     -41.735-122.586 -52.164  0.00  0.00     0.137 A 
ATOM      2  C   UNL d   1     -41.328-123.301 -52.221  0.00  0.00     0.192 A 
ATOM      3  C   UNL d   1     -41.939-122.281 -51.435  0.00  0.00     0.272 A 
ATOM      4  N   UNL d   1     -41.123-123.715 -51.538  0.00  0.00    -0.204 NA
ATOM      5  N   UNL d   1     -41.732-122.699 -50.739  0.00  0.00    -0.256 N 
ATOM      6  C   UNL d   1     -41.941-122.171 -52.847  0.00  0.00     0.205 A 
ATOM      7  C   UNL d   1     -41.329-123.407 -50.801  0.00  0.00     0.152 A 
ATOM      8  C   UNL d   1     -41.738-122.472 -53.588  0.00  0.00     0.062 A 
ATOM      9  O   UNL d   1     -41.130-123.595 -52.966  0.00  0.00    -0.289 OA
ATOM     10  C   UNL d   1     -41.331-123.187 -53.645  0.00  0.00     0.105 A 
ATOM     11  O   UNL d   1     -42.346-121.565 -51.378  0.00  0.00    -0.266 OA
ATOM     12  O   UNL d   1     -42.346-121.459 -52.798  0.00  0.00    -0.286 OA
ATOM     13  C   UNL d   1     -41.945-122.055 -54.267  0.00  0.00     0.012 A 
ATOM     14  C   UNL d   1     -41.130-123.486 -54.382  0.00  0.00     0.025 A 
ATOM     15  C   UNL d   1     -41.742-122.358 -55.012  0.00  0.00     0.035 A 
ATOM     16  C   UNL d   1     -41.126-123.817 -50.119  0.00  0.00     0.041 C 
ATOM     17  C   UNL d   1     -41.335-123.072 -55.066  0.00  0.00     0.009 A 
ATOM     18 BR   UNL d   1     -41.949-121.939 -55.708  0.00  0.00    -0.049 Br
ENDROOT
BRANCH   5  19
ATOM     19  C   UNL d   1     -41.935-122.397 -49.994  0.00  0.00     0.111 C 
BRANCH  19  20
ATOM     20  C   UNL d   1     -42.533-122.756 -49.553  0.00  0.00     0.135 C 
BRANCH  20  21
ATOM     21  O   UNL d   1     -42.667-122.521 -48.773  0.00  0.00    -0.325 OA
ATOM     22  C   UNL d   1     -42.942-123.067 -48.220  0.00  0.00     0.182 C 
ENDBRANCH  20  21
ENDBRANCH  19  20
ENDBRANCH   5  19
TORSDOF 3
ENDMDL
MODEL 2
REMARK VINA RESULT:      -5.0      1.900      4.116
REMARK  3 active torsions:
REMARK  status: ('A' for Active; 'I' for Inactive)
REMARK    1  A    between atoms: C_15  and  N_5 
REMARK    2  A    between atoms: C_21  and  C_15 
REMARK    3  A    between atoms: O_20  and  C_21 
ROOT
ATOM      1  C   UNL d   1     -41.405-122.588 -52.275  0.00  0.00     0.137 A 
ATOM      2  C   UNL d   1     -41.305-123.407 -52.270  0.00  0.00     0.192 A 
ATOM      3  C   UNL d   1     -41.418-122.175 -52.979  0.00  0.00     0.272 A 
ATOM      4  N   UNL d   1     -41.218-123.816 -52.981  0.00  0.00    -0.204 NA
ATOM      5  N   UNL d   1     -41.330-122.588 -53.703  0.00  0.00    -0.256 N 
ATOM      6  C   UNL d   1     -41.492-122.177 -51.564  0.00  0.00     0.205 A 
ATOM      7  C   UNL d   1     -41.232-123.399 -53.692  0.00  0.00     0.152 A 
ATOM      8  C   UNL d   1     -41.479-122.587 -50.848  0.00  0.00     0.062 A 
ATOM      9  O   UNL d   1     -41.294-123.808 -51.550  0.00  0.00    -0.289 OA
ATOM     10  C   UNL d   1     -41.380-123.406 -50.844  0.00  0.00     0.105 A 
ATOM     11  O   UNL d   1     -41.517-121.356 -52.983  0.00  0.00    -0.266 OA
ATOM     12  O   UNL d   1     -41.591-121.363 -51.561  0.00  0.00    -0.286 OA
ATOM     13  C   UNL d   1     -41.567-122.174 -50.142  0.00  0.00     0.012 A 
ATOM     14  C   UNL d   1     -41.368-123.813 -50.132  0.00  0.00     0.025 A 
ATOM     15  C   UNL d   1     -41.554-122.586 -49.421  0.00  0.00     0.035 A 
ATOM     16  C   UNL d   1     -41.145-123.804 -54.401  0.00  0.00     0.041 C 
ATOM     17  C   UNL d   1     -41.455-123.403 -49.420  0.00  0.00     0.009 A 
ATOM     18 BR   UNL d   1     -41.642-122.173 -48.698  0.00  0.00    -0.049 Br
ENDROOT
BRANCH   5  19
ATOM     19  C   UNL d   1     -41.342-122.176 -54.422  0.00  0.00     0.111 C 
BRANCH  19  20
ATOM     20  C   UNL d   1     -42.038-122.141 -54.865  0.00  0.00     0.135 C 
BRANCH  20  21
ATOM     21  O   UNL d   1     -42.129-121.560 -55.443  0.00  0.00    -0.325 OA
ATOM     22  C   UNL d   1     -42.519-121.738 -56.148  0.00  0.00     0.182 C 
ENDBRANCH  20  21
ENDBRANCH  19  20
ENDBRANCH   5  19
TORSDOF 3
ENDMDL
