MODEL 1
REMARK VINA RESULT:      75.1      0.000      0.000
REMARK  8 active torsions:
REMARK  status: ('A' for Active; 'I' for Inactive)
REMARK    1  A    between atoms: C_10  and  C_3 
REMARK       I    between atoms: N_14  and  C_10 
REMARK    2  A    between atoms: C_12  and  C_13 
REMARK       I    between atoms: N_21  and  C_12 
REMARK    3  A    between atoms: C_29  and  N_14 
REMARK    4  A    between atoms: C_28  and  N_21 
REMARK    5  A    between atoms: O_30  and  C_22 
REMARK    6  A    between atoms: C_23  and  C_31 
REMARK    7  A    between atoms: C_31  and  C_28 
REMARK    8  A    between atoms: C_32  and  O_30 
ROOT
ATOM      1  N   UNL d   1      13.805  13.823  -3.539  0.00  0.00    -0.277 N 
ATOM      2  C   UNL d   1      14.165  13.755  -2.790  0.00  0.00     0.163 A 
ATOM      3  C   UNL d   1      14.045  12.982  -2.525  0.00  0.00     0.124 A 
ATOM      4  C   UNL d   1      13.469  13.090  -3.726  0.00  0.00     0.152 A 
ATOM      5  N   UNL d   1      14.548  14.403  -2.456  0.00  0.00    -0.190 NA
ATOM      6  S   UNL d   1      13.621  12.574  -3.095  0.00  0.00    -0.051 SA
ATOM      7  C   UNL d   1      13.833  14.538  -3.947  0.00  0.00     0.071 A 
ATOM      8  C   UNL d   1      14.216  15.186  -3.612  0.00  0.00     0.074 A 
ATOM      9  C   UNL d   1      14.576  15.118  -2.864  0.00  0.00     0.282 A 
ATOM     10  C   UNL d   1      13.475  14.605  -4.692  0.00  0.00     0.023 A 
ATOM     11  C   UNL d   1      13.503  15.320  -5.099  0.00  0.00     0.059 A 
ATOM     12  S   UNL d   1      13.057  12.916  -4.421  0.00  0.00    -0.052 SA
ATOM     13  C   UNL d   1      14.245  15.905  -4.021  0.00  0.00     0.006 A 
ATOM     14  O   UNL d   1      14.964  15.777  -2.527  0.00  0.00    -0.265 OA
ATOM     15  C   UNL d   1      13.887  15.972  -4.766  0.00  0.00     0.005 A 
ENDROOT
BRANCH  11  16
ATOM     16  C   UNL d   1      13.147  15.388  -5.840  0.00  0.00     0.279 C 
ATOM     17  O   UNL d   1      12.770  14.737  -6.177  0.00  0.00    -0.265 OA
ATOM     18  N   UNL d   1      13.168  16.104  -6.245  0.00  0.00    -0.206 NA
BRANCH  18  19
ATOM     19  C   UNL d   1      13.545  16.754  -5.907  0.00  0.00     0.102 C 
BRANCH  19  20
ATOM     20  C   UNL d   1      13.898  17.319  -6.387  0.00  0.00     0.021 C 
BRANCH  20  21
ATOM     21  C   UNL d   1      14.120  18.049  -6.064  0.00  0.00     0.002 A 
ATOM     22  C   UNL d   1      13.701  18.726  -6.268  0.00  0.00     0.002 A 
ATOM     23  C   UNL d   1      13.917  19.454  -5.951  0.00  0.00     0.025 A 
ATOM     24  C   UNL d   1      14.553  19.505  -5.428  0.00  0.00     0.100 A 
ATOM     25  C   UNL d   1      14.973  18.826  -5.222  0.00  0.00     0.025 A 
ATOM     26  C   UNL d   1      14.756  18.099  -5.540  0.00  0.00     0.002 A 
BRANCH  24  27
ATOM     27  O   UNL d   1      14.768  20.237  -5.109  0.00  0.00    -0.305 OA
BRANCH  27  28
ATOM     28  C   UNL d   1      14.738  20.914  -5.577  0.00  0.00     0.123 C 
ATOM     29  C   UNL d   1      15.338  21.485  -5.522  0.00  0.00     0.029 C 
ENDBRANCH  27  28
ENDBRANCH  24  27
ENDBRANCH  20  21
ENDBRANCH  19  20
ENDBRANCH  18  19
ENDBRANCH  11  16
BRANCH   3  30
ATOM     30  C   UNL d   1      14.313  12.678  -1.804  0.00  0.00     0.288 C 
ATOM     31  N   UNL d   1      14.211  13.116  -1.110  0.00  0.00    -0.207 NA
ATOM     32  O   UNL d   1      14.681  11.943  -1.772  0.00  0.00    -0.265 OA
BRANCH  31  33
ATOM     33  C   UNL d   1      14.478  12.817  -0.387  0.00  0.00     0.085 C 
ATOM     34  C   UNL d   1      14.068  12.213  -0.015  0.00  0.00     0.021 C 
ATOM     35  C   UNL d   1      15.160  13.126  -0.038  0.00  0.00     0.021 C 
ENDBRANCH  31  33
ENDBRANCH   3  30
TORSDOF 8
ENDMDL
