MODEL 1
REMARK VINA RESULT:      76.0      0.000      0.000
REMARK  7 active torsions:
REMARK  status: ('A' for Active; 'I' for Inactive)
REMARK    1  A    between atoms: N_7  and  S_1 
REMARK    2  A    between atoms: C_19  and  S_1 
REMARK    3  A    between atoms: N_2  and  C_3 
REMARK    4  A    between atoms: C_3  and  C_6 
REMARK    5  A    between atoms: C_5  and  C_3 
REMARK    6  A    between atoms: C_16  and  N_4 
REMARK    7  A    between atoms: C_6  and  N_7 
ROOT
ATOM      1  C   UNL d   1     -55.239-100.996 -43.821  0.00  0.00     0.107 C 
ENDROOT
BRANCH   1   2
ATOM      2  N   UNL d   1     -55.152-101.189 -43.024  0.00  0.00    -0.298 N 
ATOM      3  C   UNL d   1     -55.239-100.606 -42.447  0.00  0.00     0.100 A 
ATOM      4  C   UNL d   1     -55.151-100.802 -41.652  0.00  0.00     0.100 A 
ATOM      5  N   UNL d   1     -54.976-101.575 -41.428  0.00  0.00    -0.301 N 
ATOM      6  C   UNL d   1     -54.889-102.158 -42.006  0.00  0.00     0.100 A 
ATOM      7  C   UNL d   1     -54.977-101.965 -42.803  0.00  0.00     0.100 A 
BRANCH   5   8
ATOM      8  C   UNL d   1     -54.889-101.768 -40.637  0.00  0.00     0.064 A 
ATOM      9  C   UNL d   1     -54.849-102.553 -40.405  0.00  0.00     0.018 A 
ATOM     10  C   UNL d   1     -54.761-102.749 -39.611  0.00  0.00     0.002 A 
ATOM     11  C   UNL d   1     -54.714-102.151 -39.045  0.00  0.00     0.000 A 
ATOM     12  C   UNL d   1     -54.754-101.359 -39.276  0.00  0.00     0.002 A 
ATOM     13  C   UNL d   1     -54.842-101.169 -40.071  0.00  0.00     0.018 A 
ENDBRANCH   5   8
ENDBRANCH   1   2
BRANCH   1  14
ATOM     14  C   UNL d   1     -55.396-101.576 -44.388  0.00  0.00     0.132 C 
BRANCH  14  15
ATOM     15  N   UNL d   1     -55.521-101.345 -45.185  0.00  0.00    -0.155 NA
BRANCH  15  16
ATOM     16  S   UNL d   1     -55.539-101.914 -45.777  0.00  0.00     0.286 S 
ATOM     17  O   UNL d   1     -54.712-101.968 -45.757  0.00  0.00    -0.198 OA
ATOM     18  O   UNL d   1     -56.368-101.857 -45.794  0.00  0.00    -0.198 OA
BRANCH  16  19
ATOM     19  C   UNL d   1     -55.569-102.487 -46.374  0.00  0.00     0.117 C 
ATOM     20  C   UNL d   1     -56.290-102.840 -46.568  0.00  0.00     0.014 C 
ENDBRANCH  16  19
ENDBRANCH  15  16
ENDBRANCH  14  15
ENDBRANCH   1  14
BRANCH   1  21
ATOM     21  C   UNL d   1     -55.168-100.196 -44.065  0.00  0.00     0.118 A 
ATOM     22  O   UNL d   1     -54.830-100.011 -44.792  0.00  0.00    -0.304 OA
ATOM     23  C   UNL d   1     -54.838 -99.185 -44.875  0.00  0.00     0.123 A 
ATOM     24  C   UNL d   1     -55.178 -98.869 -44.205  0.00  0.00     0.029 A 
ATOM     25  C   UNL d   1     -55.383 -99.492 -43.702  0.00  0.00     0.028 A 
ENDBRANCH   1  21
TORSDOF 7
ENDMDL
