MODEL 1
REMARK VINA RESULT:      -3.6      0.000      0.000
REMARK  5 active torsions:
REMARK  status: ('A' for Active; 'I' for Inactive)
REMARK    1  A    between atoms: C_7  and  C_1 
REMARK    2  A    between atoms: N_6  and  C_3 
REMARK       I    between atoms: C_8  and  N_6 
REMARK    3  A    between atoms: C_9  and  C_8 
REMARK    4  A    between atoms: C_11  and  C_9 
REMARK    5  A    between atoms: C_16  and  C_11 
ROOT
ATOM      1  N   UNL d   1      32.714  19.180 -23.263  0.00  0.00    -0.165 NA
ATOM      2  C   UNL d   1      33.006  19.378 -22.530  0.00  0.00     0.282 C 
ATOM      3  O   UNL d   1      33.240  18.791 -21.999  0.00  0.00    -0.265 OA
ENDROOT
BRANCH   1   4
ATOM      4  C   UNL d   1      32.649  18.390 -23.484  0.00  0.00     0.297 A 
ATOM      5  O   UNL d   1      31.967  17.935 -23.425  0.00  0.00    -0.252 OA
ATOM      6  C   UNL d   1      32.143  17.178 -23.705  0.00  0.00     0.229 A 
ATOM      7  N   UNL d   1      32.928  17.175 -23.933  0.00  0.00    -0.117 NA
ATOM      8  N   UNL d   1      33.240  17.922 -23.797  0.00  0.00    -0.101 NA
BRANCH   6   9
ATOM      9  C   UNL d   1      31.614  16.546 -23.744  0.00  0.00     0.143 A 
ATOM     10  O   UNL d   1      31.252  16.179 -23.108  0.00  0.00    -0.301 OA
ATOM     11  C   UNL d   1      30.772  15.579 -23.400  0.00  0.00     0.123 A 
ATOM     12  C   UNL d   1      30.837  15.576 -24.224  0.00  0.00     0.029 A 
ATOM     13  C   UNL d   1      31.356  16.172 -24.438  0.00  0.00     0.030 A 
ENDBRANCH   6   9
ENDBRANCH   1   4
BRANCH   2  14
ATOM     14  C   UNL d   1      33.072  20.171 -22.309  0.00  0.00     0.063 C 
BRANCH  14  15
ATOM     15  C   UNL d   1      32.866  20.395 -21.551  0.00  0.00     0.005 C 
BRANCH  15  16
ATOM     16  C   UNL d   1      32.779  21.199 -21.369  0.00  0.00     0.000 A 
ATOM     17  C   UNL d   1      33.235  21.758 -21.769  0.00  0.00     0.000 A 
ATOM     18  C   UNL d   1      33.148  22.559 -21.588  0.00  0.00     0.000 A 
ATOM     19  C   UNL d   1      32.607  22.795 -21.009  0.00  0.00     0.000 A 
ATOM     20  C   UNL d   1      32.162  22.227 -20.621  0.00  0.00     0.000 A 
ATOM     21  C   UNL d   1      32.244  21.435 -20.796  0.00  0.00     0.000 A 
ENDBRANCH  15  16
ENDBRANCH  14  15
ENDBRANCH   2  14
TORSDOF 5
ENDMDL
MODEL 2
REMARK VINA RESULT:      -3.2      1.458      5.446
REMARK  5 active torsions:
REMARK  status: ('A' for Active; 'I' for Inactive)
REMARK    1  A    between atoms: C_7  and  C_1 
REMARK    2  A    between atoms: N_6  and  C_3 
REMARK       I    between atoms: C_8  and  N_6 
REMARK    3  A    between atoms: C_9  and  C_8 
REMARK    4  A    between atoms: C_11  and  C_9 
REMARK    5  A    between atoms: C_16  and  C_11 
ROOT
ATOM      1  N   UNL d   1      32.918  19.484 -22.035  0.00  0.00    -0.165 NA
ATOM      2  C   UNL d   1      32.923  19.124 -22.765  0.00  0.00     0.282 C 
ATOM      3  O   UNL d   1      32.951  19.576 -23.455  0.00  0.00    -0.265 OA
ENDROOT
BRANCH   1   4
ATOM      4  C   UNL d   1      32.941  20.304 -21.977  0.00  0.00     0.297 A 
ATOM      5  O   UNL d   1      32.662  20.744 -21.341  0.00  0.00    -0.252 OA
ATOM      6  C   UNL d   1      32.792  21.542 -21.508  0.00  0.00     0.229 A 
ATOM      7  N   UNL d   1      33.148  21.586 -22.243  0.00  0.00    -0.117 NA
ATOM      8  N   UNL d   1      33.240  20.823 -22.532  0.00  0.00    -0.101 NA
BRANCH   6   9
ATOM      9  C   UNL d   1      32.595  22.174 -21.016  0.00  0.00     0.143 A 
ATOM     10  O   UNL d   1      32.834  22.275 -20.240  0.00  0.00    -0.301 OA
ATOM     11  C   UNL d   1      32.510  22.978 -19.963  0.00  0.00     0.123 A 
ATOM     12  C   UNL d   1      32.065  23.314 -20.574  0.00  0.00     0.029 A 
ATOM     13  C   UNL d   1      32.117  22.819 -21.224  0.00  0.00     0.030 A 
ENDBRANCH   6   9
ENDBRANCH   1   4
BRANCH   2  14
ATOM     14  C   UNL d   1      32.900  18.301 -22.823  0.00  0.00     0.063 C 
BRANCH  14  15
ATOM     15  C   UNL d   1      32.605  17.954 -23.501  0.00  0.00     0.005 C 
BRANCH  15  16
ATOM     16  C   UNL d   1      32.496  17.132 -23.528  0.00  0.00     0.000 A 
ATOM     17  C   UNL d   1      31.731  16.824 -23.550  0.00  0.00     0.000 A 
ATOM     18  C   UNL d   1      31.622  16.007 -23.577  0.00  0.00     0.000 A 
ATOM     19  C   UNL d   1      32.277  15.503 -23.583  0.00  0.00     0.000 A 
ATOM     20  C   UNL d   1      33.031  15.825 -23.561  0.00  0.00     0.000 A 
ATOM     21  C   UNL d   1      33.143  16.632 -23.534  0.00  0.00     0.000 A 
ENDBRANCH  15  16
ENDBRANCH  14  15
ENDBRANCH   2  14
TORSDOF 5
ENDMDL
MODEL 3
REMARK VINA RESULT:      -3.1      0.967      1.512
REMARK  5 active torsions:
REMARK  status: ('A' for Active; 'I' for Inactive)
REMARK    1  A    between atoms: C_7  and  C_1 
REMARK    2  A    between atoms: N_6  and  C_3 
REMARK       I    between atoms: C_8  and  N_6 
REMARK    3  A    between atoms: C_9  and  C_8 
REMARK    4  A    between atoms: C_11  and  C_9 
REMARK    5  A    between atoms: C_16  and  C_11 
ROOT
ATOM      1  N   UNL d   1      33.241  19.739 -21.925  0.00  0.00    -0.165 NA
ATOM      2  C   UNL d   1      32.875  20.467 -21.923  0.00  0.00     0.282 C 
ATOM      3  O   UNL d   1      32.368  20.683 -22.536  0.00  0.00    -0.265 OA
ENDROOT
BRANCH   1   4
ATOM      4  C   UNL d   1      33.108  19.211 -22.542  0.00  0.00     0.297 A 
ATOM      5  O   UNL d   1      32.818  18.446 -22.458  0.00  0.00    -0.252 OA
ATOM      6  C   UNL d   1      32.770  18.110 -23.210  0.00  0.00     0.229 A 
ATOM      7  N   UNL d   1      33.030  18.668 -23.748  0.00  0.00    -0.117 NA
ATOM      8  N   UNL d   1      33.239  19.347 -23.336  0.00  0.00    -0.101 NA
BRANCH   6   9
ATOM      9  C   UNL d   1      32.505  17.346 -23.379  0.00  0.00     0.143 A 
ATOM     10  O   UNL d   1      31.750  17.139 -23.620  0.00  0.00    -0.301 OA
ATOM     11  C   UNL d   1      31.732  16.324 -23.725  0.00  0.00     0.123 A 
ATOM     12  C   UNL d   1      32.482  16.025 -23.547  0.00  0.00     0.029 A 
ATOM     13  C   UNL d   1      32.960  16.655 -23.334  0.00  0.00     0.030 A 
ENDBRANCH   6   9
ENDBRANCH   1   4
BRANCH   2  14
ATOM     14  C   UNL d   1      33.009  20.996 -21.304  0.00  0.00     0.063 C 
BRANCH  14  15
ATOM     15  C   UNL d   1      32.385  21.432 -21.007  0.00  0.00     0.005 C 
BRANCH  15  16
ATOM     16  C   UNL d   1      32.536  22.112 -20.557  0.00  0.00     0.000 A 
ATOM     17  C   UNL d   1      32.220  22.836 -20.797  0.00  0.00     0.000 A 
ATOM     18  C   UNL d   1      32.371  23.513 -20.349  0.00  0.00     0.000 A 
ATOM     19  C   UNL d   1      32.834  23.463 -19.666  0.00  0.00     0.000 A 
ATOM     20  C   UNL d   1      33.140  22.736 -19.443  0.00  0.00     0.000 A 
ATOM     21  C   UNL d   1      32.994  22.064 -19.881  0.00  0.00     0.000 A 
ENDBRANCH  15  16
ENDBRANCH  14  15
ENDBRANCH   2  14
TORSDOF 5
ENDMDL
MODEL 4
REMARK VINA RESULT:      -2.1      2.914      6.138
REMARK  5 active torsions:
REMARK  status: ('A' for Active; 'I' for Inactive)
REMARK    1  A    between atoms: C_7  and  C_1 
REMARK    2  A    between atoms: N_6  and  C_3 
REMARK       I    between atoms: C_8  and  N_6 
REMARK    3  A    between atoms: C_9  and  C_8 
REMARK    4  A    between atoms: C_11  and  C_9 
REMARK    5  A    between atoms: C_16  and  C_11 
ROOT
ATOM      1  N   UNL d   1      33.241  21.363 -20.528  0.00  0.00    -0.165 NA
ATOM      2  C   UNL d   1      32.992  21.233 -21.292  0.00  0.00     0.282 C 
ATOM      3  O   UNL d   1      32.535  21.796 -21.685  0.00  0.00    -0.265 OA
ENDROOT
BRANCH   1   4
ATOM      4  C   UNL d   1      33.039  22.058 -20.138  0.00  0.00     0.297 A 
ATOM      5  O   UNL d   1      32.873  22.123 -19.336  0.00  0.00    -0.252 OA
ATOM      6  C   UNL d   1      32.698  22.914 -19.176  0.00  0.00     0.229 A 
ATOM      7  N   UNL d   1      32.757  23.327 -19.880  0.00  0.00    -0.117 NA
ATOM      8  N   UNL d   1      32.967  22.799 -20.473  0.00  0.00    -0.101 NA
BRANCH   6   9
ATOM      9  C   UNL d   1      32.500  23.222 -18.437  0.00  0.00     0.143 A 
ATOM     10  O   UNL d   1      31.745  23.393 -18.171  0.00  0.00    -0.301 OA
ATOM     11  C   UNL d   1      31.805  23.689 -17.406  0.00  0.00     0.123 A 
ATOM     12  C   UNL d   1      32.604  23.700 -17.198  0.00  0.00     0.029 A 
ATOM     13  C   UNL d   1      33.035  23.412 -17.832  0.00  0.00     0.030 A 
ENDBRANCH   6   9
ENDBRANCH   1   4
BRANCH   2  14
ATOM     14  C   UNL d   1      33.195  20.535 -21.683  0.00  0.00     0.063 C 
BRANCH  14  15
ATOM     15  C   UNL d   1      32.846  20.360 -22.400  0.00  0.00     0.005 C 
BRANCH  15  16
ATOM     16  C   UNL d   1      32.968  19.616 -22.746  0.00  0.00     0.000 A 
ATOM     17  C   UNL d   1      33.058  19.558 -23.564  0.00  0.00     0.000 A 
ATOM     18  C   UNL d   1      33.179  18.818 -23.908  0.00  0.00     0.000 A 
ATOM     19  C   UNL d   1      33.209  18.141 -23.434  0.00  0.00     0.000 A 
ATOM     20  C   UNL d   1      33.117  18.217 -22.623  0.00  0.00     0.000 A 
ATOM     21  C   UNL d   1      32.997  18.945 -22.278  0.00  0.00     0.000 A 
ENDBRANCH  15  16
ENDBRANCH  14  15
ENDBRANCH   2  14
TORSDOF 5
ENDMDL
