MODEL 1
REMARK VINA RESULT:      -3.0      0.000      0.000
REMARK  4 active torsions:
REMARK  status: ('A' for Active; 'I' for Inactive)
REMARK    1  A    between atoms: C_5  and  N_1 
REMARK    2  A    between atoms: C_7  and  C_3 
REMARK    3  A    between atoms: C_10  and  C_4 
REMARK    4  A    between atoms: N_11  and  C_5 
ROOT
ATOM      1  N   UNL d   1      59.017  -0.336  29.683  0.00  0.00    -0.203 N 
ATOM      2  N   UNL d   1      58.512   0.080  30.194  0.00  0.00    -0.163 NA
ATOM      3  C   UNL d   1      58.864  -1.141  29.763  0.00  0.00     0.088 A 
ATOM      4  C   UNL d   1      58.041  -0.483  30.595  0.00  0.00     0.103 A 
ATOM      5  C   UNL d   1      58.260  -1.232  30.328  0.00  0.00     0.040 A 
ENDROOT
BRANCH   3   6
ATOM      6  C   UNL d   1      59.223  -1.780  29.373  0.00  0.00     0.028 A 
ATOM      7  C   UNL d   1      58.781  -2.250  28.874  0.00  0.00     0.059 A 
ATOM      8 CL   UNL d   1      58.318  -2.127  28.831  0.00  0.00    -0.082 Cl
ATOM      9  C   UNL d   1      59.132  -2.889  28.482  0.00  0.00     0.011 A 
ATOM     10  C   UNL d   1      59.927  -3.053  28.593  0.00  0.00     0.001 A 
ATOM     11  C   UNL d   1      60.364  -2.567  29.103  0.00  0.00     0.000 A 
ATOM     12  C   UNL d   1      60.009  -1.945  29.481  0.00  0.00     0.002 A 
ENDBRANCH   3   6
BRANCH   1  13
ATOM     13  C   UNL d   1      59.587   0.021  29.172  0.00  0.00     0.222 C 
ATOM     14  S   UNL d   1      59.330   0.354  28.455  0.00  0.00    -0.037 SA
BRANCH  13  15
ATOM     15  N   UNL d   1      60.390   0.035  29.390  0.00  0.00    -0.214 NA
ATOM     16  C   UNL d   1      60.874   0.680  29.149  0.00  0.00     0.122 C 
ENDBRANCH  13  15
ENDBRANCH   1  13
BRANCH   4  17
ATOM     17  C   UNL d   1      57.472  -0.306  31.148  0.00  0.00     0.019 A 
ATOM     18  C   UNL d   1      57.345   0.481  31.358  0.00  0.00     0.002 A 
ATOM     19  C   UNL d   1      56.770   0.674  31.918  0.00  0.00     0.000 A 
ATOM     20  C   UNL d   1      56.320   0.081  32.270  0.00  0.00     0.000 A 
ATOM     21  C   UNL d   1      56.442  -0.701  32.065  0.00  0.00     0.000 A 
ATOM     22  C   UNL d   1      57.017  -0.894  31.505  0.00  0.00     0.002 A 
ENDBRANCH   4  17
TORSDOF 4
ENDMDL
MODEL 2
REMARK VINA RESULT:      -0.0      2.128      4.332
REMARK  4 active torsions:
REMARK  status: ('A' for Active; 'I' for Inactive)
REMARK    1  A    between atoms: C_5  and  N_1 
REMARK    2  A    between atoms: C_7  and  C_3 
REMARK    3  A    between atoms: C_10  and  C_4 
REMARK    4  A    between atoms: N_11  and  C_5 
ROOT
ATOM      1  N   UNL d   1      57.755   0.321  32.228  0.00  0.00    -0.203 N 
ATOM      2  N   UNL d   1      58.243   0.321  31.556  0.00  0.00    -0.163 NA
ATOM      3  C   UNL d   1      57.010   0.048  32.009  0.00  0.00     0.088 A 
ATOM      4  C   UNL d   1      57.787   0.042  30.914  0.00  0.00     0.103 A 
ATOM      5  C   UNL d   1      57.029  -0.125  31.196  0.00  0.00     0.040 A 
ENDROOT
BRANCH   3   6
ATOM      6  C   UNL d   1      56.334  -0.053  32.480  0.00  0.00     0.028 A 
ATOM      7  C   UNL d   1      56.069  -0.804  32.654  0.00  0.00     0.059 A 
ATOM      8 CL   UNL d   1      56.329  -1.163  32.467  0.00  0.00    -0.082 Cl
ATOM      9  C   UNL d   1      55.396  -0.913  33.123  0.00  0.00     0.011 A 
ATOM     10  C   UNL d   1      54.990  -0.264  33.415  0.00  0.00     0.001 A 
ATOM     11  C   UNL d   1      55.270   0.495  33.230  0.00  0.00     0.000 A 
ATOM     12  C   UNL d   1      55.930   0.587  32.771  0.00  0.00     0.002 A 
ENDBRANCH   3   6
BRANCH   1  13
ATOM     13  C   UNL d   1      57.997   0.565  33.001  0.00  0.00     0.222 C 
ATOM     14  S   UNL d   1      57.416   0.682  33.583  0.00  0.00    -0.037 SA
BRANCH  13  15
ATOM     15  N   UNL d   1      58.804   0.682  33.166  0.00  0.00    -0.214 NA
ATOM     16  C   UNL d   1      59.073   0.643  33.962  0.00  0.00     0.122 C 
ENDBRANCH  13  15
ENDBRANCH   1  13
BRANCH   4  17
ATOM     17  C   UNL d   1      58.056  -0.044  30.152  0.00  0.00     0.019 A 
ATOM     18  C   UNL d   1      57.986   0.587  29.626  0.00  0.00     0.002 A 
ATOM     19  C   UNL d   1      58.256   0.513  28.850  0.00  0.00     0.000 A 
ATOM     20  C   UNL d   1      58.598  -0.192  28.596  0.00  0.00     0.000 A 
ATOM     21  C   UNL d   1      58.670  -0.821  29.113  0.00  0.00     0.000 A 
ATOM     22  C   UNL d   1      58.400  -0.746  29.890  0.00  0.00     0.002 A 
ENDBRANCH   4  17
TORSDOF 4
ENDMDL
