MODEL 1
REMARK VINA RESULT:      -5.6      0.000      0.000
REMARK  4 active torsions:
REMARK  status: ('A' for Active; 'I' for Inactive)
REMARK    1  A    between atoms: C_6  and  S_1 
REMARK    2  A    between atoms: N_12  and  S_1 
REMARK    3  A    between atoms: N_4  and  C_2 
REMARK       I    between atoms: C_7  and  N_4 
REMARK    4  A    between atoms: C_10  and  C_7 
ROOT
ATOM      1  C   UNL d   1     -41.367-123.100 -51.137  0.00  0.00     0.197 A 
ATOM      2  N   UNL d   1     -41.123-123.703 -51.644  0.00  0.00    -0.221 NA
ATOM      3  S   UNL d   1     -41.651-122.475 -51.595  0.00  0.00    -0.047 SA
ATOM      4  C   UNL d   1     -41.642-122.657 -53.819  0.00  0.00     0.105 A 
ATOM      5  C   UNL d   1     -41.581-122.694 -52.392  0.00  0.00     0.051 A 
ATOM      6  C   UNL d   1     -41.256-123.451 -52.427  0.00  0.00     0.090 A 
ATOM      7  C   UNL d   1     -41.775-122.295 -53.090  0.00  0.00     0.021 A 
ATOM      8  C   UNL d   1     -41.313-123.421 -53.851  0.00  0.00     0.015 A 
ATOM      9  C   UNL d   1     -41.123-123.812 -53.157  0.00  0.00     0.020 A 
ENDROOT
BRANCH   1  10
ATOM     10  N   UNL d   1     -41.332-123.120 -50.313  0.00  0.00    -0.182 NA
ATOM     11  C   UNL d   1     -41.960-123.357 -49.856  0.00  0.00     0.287 C 
ATOM     12  O   UNL d   1     -42.662-123.589 -50.212  0.00  0.00    -0.265 OA
BRANCH  11  13
ATOM     13  C   UNL d   1     -41.908-123.370 -49.045  0.00  0.00     0.087 A 
ATOM     14  S   UNL d   1     -42.555-123.076 -48.658  0.00  0.00    -0.082 SA
ATOM     15  C   UNL d   1     -42.434-123.119 -47.855  0.00  0.00     0.036 A 
ATOM     16  C   UNL d   1     -41.687-123.451 -47.739  0.00  0.00     0.008 A 
ATOM     17  C   UNL d   1     -41.359-123.607 -48.468  0.00  0.00     0.012 A 
ENDBRANCH  11  13
ENDBRANCH   1  10
BRANCH   4  18
ATOM     18  S   UNL d   1     -41.831-122.270 -54.521  0.00  0.00     0.272 S 
ATOM     19  O   UNL d   1     -42.565-122.963 -54.577  0.00  0.00    -0.200 OA
ATOM     20  O   UNL d   1     -41.136-121.561 -54.533  0.00  0.00    -0.200 OA
BRANCH  18  21
ATOM     21  N   UNL d   1     -42.171-122.028 -55.233  0.00  0.00    -0.226 N 
ATOM     22  C   UNL d   1     -41.691-121.712 -55.829  0.00  0.00     0.111 C 
ATOM     23  C   UNL d   1     -42.985-122.101 -55.350  0.00  0.00     0.111 C 
ENDBRANCH  18  21
ENDBRANCH   4  18
TORSDOF 4
ENDMDL
MODEL 2
REMARK VINA RESULT:      -4.7      1.199      5.233
REMARK  4 active torsions:
REMARK  status: ('A' for Active; 'I' for Inactive)
REMARK    1  A    between atoms: C_6  and  S_1 
REMARK    2  A    between atoms: N_12  and  S_1 
REMARK    3  A    between atoms: N_4  and  C_2 
REMARK       I    between atoms: C_7  and  N_4 
REMARK    4  A    between atoms: C_10  and  C_7 
ROOT
ATOM      1  C   UNL d   1     -41.460-122.653 -52.310  0.00  0.00     0.197 A 
ATOM      2  N   UNL d   1     -41.277-122.007 -51.831  0.00  0.00    -0.221 NA
ATOM      3  S   UNL d   1     -41.712-123.271 -51.825  0.00  0.00    -0.047 SA
ATOM      4  C   UNL d   1     -41.786-122.968 -49.615  0.00  0.00     0.105 A 
ATOM      5  C   UNL d   1     -41.683-123.005 -51.040  0.00  0.00     0.051 A 
ATOM      6  C   UNL d   1     -41.415-122.225 -51.039  0.00  0.00     0.090 A 
ATOM      7  C   UNL d   1     -41.869-123.378 -50.326  0.00  0.00     0.021 A 
ATOM      8  C   UNL d   1     -41.515-122.180 -49.618  0.00  0.00     0.015 A 
ATOM      9  C   UNL d   1     -41.332-121.815 -50.328  0.00  0.00     0.020 A 
ENDROOT
BRANCH   1  10
ATOM     10  N   UNL d   1     -41.402-122.676 -53.133  0.00  0.00    -0.182 NA
ATOM     11  C   UNL d   1     -41.848-122.199 -53.615  0.00  0.00     0.287 C 
ATOM     12  O   UNL d   1     -42.382-121.670 -53.287  0.00  0.00    -0.265 OA
BRANCH  11  13
ATOM     13  C   UNL d   1     -41.777-122.236 -54.423  0.00  0.00     0.087 A 
ATOM     14  S   UNL d   1     -42.340-121.825 -54.833  0.00  0.00    -0.082 SA
ATOM     15  C   UNL d   1     -42.209-121.905 -55.632  0.00  0.00     0.036 A 
ATOM     16  C   UNL d   1     -41.540-122.383 -55.722  0.00  0.00     0.008 A 
ATOM     17  C   UNL d   1     -41.271-122.589 -54.981  0.00  0.00     0.012 A 
ENDBRANCH  11  13
ENDBRANCH   1  10
BRANCH   4  18
ATOM     18  S   UNL d   1     -41.967-123.328 -48.898  0.00  0.00     0.272 S 
ATOM     19  O   UNL d   1     -42.856-122.860 -49.012  0.00  0.00    -0.200 OA
ATOM     20  O   UNL d   1     -41.123-123.817 -48.719  0.00  0.00    -0.200 OA
BRANCH  18  21
ATOM     21  N   UNL d   1     -42.333-123.591 -48.206  0.00  0.00    -0.226 N 
ATOM     22  C   UNL d   1     -43.155-123.684 -48.188  0.00  0.00     0.111 C 
ATOM     23  C   UNL d   1     -41.881-123.760 -47.536  0.00  0.00     0.111 C 
ENDBRANCH  18  21
ENDBRANCH   4  18
TORSDOF 4
ENDMDL
MODEL 3
REMARK VINA RESULT:      -4.6      1.053      1.491
REMARK  4 active torsions:
REMARK  status: ('A' for Active; 'I' for Inactive)
REMARK    1  A    between atoms: C_6  and  S_1 
REMARK    2  A    between atoms: N_12  and  S_1 
REMARK    3  A    between atoms: N_4  and  C_2 
REMARK       I    between atoms: C_7  and  N_4 
REMARK    4  A    between atoms: C_10  and  C_7 
ROOT
ATOM      1  C   UNL d   1     -41.255-122.855 -50.156  0.00  0.00     0.197 A 
ATOM      2  N   UNL d   1     -41.463-122.118 -50.460  0.00  0.00    -0.221 NA
ATOM      3  S   UNL d   1     -41.128-123.369 -50.789  0.00  0.00    -0.047 SA
ATOM      4  C   UNL d   1     -41.379-122.619 -52.876  0.00  0.00     0.105 A 
ATOM      5  C   UNL d   1     -41.259-122.946 -51.490  0.00  0.00     0.051 A 
ATOM      6  C   UNL d   1     -41.467-122.172 -51.292  0.00  0.00     0.090 A 
ATOM      7  C   UNL d   1     -41.215-123.170 -52.284  0.00  0.00     0.021 A 
ATOM      8  C   UNL d   1     -41.588-121.839 -52.672  0.00  0.00     0.015 A 
ATOM      9  C   UNL d   1     -41.630-121.621 -51.884  0.00  0.00     0.020 A 
ENDROOT
BRANCH   1  10
ATOM     10  N   UNL d   1     -41.186-123.045 -49.357  0.00  0.00    -0.182 NA
ATOM     11  C   UNL d   1     -41.830-123.124 -48.869  0.00  0.00     0.287 C 
ATOM     12  O   UNL d   1     -42.586-123.013 -49.169  0.00  0.00    -0.265 OA
BRANCH  11  13
ATOM     13  C   UNL d   1     -41.742-123.312 -48.084  0.00  0.00     0.087 A 
ATOM     14  S   UNL d   1     -42.428-123.308 -47.655  0.00  0.00    -0.082 SA
ATOM     15  C   UNL d   1     -42.267-123.504 -46.882  0.00  0.00     0.036 A 
ATOM     16  C   UNL d   1     -41.452-123.634 -46.829  0.00  0.00     0.008 A 
ATOM     17  C   UNL d   1     -41.125-123.517 -47.566  0.00  0.00     0.012 A 
ENDBRANCH  11  13
ENDBRANCH   1  10
BRANCH   4  18
ATOM     18  S   UNL d   1     -41.338-122.830 -53.670  0.00  0.00     0.272 S 
ATOM     19  O   UNL d   1     -41.523-121.849 -53.828  0.00  0.00    -0.200 OA
ATOM     20  O   UNL d   1     -41.155-123.802 -53.593  0.00  0.00    -0.200 OA
BRANCH  18  21
ATOM     21  N   UNL d   1     -41.336-122.838 -54.496  0.00  0.00    -0.226 N 
ATOM     22  C   UNL d   1     -41.542-122.152 -54.911  0.00  0.00     0.111 C 
ATOM     23  C   UNL d   1     -41.130-123.525 -54.904  0.00  0.00     0.111 C 
ENDBRANCH  18  21
ENDBRANCH   4  18
TORSDOF 4
ENDMDL
