MODEL 1
REMARK VINA RESULT:      -8.2      0.000      0.000
REMARK  5 active torsions:
REMARK  status: ('A' for Active; 'I' for Inactive)
REMARK    1  A    between atoms: C_2  and  S_1 
REMARK    2  A    between atoms: N_3  and  S_1 
REMARK    3  A    between atoms: C_14  and  N_3 
REMARK    4  A    between atoms: C_15  and  C_14 
REMARK    5  A    between atoms: O_18  and  C_16 
ROOT
ATOM      1  S   UNL d   1      52.933  33.618  53.237  0.00  0.00     0.285 S 
ATOM      2  O   UNL d   1      53.734  33.462  53.356  0.00  0.00    -0.198 OA
ATOM      3  O   UNL d   1      53.085  34.420  53.269  0.00  0.00    -0.198 OA
ENDROOT
BRANCH   1   4
ATOM      4  C   UNL d   1      52.130  33.766  53.118  0.00  0.00     0.107 A 
ATOM      5  C   UNL d   1      51.843  33.935  52.361  0.00  0.00     0.037 A 
ATOM      6  C   UNL d   1      51.039  34.082  52.250  0.00  0.00     0.095 A 
ATOM      7  C   UNL d   1      50.522  34.061  52.895  0.00  0.00     0.024 A 
ATOM      8  C   UNL d   1      50.811  33.893  53.649  0.00  0.00     0.003 A 
ATOM      9  C   UNL d   1      51.615  33.746  53.760  0.00  0.00     0.013 A 
BRANCH   6  10
ATOM     10  O   UNL d   1      50.750  34.250  51.497  0.00  0.00    -0.328 OA
ATOM     11  C   UNL d   1      49.939  34.335  51.375  0.00  0.00     0.181 C 
ENDBRANCH   6  10
ENDBRANCH   1   4
BRANCH   1  12
ATOM     12  N   UNL d   1      52.784  32.807  53.205  0.00  0.00    -0.157 NA
BRANCH  12  13
ATOM     13  C   UNL d   1      53.420  32.271  53.221  0.00  0.00     0.112 C 
BRANCH  13  14
ATOM     14  C   UNL d   1      53.274  31.463  53.296  0.00  0.00     0.022 A 
ATOM     15  C   UNL d   1      53.457  31.081  54.004  0.00  0.00     0.028 A 
ATOM     16  C   UNL d   1      53.312  30.273  54.080  0.00  0.00     0.119 A 
ATOM     17  O   UNL d   1      53.434  29.753  54.704  0.00  0.00    -0.300 OA
ATOM     18  C   UNL d   1      52.986  29.843  53.455  0.00  0.00     0.119 A 
ATOM     19  C   UNL d   1      53.185  29.000  54.471  0.00  0.00     0.304 A 
ATOM     20  O   UNL d   1      52.908  29.070  53.691  0.00  0.00    -0.300 OA
ATOM     21  C   UNL d   1      52.805  30.235  52.746  0.00  0.00     0.026 A 
ATOM     22  C   UNL d   1      52.948  31.044  52.665  0.00  0.00     0.004 A 
ENDBRANCH  13  14
ENDBRANCH  12  13
ENDBRANCH   1  12
TORSDOF 5
ENDMDL
MODEL 2
REMARK VINA RESULT:      -7.9      1.759      4.307
REMARK  5 active torsions:
REMARK  status: ('A' for Active; 'I' for Inactive)
REMARK    1  A    between atoms: C_2  and  S_1 
REMARK    2  A    between atoms: N_3  and  S_1 
REMARK    3  A    between atoms: C_14  and  N_3 
REMARK    4  A    between atoms: C_15  and  C_14 
REMARK    5  A    between atoms: O_18  and  C_16 
ROOT
ATOM      1  S   UNL d   1      53.314  31.830  53.446  0.00  0.00     0.285 S 
ATOM      2  O   UNL d   1      52.726  31.355  53.114  0.00  0.00    -0.198 OA
ATOM      3  O   UNL d   1      53.764  31.166  53.599  0.00  0.00    -0.198 OA
ENDROOT
BRANCH   1   4
ATOM      4  C   UNL d   1      53.897  32.311  53.776  0.00  0.00     0.107 A 
ATOM      5  C   UNL d   1      53.881  32.496  54.582  0.00  0.00     0.037 A 
ATOM      6  C   UNL d   1      54.468  32.978  54.904  0.00  0.00     0.095 A 
ATOM      7  C   UNL d   1      55.070  33.275  54.421  0.00  0.00     0.024 A 
ATOM      8  C   UNL d   1      55.084  33.089  53.619  0.00  0.00     0.003 A 
ATOM      9  C   UNL d   1      54.497  32.607  53.296  0.00  0.00     0.013 A 
BRANCH   6  10
ATOM     10  O   UNL d   1      54.455  33.164  55.706  0.00  0.00    -0.328 OA
ATOM     11  C   UNL d   1      54.842  33.839  55.981  0.00  0.00     0.181 C 
ENDBRANCH   6  10
ENDBRANCH   1   4
BRANCH   1  12
ATOM     12  N   UNL d   1      52.856  32.498  53.290  0.00  0.00    -0.157 NA
BRANCH  12  13
ATOM     13  C   UNL d   1      52.110  32.412  52.931  0.00  0.00     0.112 C 
BRANCH  13  14
ATOM     14  C   UNL d   1      51.642  33.076  52.792  0.00  0.00     0.022 A 
ATOM     15  C   UNL d   1      51.000  33.232  53.286  0.00  0.00     0.028 A 
ATOM     16  C   UNL d   1      50.531  33.895  53.146  0.00  0.00     0.119 A 
ATOM     17  O   UNL d   1      49.869  34.187  53.536  0.00  0.00    -0.300 OA
ATOM     18  C   UNL d   1      50.697  34.405  52.519  0.00  0.00     0.119 A 
ATOM     19  C   UNL d   1      49.622  34.877  53.154  0.00  0.00     0.304 A 
ATOM     20  O   UNL d   1      50.146  35.001  52.522  0.00  0.00    -0.300 OA
ATOM     21  C   UNL d   1      51.345  34.241  52.027  0.00  0.00     0.026 A 
ATOM     22  C   UNL d   1      51.818  33.578  52.161  0.00  0.00     0.004 A 
ENDBRANCH  13  14
ENDBRANCH  12  13
ENDBRANCH   1  12
TORSDOF 5
ENDMDL
MODEL 3
REMARK VINA RESULT:      -7.8      1.094      4.274
REMARK  5 active torsions:
REMARK  status: ('A' for Active; 'I' for Inactive)
REMARK    1  A    between atoms: C_2  and  S_1 
REMARK    2  A    between atoms: N_3  and  S_1 
REMARK    3  A    between atoms: C_14  and  N_3 
REMARK    4  A    between atoms: C_15  and  C_14 
REMARK    5  A    between atoms: O_18  and  C_16 
ROOT
ATOM      1  S   UNL d   1      53.421  33.725  54.408  0.00  0.00     0.285 S 
ATOM      2  O   UNL d   1      53.095  34.418  54.717  0.00  0.00    -0.198 OA
ATOM      3  O   UNL d   1      53.965  33.710  55.017  0.00  0.00    -0.198 OA
ENDROOT
BRANCH   1   4
ATOM      4  C   UNL d   1      53.740  33.033  54.093  0.00  0.00     0.107 A 
ATOM      5  C   UNL d   1      53.392  32.300  54.254  0.00  0.00     0.037 A 
ATOM      6  C   UNL d   1      53.718  31.612  53.935  0.00  0.00     0.095 A 
ATOM      7  C   UNL d   1      54.392  31.657  53.457  0.00  0.00     0.024 A 
ATOM      8  C   UNL d   1      54.736  32.388  53.299  0.00  0.00     0.003 A 
ATOM      9  C   UNL d   1      54.411  33.076  53.617  0.00  0.00     0.013 A 
BRANCH   6  10
ATOM     10  O   UNL d   1      53.374  30.881  54.093  0.00  0.00    -0.328 OA
ATOM     11  C   UNL d   1      53.368  30.293  53.515  0.00  0.00     0.181 C 
ENDBRANCH   6  10
ENDBRANCH   1   4
BRANCH   1  12
ATOM     12  N   UNL d   1      52.869  33.744  53.795  0.00  0.00    -0.157 NA
BRANCH  12  13
ATOM     13  C   UNL d   1      52.413  34.430  53.672  0.00  0.00     0.112 C 
BRANCH  13  14
ATOM     14  C   UNL d   1      51.789  34.418  53.134  0.00  0.00     0.022 A 
ATOM     15  C   UNL d   1      51.017  34.523  53.404  0.00  0.00     0.028 A 
ATOM     16  C   UNL d   1      50.392  34.511  52.866  0.00  0.00     0.119 A 
ATOM     17  O   UNL d   1      49.582  34.598  52.968  0.00  0.00    -0.300 OA
ATOM     18  C   UNL d   1      50.532  34.395  52.061  0.00  0.00     0.119 A 
ATOM     19  C   UNL d   1      49.216  34.537  52.230  0.00  0.00     0.304 A 
ATOM     20  O   UNL d   1      49.819  34.410  51.673  0.00  0.00    -0.300 OA
ATOM     21  C   UNL d   1      51.312  34.290  51.797  0.00  0.00     0.026 A 
ATOM     22  C   UNL d   1      51.941  34.301  52.332  0.00  0.00     0.004 A 
ENDBRANCH  13  14
ENDBRANCH  12  13
ENDBRANCH   1  12
TORSDOF 5
ENDMDL
MODEL 4
REMARK VINA RESULT:      -7.6      1.221      1.667
REMARK  5 active torsions:
REMARK  status: ('A' for Active; 'I' for Inactive)
REMARK    1  A    between atoms: C_2  and  S_1 
REMARK    2  A    between atoms: N_3  and  S_1 
REMARK    3  A    between atoms: C_14  and  N_3 
REMARK    4  A    between atoms: C_15  and  C_14 
REMARK    5  A    between atoms: O_18  and  C_16 
ROOT
ATOM      1  S   UNL d   1      54.504  33.233  53.788  0.00  0.00     0.285 S 
ATOM      2  O   UNL d   1      55.108  32.741  53.515  0.00  0.00    -0.198 OA
ATOM      3  O   UNL d   1      55.033  33.853  53.844  0.00  0.00    -0.198 OA
ENDROOT
BRANCH   1   4
ATOM      4  C   UNL d   1      53.894  33.718  54.060  0.00  0.00     0.107 A 
ATOM      5  C   UNL d   1      53.381  34.085  53.526  0.00  0.00     0.037 A 
ATOM      6  C   UNL d   1      52.774  34.569  53.805  0.00  0.00     0.095 A 
ATOM      7  C   UNL d   1      52.680  34.685  54.619  0.00  0.00     0.024 A 
ATOM      8  C   UNL d   1      53.193  34.318  55.149  0.00  0.00     0.003 A 
ATOM      9  C   UNL d   1      53.800  33.834  54.870  0.00  0.00     0.013 A 
BRANCH   6  10
ATOM     10  O   UNL d   1      52.262  34.936  53.276  0.00  0.00    -0.328 OA
ATOM     11  C   UNL d   1      51.597  34.535  52.997  0.00  0.00     0.181 C 
ENDBRANCH   6  10
ENDBRANCH   1   4
BRANCH   1  12
ATOM     12  N   UNL d   1      53.972  32.604  53.731  0.00  0.00    -0.157 NA
BRANCH  12  13
ATOM     13  C   UNL d   1      54.206  31.901  53.352  0.00  0.00     0.112 C 
BRANCH  13  14
ATOM     14  C   UNL d   1      53.714  31.240  53.372  0.00  0.00     0.022 A 
ATOM     15  C   UNL d   1      53.859  30.641  53.920  0.00  0.00     0.028 A 
ATOM     16  C   UNL d   1      53.367  29.980  53.941  0.00  0.00     0.119 A 
ATOM     17  O   UNL d   1      53.374  29.309  54.416  0.00  0.00    -0.300 OA
ATOM     18  C   UNL d   1      52.732  29.911  53.419  0.00  0.00     0.119 A 
ATOM     19  C   UNL d   1      52.745  28.823  54.191  0.00  0.00     0.304 A 
ATOM     20  O   UNL d   1      52.353  29.209  53.569  0.00  0.00    -0.300 OA
ATOM     21  C   UNL d   1      52.592  30.518  52.870  0.00  0.00     0.026 A 
ATOM     22  C   UNL d   1      53.082  31.183  52.845  0.00  0.00     0.004 A 
ENDBRANCH  13  14
ENDBRANCH  12  13
ENDBRANCH   1  12
TORSDOF 5
ENDMDL
