MODEL 1
REMARK VINA RESULT:      -6.7      0.000      0.000
REMARK  5 active torsions:
REMARK  status: ('A' for Active; 'I' for Inactive)
REMARK    1  A    between atoms: C_10  and  C_3 
REMARK    2  A    between atoms: N_12  and  C_4 
REMARK    3  A    between atoms: N_11  and  C_21 
REMARK    4  A    between atoms: C_20  and  N_12 
REMARK    5  A    between atoms: C_21  and  C_20 
ROOT
ATOM      1  C   UNL d   1     -48.076  13.265  23.190  0.00  0.00     0.168 A 
ATOM      2  N   UNL d   1     -47.331  12.874  23.318  0.00  0.00    -0.184 N 
ATOM      3  C   UNL d   1     -48.094  14.041  22.952  0.00  0.00     0.057 A 
ATOM      4  C   UNL d   1     -47.333  12.102  23.555  0.00  0.00     0.218 A 
ATOM      5  N   UNL d   1     -46.656  14.074  22.959  0.00  0.00    -0.160 NA
ATOM      6  N   UNL d   1     -48.775  12.858  23.307  0.00  0.00    -0.227 NA
ATOM      7  C   UNL d   1     -48.032  11.682  23.675  0.00  0.00     0.071 A 
ATOM      8  C   UNL d   1     -47.378  14.453  22.834  0.00  0.00     0.124 A 
ATOM      9  C   UNL d   1     -48.766  12.067  23.549  0.00  0.00     0.087 A 
ATOM     10  C   UNL d   1     -49.501  11.638  23.672  0.00  0.00     0.021 C 
ENDROOT
BRANCH   4  11
ATOM     11  N   UNL d   1     -46.582  11.704  23.685  0.00  0.00    -0.379 NA
BRANCH  11  12
ATOM     12  C   UNL d   1     -45.925  11.156  23.684  0.00  0.00     0.182 C 
BRANCH  12  13
ATOM     13  C   UNL d   1     -45.260  11.319  23.201  0.00  0.00     0.116 C 
BRANCH  13  14
ATOM     14  N   UNL d   1     -44.545  10.841  23.287  0.00  0.00    -0.297 N 
ATOM     15  C   UNL d   1     -43.797  11.157  23.056  0.00  0.00     0.107 A 
ATOM     16  C   UNL d   1     -43.076  10.678  23.141  0.00  0.00     0.142 A 
ATOM     17  O   UNL d   1     -43.116   9.902  23.450  0.00  0.00    -0.300 OA
ATOM     18  C   UNL d   1     -43.878   9.564  23.691  0.00  0.00     0.142 A 
ATOM     19  C   UNL d   1     -44.598  10.038  23.608  0.00  0.00     0.107 A 
ENDBRANCH  13  14
ENDBRANCH  12  13
ENDBRANCH  11  12
ENDBRANCH   4  11
BRANCH   3  20
ATOM     20  C   UNL d   1     -48.816  14.419  22.828  0.00  0.00     0.005 A 
ATOM     21  C   UNL d   1     -49.209  14.320  22.121  0.00  0.00     0.001 A 
ATOM     22  C   UNL d   1     -49.920  14.693  21.999  0.00  0.00     0.011 A 
ATOM     23  C   UNL d   1     -50.249  15.170  22.582  0.00  0.00     0.058 A 
ATOM     24  C   UNL d   1     -49.855  15.268  23.289  0.00  0.00     0.011 A 
ATOM     25 CL   UNL d   1     -51.006  15.567  22.451  0.00  0.00    -0.082 Cl
ATOM     26  C   UNL d   1     -49.133  14.890  23.413  0.00  0.00     0.001 A 
ENDBRANCH   3  20
TORSDOF 5
ENDMDL
