MODEL 1
REMARK VINA RESULT:      -3.4      0.000      0.000
REMARK  7 active torsions:
REMARK  status: ('A' for Active; 'I' for Inactive)
REMARK    1  A    between atoms: C_23  and  C_3 
REMARK    2  A    between atoms: S_18  and  C_5 
REMARK    3  A    between atoms: C_11  and  C_16 
REMARK       I    between atoms: N_14  and  C_11 
REMARK    4  A    between atoms: C_17  and  N_14 
REMARK    5  A    between atoms: C_16  and  C_21 
REMARK    6  A    between atoms: C_21  and  S_18 
REMARK    7  A    between atoms: O_24  and  C_22 
ROOT
ATOM      1  C   UNL d   1      59.431  -1.077  29.061  0.00  0.00     0.092 A 
ATOM      2  C   UNL d   1      59.386  -2.477  28.799  0.00  0.00     0.057 A 
ATOM      3  C   UNL d   1      59.818  -1.780  28.880  0.00  0.00     0.016 A 
ATOM      4  N   UNL d   1      58.181  -1.766  29.082  0.00  0.00    -0.239 NA
ATOM      5  C   UNL d   1      58.612  -1.070  29.162  0.00  0.00     0.120 A 
ATOM      6  C   UNL d   1      58.567  -2.470  28.900  0.00  0.00     0.081 A 
ATOM      7  C   UNL d   1      59.774  -3.180  28.618  0.00  0.00     0.193 A 
ATOM      8  C   UNL d   1      59.867  -0.369  29.143  0.00  0.00     0.103 C 
ATOM      9  N   UNL d   1      60.312   0.332  29.223  0.00  0.00    -0.191 NA
ATOM     10  C   UNL d   1      58.523  -3.878  28.637  0.00  0.00     0.042 A 
ATOM     11  C   UNL d   1      59.341  -3.885  28.536  0.00  0.00     0.019 A 
ATOM     12  C   UNL d   1      58.136  -3.166  28.820  0.00  0.00    -0.003 A 
ATOM     13  O   UNL d   1      60.592  -3.188  28.517  0.00  0.00    -0.287 OA
ATOM     14  C   UNL d   1      57.737  -4.145  28.681  0.00  0.00     0.009 C 
ATOM     15  C   UNL d   1      58.901  -4.586  28.455  0.00  0.00     0.009 C 
ENDROOT
BRANCH   3  16
ATOM     16  C   UNL d   1      60.636  -1.788  28.779  0.00  0.00     0.001 C 
ATOM     17  C   UNL d   1      61.133  -1.833  29.435  0.00  0.00     0.000 C 
ENDBRANCH   3  16
BRANCH   5  18
ATOM     18  S   UNL d   1      58.226  -0.354  29.346  0.00  0.00    -0.067 SA
BRANCH  18  19
ATOM     19  C   UNL d   1      58.125  -0.128  30.133  0.00  0.00     0.042 C 
BRANCH  19  20
ATOM     20  C   UNL d   1      57.520  -0.465  30.584  0.00  0.00     0.070 C 
BRANCH  20  21
ATOM     21  C   UNL d   1      57.291  -0.104  31.303  0.00  0.00     0.280 C 
ATOM     22  N   UNL d   1      56.724  -0.470  31.777  0.00  0.00    -0.208 NA
ATOM     23  O   UNL d   1      57.633   0.612  31.528  0.00  0.00    -0.265 OA
BRANCH  22  24
ATOM     24  C   UNL d   1      56.493  -0.109  32.499  0.00  0.00     0.087 A 
ATOM     25  C   UNL d   1      55.694   0.046  32.638  0.00  0.00     0.043 A 
ATOM     26  C   UNL d   1      55.471   0.400  33.348  0.00  0.00     0.096 A 
ATOM     27  C   UNL d   1      56.035   0.603  33.924  0.00  0.00     0.024 A 
ATOM     28  C   UNL d   1      56.833   0.446  33.780  0.00  0.00     0.004 A 
ATOM     29  C   UNL d   1      57.068   0.090  33.069  0.00  0.00     0.019 A 
BRANCH  26  30
ATOM     30  O   UNL d   1      54.672   0.555  33.486  0.00  0.00    -0.328 OA
ATOM     31  C   UNL d   1      54.390   0.596  34.264  0.00  0.00     0.181 C 
ENDBRANCH  26  30
ENDBRANCH  22  24
ENDBRANCH  20  21
ENDBRANCH  19  20
ENDBRANCH  18  19
ENDBRANCH   5  18
TORSDOF 7
ENDMDL
MODEL 2
REMARK VINA RESULT:      -2.8      1.922      6.545
REMARK  7 active torsions:
REMARK  status: ('A' for Active; 'I' for Inactive)
REMARK    1  A    between atoms: C_23  and  C_3 
REMARK    2  A    between atoms: S_18  and  C_5 
REMARK    3  A    between atoms: C_11  and  C_16 
REMARK       I    between atoms: N_14  and  C_11 
REMARK    4  A    between atoms: C_17  and  N_14 
REMARK    5  A    between atoms: C_16  and  C_21 
REMARK    6  A    between atoms: C_21  and  S_18 
REMARK    7  A    between atoms: O_24  and  C_22 
ROOT
ATOM      1  C   UNL d   1      56.781   0.682  34.098  0.00  0.00     0.092 A 
ATOM      2  C   UNL d   1      55.432   0.682  34.559  0.00  0.00     0.057 A 
ATOM      3  C   UNL d   1      56.241   0.682  34.719  0.00  0.00     0.016 A 
ATOM      4  N   UNL d   1      55.706   0.682  33.158  0.00  0.00    -0.239 NA
ATOM      5  C   UNL d   1      56.513   0.682  33.317  0.00  0.00     0.120 A 
ATOM      6  C   UNL d   1      55.165   0.682  33.779  0.00  0.00     0.081 A 
ATOM      7  C   UNL d   1      54.893   0.682  35.181  0.00  0.00     0.193 A 
ATOM      8  C   UNL d   1      57.602   0.682  34.257  0.00  0.00     0.103 C 
ATOM      9  N   UNL d   1      58.418   0.682  34.427  0.00  0.00    -0.191 NA
ATOM     10  C   UNL d   1      53.809   0.682  34.243  0.00  0.00     0.042 A 
ATOM     11  C   UNL d   1      54.077   0.682  35.024  0.00  0.00     0.019 A 
ATOM     12  C   UNL d   1      54.358   0.682  33.620  0.00  0.00    -0.003 A 
ATOM     13  O   UNL d   1      55.160   0.682  35.960  0.00  0.00    -0.287 OA
ATOM     14  C   UNL d   1      53.292   0.682  33.593  0.00  0.00     0.009 C 
ATOM     15  C   UNL d   1      53.262   0.682  34.858  0.00  0.00     0.009 C 
ENDROOT
BRANCH   3  16
ATOM     16  C   UNL d   1      56.508   0.682  35.499  0.00  0.00     0.001 C 
ATOM     17  C   UNL d   1      56.493  -0.014  35.940  0.00  0.00     0.000 C 
ENDBRANCH   3  16
BRANCH   5  18
ATOM     18  S   UNL d   1      57.066   0.682  32.693  0.00  0.00    -0.067 SA
BRANCH  18  19
ATOM     19  C   UNL d   1      57.090   0.051  32.161  0.00  0.00     0.042 C 
BRANCH  19  20
ATOM     20  C   UNL d   1      56.989   0.189  31.353  0.00  0.00     0.070 C 
BRANCH  20  21
ATOM     21  C   UNL d   1      57.478  -0.207  30.802  0.00  0.00     0.280 C 
ATOM     22  N   UNL d   1      57.943   0.234  30.283  0.00  0.00    -0.208 NA
ATOM     23  O   UNL d   1      57.489  -1.032  30.784  0.00  0.00    -0.265 OA
BRANCH  22  24
ATOM     24  C   UNL d   1      58.435  -0.163  29.729  0.00  0.00     0.087 A 
ATOM     25  C   UNL d   1      59.254  -0.075  29.777  0.00  0.00     0.043 A 
ATOM     26  C   UNL d   1      59.732  -0.465  29.232  0.00  0.00     0.096 A 
ATOM     27  C   UNL d   1      59.404  -0.944  28.636  0.00  0.00     0.024 A 
ATOM     28  C   UNL d   1      58.585  -1.028  28.592  0.00  0.00     0.004 A 
ATOM     29  C   UNL d   1      58.094  -0.640  29.136  0.00  0.00     0.019 A 
BRANCH  26  30
ATOM     30  O   UNL d   1      60.551  -0.377  29.280  0.00  0.00    -0.328 OA
ATOM     31  C   UNL d   1      60.993  -0.251  28.591  0.00  0.00     0.181 C 
ENDBRANCH  26  30
ENDBRANCH  22  24
ENDBRANCH  20  21
ENDBRANCH  19  20
ENDBRANCH  18  19
ENDBRANCH   5  18
TORSDOF 7
ENDMDL
MODEL 3
REMARK VINA RESULT:      -1.4      1.286      5.855
REMARK  7 active torsions:
REMARK  status: ('A' for Active; 'I' for Inactive)
REMARK    1  A    between atoms: C_23  and  C_3 
REMARK    2  A    between atoms: S_18  and  C_5 
REMARK    3  A    between atoms: C_11  and  C_16 
REMARK       I    between atoms: N_14  and  C_11 
REMARK    4  A    between atoms: C_17  and  N_14 
REMARK    5  A    between atoms: C_16  and  C_21 
REMARK    6  A    between atoms: C_21  and  S_18 
REMARK    7  A    between atoms: O_24  and  C_22 
ROOT
ATOM      1  C   UNL d   1      57.815   0.668  32.660  0.00  0.00     0.092 A 
ATOM      2  C   UNL d   1      56.656   0.665  33.488  0.00  0.00     0.057 A 
ATOM      3  C   UNL d   1      57.476   0.663  33.410  0.00  0.00     0.016 A 
ATOM      4  N   UNL d   1      56.517   0.676  32.067  0.00  0.00    -0.239 NA
ATOM      5  C   UNL d   1      57.336   0.674  31.989  0.00  0.00     0.120 A 
ATOM      6  C   UNL d   1      56.176   0.672  32.817  0.00  0.00     0.081 A 
ATOM      7  C   UNL d   1      56.317   0.661  34.238  0.00  0.00     0.193 A 
ATOM      8  C   UNL d   1      58.648   0.665  32.577  0.00  0.00     0.103 C 
ATOM      9  N   UNL d   1      59.478   0.663  32.506  0.00  0.00    -0.191 NA
ATOM     10  C   UNL d   1      55.011   0.669  33.651  0.00  0.00     0.042 A 
ATOM     11  C   UNL d   1      55.490   0.663  34.322  0.00  0.00     0.019 A 
ATOM     12  C   UNL d   1      55.358   0.674  32.896  0.00  0.00    -0.003 A 
ATOM     13  O   UNL d   1      56.796   0.654  34.909  0.00  0.00    -0.287 OA
ATOM     14  C   UNL d   1      54.328   0.675  33.176  0.00  0.00     0.009 C 
ATOM     15  C   UNL d   1      54.662   0.665  34.396  0.00  0.00     0.009 C 
ENDROOT
BRANCH   3  16
ATOM     16  C   UNL d   1      57.955   0.657  34.080  0.00  0.00     0.001 C 
ATOM     17  C   UNL d   1      57.836   0.092  34.668  0.00  0.00     0.000 C 
ENDBRANCH   3  16
BRANCH   5  18
ATOM     18  S   UNL d   1      57.686   0.678  31.232  0.00  0.00    -0.067 SA
BRANCH  18  19
ATOM     19  C   UNL d   1      57.567   0.045  30.716  0.00  0.00     0.042 C 
BRANCH  19  20
ATOM     20  C   UNL d   1      58.019  -0.015  30.028  0.00  0.00     0.070 C 
BRANCH  20  21
ATOM     21  C   UNL d   1      58.257  -0.770  29.754  0.00  0.00     0.280 C 
ATOM     22  N   UNL d   1      58.924  -0.835  29.276  0.00  0.00    -0.208 NA
ATOM     23  O   UNL d   1      57.820  -1.437  29.966  0.00  0.00    -0.265 OA
BRANCH  22  24
ATOM     24  C   UNL d   1      59.164  -1.592  29.001  0.00  0.00     0.087 A 
ATOM     25  C   UNL d   1      58.606  -2.196  28.934  0.00  0.00     0.043 A 
ATOM     26  C   UNL d   1      58.845  -2.936  28.663  0.00  0.00     0.096 A 
ATOM     27  C   UNL d   1      59.637  -3.084  28.457  0.00  0.00     0.024 A 
ATOM     28  C   UNL d   1      60.192  -2.477  28.526  0.00  0.00     0.004 A 
ATOM     29  C   UNL d   1      59.961  -1.728  28.797  0.00  0.00     0.019 A 
BRANCH  26  30
ATOM     30  O   UNL d   1      58.287  -3.540  28.597  0.00  0.00    -0.328 OA
ATOM     31  C   UNL d   1      58.255  -4.136  29.170  0.00  0.00     0.181 C 
ENDBRANCH  26  30
ENDBRANCH  22  24
ENDBRANCH  20  21
ENDBRANCH  19  20
ENDBRANCH  18  19
ENDBRANCH   5  18
TORSDOF 7
ENDMDL
MODEL 4
REMARK VINA RESULT:      -0.5      1.368      5.705
REMARK  7 active torsions:
REMARK  status: ('A' for Active; 'I' for Inactive)
REMARK    1  A    between atoms: C_23  and  C_3 
REMARK    2  A    between atoms: S_18  and  C_5 
REMARK    3  A    between atoms: C_11  and  C_16 
REMARK       I    between atoms: N_14  and  C_11 
REMARK    4  A    between atoms: C_17  and  N_14 
REMARK    5  A    between atoms: C_16  and  C_21 
REMARK    6  A    between atoms: C_21  and  S_18 
REMARK    7  A    between atoms: O_24  and  C_22 
ROOT
ATOM      1  C   UNL d   1      58.563  -0.508  30.135  0.00  0.00     0.092 A 
ATOM      2  C   UNL d   1      57.783  -0.352  31.318  0.00  0.00     0.057 A 
ATOM      3  C   UNL d   1      58.410  -0.111  30.840  0.00  0.00     0.016 A 
ATOM      4  N   UNL d   1      57.466  -1.386  30.385  0.00  0.00    -0.239 NA
ATOM      5  C   UNL d   1      58.091  -1.145  29.908  0.00  0.00     0.120 A 
ATOM      6  C   UNL d   1      57.311  -0.989  31.090  0.00  0.00     0.081 A 
ATOM      7  C   UNL d   1      57.630   0.045  32.022  0.00  0.00     0.193 A 
ATOM      8  C   UNL d   1      59.199  -0.266  29.649  0.00  0.00     0.103 C 
ATOM      9  N   UNL d   1      59.835  -0.016  29.171  0.00  0.00    -0.191 NA
ATOM     10  C   UNL d   1      56.527  -0.833  32.279  0.00  0.00     0.042 A 
ATOM     11  C   UNL d   1      56.999  -0.195  32.507  0.00  0.00     0.019 A 
ATOM     12  C   UNL d   1      56.686  -1.230  31.567  0.00  0.00    -0.003 A 
ATOM     13  O   UNL d   1      58.102   0.681  32.249  0.00  0.00    -0.287 OA
ATOM     14  C   UNL d   1      55.926  -1.407  32.295  0.00  0.00     0.009 C 
ATOM     15  C   UNL d   1      56.366  -0.442  32.985  0.00  0.00     0.009 C 
ENDROOT
BRANCH   3  16
ATOM     16  C   UNL d   1      58.882   0.525  31.067  0.00  0.00     0.001 C 
ATOM     17  C   UNL d   1      59.606   0.391  31.437  0.00  0.00     0.000 C 
ENDBRANCH   3  16
BRANCH   5  18
ATOM     18  S   UNL d   1      58.252  -1.543  29.193  0.00  0.00    -0.067 SA
BRANCH  18  19
ATOM     19  C   UNL d   1      58.493  -2.333  29.203  0.00  0.00     0.042 C 
BRANCH  19  20
ATOM     20  C   UNL d   1      58.555  -2.752  28.494  0.00  0.00     0.070 C 
BRANCH  20  21
ATOM     21  C   UNL d   1      58.909  -3.511  28.492  0.00  0.00     0.280 C 
ATOM     22  N   UNL d   1      58.430  -4.181  28.460  0.00  0.00    -0.208 NA
ATOM     23  O   UNL d   1      59.730  -3.578  28.523  0.00  0.00    -0.265 OA
BRANCH  22  24
ATOM     24  C   UNL d   1      58.783  -4.943  28.459  0.00  0.00     0.087 A 
ATOM     25  C   UNL d   1      59.606  -5.009  28.458  0.00  0.00     0.043 A 
ATOM     26  C   UNL d   1      59.949  -5.758  28.456  0.00  0.00     0.096 A 
ATOM     27  C   UNL d   1      59.481  -6.446  28.456  0.00  0.00     0.024 A 
ATOM     28  C   UNL d   1      58.659  -6.375  28.456  0.00  0.00     0.004 A 
ATOM     29  C   UNL d   1      58.304  -5.625  28.458  0.00  0.00     0.019 A 
BRANCH  26  30
ATOM     30  O   UNL d   1      60.771  -5.824  28.456  0.00  0.00    -0.328 OA
ATOM     31  C   UNL d   1      61.123  -6.574  28.465  0.00  0.00     0.181 C 
ENDBRANCH  26  30
ENDBRANCH  22  24
ENDBRANCH  20  21
ENDBRANCH  19  20
ENDBRANCH  18  19
ENDBRANCH   5  18
TORSDOF 7
ENDMDL
