MODEL 1
REMARK VINA RESULT:      14.6      0.000      0.000
REMARK  4 active torsions:
REMARK  status: ('A' for Active; 'I' for Inactive)
REMARK    1  A    between atoms: N_7  and  C_1 
REMARK    2  A    between atoms: N_8  and  C_4 
REMARK    3  A    between atoms: N_11  and  C_5 
REMARK    4  A    between atoms: C_13  and  N_8 
ROOT
ATOM      1  C   UNL d   1      46.285 -18.840  43.135  0.00  0.00     0.201 A 
ATOM      2  N   UNL d   1      46.336 -18.515  44.544  0.00  0.00    -0.038 NA
ATOM      3  N   UNL d   1      46.218 -17.488  43.556  0.00  0.00    -0.036 NA
ATOM      4  C   UNL d   1      46.273 -17.707  44.340  0.00  0.00     0.753 A 
ATOM      5  C   UNL d   1      46.341 -19.070  43.933  0.00  0.00     0.206 A 
ATOM      6  C   UNL d   1      46.224 -18.053  42.948  0.00  0.00     0.227 A 
ATOM      7  N   UNL d   1      46.168 -17.816  42.156  0.00  0.00    -0.125 N 
ENDROOT
BRANCH   4   8
ATOM      8  N   UNL d   1      46.268 -17.152  44.951  0.00  0.00    -0.059 NA
BRANCH   8   9
ATOM      9  C   UNL d   1      45.924 -16.411  44.816  0.00  0.00     0.100 A 
ATOM     10  C   UNL d   1      45.110 -16.293  44.926  0.00  0.00     0.020 A 
ATOM     11  C   UNL d   1      44.762 -15.569  44.795  0.00  0.00     0.008 A 
ATOM     12  C   UNL d   1      45.218 -14.927  44.547  0.00  0.00     0.035 A 
ATOM     13  C   UNL d   1      46.028 -15.027  44.433  0.00  0.00     0.008 A 
ATOM     14 BR   UNL d   1      44.872 -14.181  44.410  0.00  0.00    -0.049 Br
ATOM     15  C   UNL d   1      46.372 -15.767  44.568  0.00  0.00     0.020 A 
ENDBRANCH   8   9
ENDBRANCH   4   8
BRANCH   5  16
ATOM     16  N   UNL d   1      46.404 -19.896  44.123  0.00  0.00    -0.222 NA
ATOM     17  C   UNL d   1      46.273 -20.143  44.909  0.00  0.00     0.121 C 
ENDBRANCH   5  16
BRANCH   1  18
ATOM     18  N   UNL d   1      46.292 -19.434  42.527  0.00  0.00    -0.107 N 
ATOM     19  O   UNL d   1      45.935 -20.155  42.679  0.00  0.00    -0.531 OA
ATOM     20  O   UNL d   1      46.647 -19.281  41.819  0.00  0.00    -0.531 OA
ENDBRANCH   1  18
TORSDOF 4
ENDMDL
