MODEL 1
REMARK VINA RESULT:      -6.7      0.000      0.000
REMARK  5 active torsions:
REMARK  status: ('A' for Active; 'I' for Inactive)
REMARK    1  A    between atoms: C_12  and  C_4 
REMARK    2  A    between atoms: N_10  and  C_6 
REMARK    3  A    between atoms: C_11  and  C_9 
REMARK    4  A    between atoms: C_14  and  N_10 
REMARK    5  A    between atoms: C_15  and  C_14 
ROOT
ATOM      1  C   UNL d   1     -48.138  12.734  22.765  0.00  0.00     0.167 A 
ATOM      2  N   UNL d   1     -47.322  12.597  22.735  0.00  0.00    -0.195 N 
ATOM      3  N   UNL d   1     -47.551  11.239  23.018  0.00  0.00    -0.163 NA
ATOM      4  C   UNL d   1     -48.649  12.130  22.919  0.00  0.00     0.055 A 
ATOM      5  N   UNL d   1     -48.433  13.490  22.637  0.00  0.00    -0.231 NA
ATOM      6  C   UNL d   1     -46.821  13.221  22.577  0.00  0.00     0.167 A 
ATOM      7  C   UNL d   1     -48.355  11.373  23.047  0.00  0.00     0.104 A 
ATOM      8  C   UNL d   1     -47.115  13.981  22.448  0.00  0.00     0.054 A 
ATOM      9  C   UNL d   1     -47.918  14.115  22.478  0.00  0.00     0.063 A 
ATOM     10  C   UNL d   1     -48.859  10.755  23.204  0.00  0.00     0.023 C 
ENDROOT
BRANCH   6  11
ATOM     11  N   UNL d   1     -45.979  13.081  22.546  0.00  0.00    -0.224 NA
BRANCH  11  12
ATOM     12  C   UNL d   1     -45.258  13.444  22.311  0.00  0.00     0.120 C 
BRANCH  12  13
ATOM     13  C   UNL d   1     -44.582  12.977  22.130  0.00  0.00     0.101 A 
ATOM     14  N   UNL d   1     -44.405  12.301  22.601  0.00  0.00    -0.242 NA
ATOM     15  C   UNL d   1     -43.716  11.828  22.413  0.00  0.00     0.099 A 
ATOM     16  C   UNL d   1     -43.223  12.038  21.764  0.00  0.00     0.021 A 
ATOM     17  C   UNL d   1     -43.409  12.730  21.288  0.00  0.00     0.003 A 
ATOM     18  C   UNL d   1     -44.086  13.190  21.477  0.00  0.00     0.021 A 
ENDBRANCH  12  13
ENDBRANCH  11  12
ENDBRANCH   6  11
BRANCH   9  19
ATOM     19  C   UNL d   1     -48.226  14.898  22.346  0.00  0.00     0.036 C 
ATOM     20  C   UNL d   1     -48.530  15.671  22.209  0.00  0.00     0.006 C 
ATOM     21  C   UNL d   1     -48.327  15.432  23.003  0.00  0.00     0.006 C 
ATOM     22  C   UNL d   1     -48.428  15.136  21.556  0.00  0.00     0.006 C 
ENDBRANCH   9  19
BRANCH   4  23
ATOM     23  C   UNL d   1     -49.456  12.264  22.949  0.00  0.00     0.004 A 
ATOM     24  C   UNL d   1     -49.807  12.446  23.665  0.00  0.00     0.000 A 
ATOM     25  C   UNL d   1     -50.623  12.582  23.695  0.00  0.00     0.000 A 
ATOM     26  C   UNL d   1     -51.064  12.532  23.008  0.00  0.00     0.000 A 
ATOM     27  C   UNL d   1     -50.700  12.349  22.297  0.00  0.00     0.000 A 
ATOM     28  C   UNL d   1     -49.897  12.215  22.267  0.00  0.00     0.000 A 
ENDBRANCH   4  23
TORSDOF 5
ENDMDL
MODEL 2
REMARK VINA RESULT:      -3.7      7.006      9.497
REMARK  5 active torsions:
REMARK  status: ('A' for Active; 'I' for Inactive)
REMARK    1  A    between atoms: C_12  and  C_4 
REMARK    2  A    between atoms: N_10  and  C_6 
REMARK    3  A    between atoms: C_11  and  C_9 
REMARK    4  A    between atoms: C_14  and  N_10 
REMARK    5  A    between atoms: C_15  and  C_14 
ROOT
ATOM      1  C   UNL d   1     -39.859  14.915  19.269  0.00  0.00     0.167 A 
ATOM      2  N   UNL d   1     -39.450  14.905  18.549  0.00  0.00    -0.195 N 
ATOM      3  N   UNL d   1     -40.531  15.569  17.942  0.00  0.00    -0.163 NA
ATOM      4  C   UNL d   1     -40.591  15.248  19.321  0.00  0.00     0.055 A 
ATOM      5  N   UNL d   1     -39.517  14.584  19.939  0.00  0.00    -0.231 NA
ATOM      6  C   UNL d   1     -38.711  14.564  18.517  0.00  0.00     0.167 A 
ATOM      7  C   UNL d   1     -40.933  15.579  18.651  0.00  0.00     0.104 A 
ATOM      8  C   UNL d   1     -38.366  14.231  19.188  0.00  0.00     0.054 A 
ATOM      9  C   UNL d   1     -38.767  14.241  19.897  0.00  0.00     0.063 A 
ATOM     10  C   UNL d   1     -41.671  15.917  18.689  0.00  0.00     0.023 C 
ENDROOT
BRANCH   6  11
ATOM     11  N   UNL d   1     -38.289  14.554  17.774  0.00  0.00    -0.224 NA
BRANCH  11  12
ATOM     12  C   UNL d   1     -37.942  14.025  17.219  0.00  0.00     0.120 C 
BRANCH  12  13
ATOM     13  C   UNL d   1     -37.978  14.185  16.394  0.00  0.00     0.101 A 
ATOM     14  N   UNL d   1     -38.052  13.545  15.850  0.00  0.00    -0.242 NA
ATOM     15  C   UNL d   1     -38.089  13.712  15.011  0.00  0.00     0.099 A 
ATOM     16  C   UNL d   1     -38.051  14.506  14.735  0.00  0.00     0.021 A 
ATOM     17  C   UNL d   1     -37.975  15.154  15.296  0.00  0.00     0.003 A 
ATOM     18  C   UNL d   1     -37.940  14.984  16.118  0.00  0.00     0.021 A 
ENDBRANCH  12  13
ENDBRANCH  11  12
ENDBRANCH   6  11
BRANCH   9  19
ATOM     19  C   UNL d   1     -38.415  13.899  20.593  0.00  0.00     0.036 C 
ATOM     20  C   UNL d   1     -38.065  13.565  21.281  0.00  0.00     0.006 C 
ATOM     21  C   UNL d   1     -38.467  13.058  20.725  0.00  0.00     0.006 C 
ATOM     22  C   UNL d   1     -38.015  14.403  21.146  0.00  0.00     0.006 C 
ENDBRANCH   9  19
BRANCH   4  23
ATOM     23  C   UNL d   1     -40.995  15.257  20.033  0.00  0.00     0.004 A 
ATOM     24  C   UNL d   1     -41.492  14.637  20.221  0.00  0.00     0.000 A 
ATOM     25  C   UNL d   1     -41.901  14.647  20.941  0.00  0.00     0.000 A 
ATOM     26  C   UNL d   1     -41.799  15.277  21.452  0.00  0.00     0.000 A 
ATOM     27  C   UNL d   1     -41.297  15.893  21.251  0.00  0.00     0.000 A 
ATOM     28  C   UNL d   1     -40.895  15.883  20.542  0.00  0.00     0.000 A 
ENDBRANCH   4  23
TORSDOF 5
ENDMDL
