MODEL 1
REMARK VINA RESULT:      22.2      0.000      0.000
REMARK  1 active torsions:
REMARK  status: ('A' for Active; 'I' for Inactive)
REMARK    1  A    between atoms: C_8  and  N_3 
ROOT
ATOM      1  C   UNL d   1     -56.770 -98.793 -43.881  0.00  0.00     0.292 A 
ATOM      2  C   UNL d   1     -55.951 -98.799 -43.992  0.00  0.00     0.128 A 
ATOM      3  N   UNL d   1     -57.269 -98.824 -44.527  0.00  0.00    -0.194 N 
ATOM      4  N   UNL d   1     -56.963 -98.861 -45.295  0.00  0.00    -0.160 NA
ATOM      5  C   UNL d   1     -55.628 -98.837 -44.751  0.00  0.00     0.094 A 
ATOM      6  C   UNL d   1     -56.144 -98.868 -45.406  0.00  0.00     0.133 A 
ATOM      7  O   UNL d   1     -57.091 -98.755 -43.100  0.00  0.00    -0.264 OA
ATOM      8 CL   UNL d   1     -55.414 -98.768 -43.328  0.00  0.00    -0.076 Cl
ATOM      9 CL   UNL d   1     -54.813 -98.843 -44.862  0.00  0.00    -0.080 Cl
ENDROOT
BRANCH   3  10
ATOM     10  C   UNL d   1     -58.100 -98.818 -44.414  0.00  0.00     0.086 A 
ATOM     11  C   UNL d   1     -58.592 -98.761 -45.072  0.00  0.00     0.019 A 
ATOM     12  C   UNL d   1     -59.431 -98.755 -44.958  0.00  0.00     0.002 A 
ATOM     13  C   UNL d   1     -59.730 -98.805 -44.192  0.00  0.00     0.000 A 
ATOM     14  C   UNL d   1     -59.239 -98.861 -43.546  0.00  0.00     0.002 A 
ATOM     15  C   UNL d   1     -58.401 -98.867 -43.660  0.00  0.00     0.019 A 
ENDBRANCH   3  10
TORSDOF 1
ENDMDL
MODEL 2
REMARK VINA RESULT:      24.3      0.840      1.417
REMARK  1 active torsions:
REMARK  status: ('A' for Active; 'I' for Inactive)
REMARK    1  A    between atoms: C_8  and  N_3 
ROOT
ATOM      1  C   UNL d   1     -56.757 -98.822 -44.705  0.00  0.00     0.292 A 
ATOM      2  C   UNL d   1     -55.943 -98.850 -44.563  0.00  0.00     0.128 A 
ATOM      3  N   UNL d   1     -57.281 -98.843 -44.078  0.00  0.00    -0.194 N 
ATOM      4  N   UNL d   1     -57.005 -98.892 -43.300  0.00  0.00    -0.160 NA
ATOM      5  C   UNL d   1     -55.651 -98.900 -43.793  0.00  0.00     0.094 A 
ATOM      6  C   UNL d   1     -56.191 -98.921 -43.157  0.00  0.00     0.133 A 
ATOM      7  O   UNL d   1     -57.047 -98.771 -45.497  0.00  0.00    -0.264 OA
ATOM      8 CL   UNL d   1     -55.381 -98.829 -45.206  0.00  0.00    -0.076 Cl
ATOM      9 CL   UNL d   1     -54.841 -98.928 -43.651  0.00  0.00    -0.080 Cl
ENDROOT
BRANCH   3  10
ATOM     10  C   UNL d   1     -58.106 -98.814 -44.222  0.00  0.00     0.086 A 
ATOM     11  C   UNL d   1     -58.624 -98.816 -43.582  0.00  0.00     0.019 A 
ATOM     12  C   UNL d   1     -59.457 -98.786 -43.728  0.00  0.00     0.002 A 
ATOM     13  C   UNL d   1     -59.727 -98.757 -44.505  0.00  0.00     0.000 A 
ATOM     14  C   UNL d   1     -59.210 -98.755 -45.135  0.00  0.00     0.002 A 
ATOM     15  C   UNL d   1     -58.377 -98.785 -44.989  0.00  0.00     0.019 A 
ENDBRANCH   3  10
TORSDOF 1
ENDMDL
