MODEL 1
REMARK VINA RESULT:      -5.6      0.000      0.000
REMARK  5 active torsions:
REMARK  status: ('A' for Active; 'I' for Inactive)
REMARK    1  A    between atoms: N_12  and  C_4 
REMARK    2  A    between atoms: C_19  and  N_5 
REMARK    3  A    between atoms: C_11  and  S_18 
REMARK    4  A    between atoms: S_18  and  C_21 
REMARK    5  A    between atoms: C_21  and  C_19 
ROOT
ATOM      1  C   UNL d   1     -44.834  11.607  23.040  0.00  0.00     0.191 A 
ATOM      2  C   UNL d   1     -45.577  11.322  23.253  0.00  0.00     0.174 A 
ATOM      3  N   UNL d   1     -44.916  12.400  22.837  0.00  0.00    -0.042 NA
ATOM      4  C   UNL d   1     -45.701  12.605  22.923  0.00  0.00     0.722 A 
ATOM      5  N   UNL d   1     -46.119  11.938  23.181  0.00  0.00    -0.132 N 
ATOM      6  N   UNL d   1     -44.179  11.105  23.059  0.00  0.00    -0.239 N 
ATOM      7  C   UNL d   1     -44.267  10.318  23.291  0.00  0.00     0.358 A 
ATOM      8  N   UNL d   1     -45.010  10.033  23.504  0.00  0.00    -0.152 NA
ATOM      9  C   UNL d   1     -45.666  10.534  23.485  0.00  0.00     0.303 A 
ATOM     10  O   UNL d   1     -43.608   9.819  23.309  0.00  0.00    -0.244 OA
ATOM     11  O   UNL d   1     -46.409  10.249  23.698  0.00  0.00    -0.263 OA
ATOM     12  C   UNL d   1     -43.443  11.387  22.848  0.00  0.00     0.105 C 
ENDROOT
BRANCH   5  13
ATOM     13  C   UNL d   1     -46.931  11.897  23.340  0.00  0.00     0.105 C 
BRANCH  13  14
ATOM     14  C   UNL d   1     -47.453  11.609  22.763  0.00  0.00     0.058 C 
BRANCH  14  15
ATOM     15  S   UNL d   1     -48.230  11.391  22.981  0.00  0.00    -0.041 SA
BRANCH  15  16
ATOM     16  C   UNL d   1     -48.868  11.830  22.688  0.00  0.00     0.215 A 
ATOM     17  N   UNL d   1     -49.359  12.243  23.195  0.00  0.00    -0.214 NA
ATOM     18  C   UNL d   1     -49.927  12.616  22.751  0.00  0.00     0.107 A 
ATOM     19  C   UNL d   1     -50.559  13.104  22.978  0.00  0.00     0.021 A 
ATOM     20  C   UNL d   1     -49.806  12.448  21.969  0.00  0.00     0.120 A 
ATOM     21  C   UNL d   1     -51.064  13.417  22.400  0.00  0.00     0.002 A 
ATOM     22  C   UNL d   1     -50.939  13.246  21.618  0.00  0.00     0.002 A 
ATOM     23  C   UNL d   1     -50.307  12.760  21.402  0.00  0.00     0.026 A 
ATOM     24  O   UNL d   1     -49.137  11.951  21.924  0.00  0.00    -0.283 OA
ENDBRANCH  15  16
ENDBRANCH  14  15
ENDBRANCH  13  14
ENDBRANCH   5  13
BRANCH   4  25
ATOM     25  N   UNL d   1     -46.057  13.336  22.786  0.00  0.00    -0.139 N 
ATOM     26  C   UNL d   1     -46.268  13.821  23.428  0.00  0.00     0.098 A 
ATOM     27  C   UNL d   1     -46.625  14.552  23.291  0.00  0.00     0.020 A 
ATOM     28  C   UNL d   1     -46.771  14.803  22.525  0.00  0.00     0.003 A 
ATOM     29  C   UNL d   1     -46.561  14.320  21.890  0.00  0.00     0.020 A 
ATOM     30  C   UNL d   1     -46.204  13.587  22.019  0.00  0.00     0.098 A 
ENDBRANCH   4  25
TORSDOF 5
ENDMDL
MODEL 2
REMARK VINA RESULT:      -4.5      0.822      1.092
REMARK  5 active torsions:
REMARK  status: ('A' for Active; 'I' for Inactive)
REMARK    1  A    between atoms: N_12  and  C_4 
REMARK    2  A    between atoms: C_19  and  N_5 
REMARK    3  A    between atoms: C_11  and  S_18 
REMARK    4  A    between atoms: S_18  and  C_21 
REMARK    5  A    between atoms: C_21  and  C_19 
ROOT
ATOM      1  C   UNL d   1     -44.713  12.533  22.443  0.00  0.00     0.191 A 
ATOM      2  C   UNL d   1     -45.258  12.124  22.905  0.00  0.00     0.174 A 
ATOM      3  N   UNL d   1     -45.061  13.241  22.210  0.00  0.00    -0.042 NA
ATOM      4  C   UNL d   1     -45.813  13.272  22.524  0.00  0.00     0.722 A 
ATOM      5  N   UNL d   1     -45.943  12.579  22.958  0.00  0.00    -0.132 N 
ATOM      6  N   UNL d   1     -43.970  12.205  22.294  0.00  0.00    -0.239 N 
ATOM      7  C   UNL d   1     -43.773  11.468  22.609  0.00  0.00     0.358 A 
ATOM      8  N   UNL d   1     -44.319  11.059  23.071  0.00  0.00    -0.152 NA
ATOM      9  C   UNL d   1     -45.062  11.386  23.220  0.00  0.00     0.303 A 
ATOM     10  O   UNL d   1     -43.028  11.143  22.458  0.00  0.00    -0.244 OA
ATOM     11  O   UNL d   1     -45.607  10.977  23.683  0.00  0.00    -0.263 OA
ATOM     12  C   UNL d   1     -43.430  12.610  21.836  0.00  0.00     0.105 C 
ENDROOT
BRANCH   5  13
ATOM     13  C   UNL d   1     -46.633  12.378  23.371  0.00  0.00     0.105 C 
BRANCH  13  14
ATOM     14  C   UNL d   1     -47.122  11.768  23.093  0.00  0.00     0.058 C 
BRANCH  14  15
ATOM     15  S   UNL d   1     -47.795  11.543  23.535  0.00  0.00    -0.041 SA
BRANCH  15  16
ATOM     16  C   UNL d   1     -48.546  11.743  23.252  0.00  0.00     0.215 A 
ATOM     17  N   UNL d   1     -49.052  12.205  23.698  0.00  0.00    -0.214 NA
ATOM     18  C   UNL d   1     -49.741  12.306  23.280  0.00  0.00     0.107 A 
ATOM     19  C   UNL d   1     -50.434  12.721  23.468  0.00  0.00     0.021 A 
ATOM     20  C   UNL d   1     -49.681  11.915  22.574  0.00  0.00     0.120 A 
ATOM     21  C   UNL d   1     -51.064  12.734  22.930  0.00  0.00     0.002 A 
ATOM     22  C   UNL d   1     -51.001  12.342  22.225  0.00  0.00     0.002 A 
ATOM     23  C   UNL d   1     -50.307  11.930  22.045  0.00  0.00     0.026 A 
ATOM     24  O   UNL d   1     -48.928  11.558  22.551  0.00  0.00    -0.283 OA
ENDBRANCH  15  16
ENDBRANCH  14  15
ENDBRANCH  13  14
ENDBRANCH   5  13
BRANCH   4  25
ATOM     25  N   UNL d   1     -46.377  13.869  22.447  0.00  0.00    -0.139 N 
ATOM     26  C   UNL d   1     -46.835  13.919  21.755  0.00  0.00     0.098 A 
ATOM     27  C   UNL d   1     -47.399  14.517  21.678  0.00  0.00     0.020 A 
ATOM     28  C   UNL d   1     -47.508  15.061  22.281  0.00  0.00     0.003 A 
ATOM     29  C   UNL d   1     -47.052  15.009  22.965  0.00  0.00     0.020 A 
ATOM     30  C   UNL d   1     -46.485  14.413  23.050  0.00  0.00     0.098 A 
ENDBRANCH   4  25
TORSDOF 5
ENDMDL
MODEL 3
REMARK VINA RESULT:      -4.4      1.794      2.813
REMARK  5 active torsions:
REMARK  status: ('A' for Active; 'I' for Inactive)
REMARK    1  A    between atoms: N_12  and  C_4 
REMARK    2  A    between atoms: C_19  and  N_5 
REMARK    3  A    between atoms: C_11  and  S_18 
REMARK    4  A    between atoms: S_18  and  C_21 
REMARK    5  A    between atoms: C_21  and  C_19 
ROOT
ATOM      1  C   UNL d   1     -46.288  11.300  23.245  0.00  0.00     0.191 A 
ATOM      2  C   UNL d   1     -46.348  12.121  23.275  0.00  0.00     0.174 A 
ATOM      3  N   UNL d   1     -47.046  10.995  23.153  0.00  0.00    -0.042 NA
ATOM      4  C   UNL d   1     -47.571  11.619  23.125  0.00  0.00     0.722 A 
ATOM      5  N   UNL d   1     -47.143  12.324  23.200  0.00  0.00    -0.132 N 
ATOM      6  N   UNL d   1     -45.549  10.938  23.307  0.00  0.00    -0.239 N 
ATOM      7  C   UNL d   1     -44.870  11.398  23.398  0.00  0.00     0.358 A 
ATOM      8  N   UNL d   1     -44.929  12.219  23.427  0.00  0.00    -0.152 NA
ATOM      9  C   UNL d   1     -45.669  12.582  23.365  0.00  0.00     0.303 A 
ATOM     10  O   UNL d   1     -44.131  11.031  23.459  0.00  0.00    -0.244 OA
ATOM     11  O   UNL d   1     -45.728  13.403  23.395  0.00  0.00    -0.263 OA
ATOM     12  C   UNL d   1     -45.490  10.125  23.278  0.00  0.00     0.105 C 
ENDROOT
BRANCH   5  13
ATOM     13  C   UNL d   1     -47.454  13.091  23.201  0.00  0.00     0.105 C 
BRANCH  13  14
ATOM     14  C   UNL d   1     -47.519  13.515  22.490  0.00  0.00     0.058 C 
BRANCH  14  15
ATOM     15  S   UNL d   1     -47.565  14.349  22.508  0.00  0.00    -0.041 SA
BRANCH  15  16
ATOM     16  C   UNL d   1     -48.288  14.708  22.688  0.00  0.00     0.215 A 
ATOM     17  N   UNL d   1     -48.886  14.746  22.132  0.00  0.00    -0.214 NA
ATOM     18  C   UNL d   1     -49.521  15.126  22.465  0.00  0.00     0.107 A 
ATOM     19  C   UNL d   1     -50.267  15.313  22.153  0.00  0.00     0.021 A 
ATOM     20  C   UNL d   1     -49.337  15.331  23.226  0.00  0.00     0.120 A 
ATOM     21  C   UNL d   1     -50.821  15.711  22.624  0.00  0.00     0.002 A 
ATOM     22  C   UNL d   1     -50.634  15.914  23.385  0.00  0.00     0.002 A 
ATOM     23  C   UNL d   1     -49.889  15.724  23.687  0.00  0.00     0.026 A 
ATOM     24  O   UNL d   1     -48.559  15.069  23.372  0.00  0.00    -0.283 OA
ENDBRANCH  15  16
ENDBRANCH  14  15
ENDBRANCH  13  14
ENDBRANCH   5  13
BRANCH   4  25
ATOM     25  N   UNL d   1     -48.391  11.595  23.038  0.00  0.00    -0.139 N 
ATOM     26  C   UNL d   1     -48.726  11.529  22.280  0.00  0.00     0.098 A 
ATOM     27  C   UNL d   1     -49.546  11.505  22.194  0.00  0.00     0.020 A 
ATOM     28  C   UNL d   1     -50.032  11.547  22.853  0.00  0.00     0.003 A 
ATOM     29  C   UNL d   1     -49.697  11.613  23.603  0.00  0.00     0.020 A 
ATOM     30  C   UNL d   1     -48.877  11.638  23.698  0.00  0.00     0.098 A 
ENDBRANCH   4  25
TORSDOF 5
ENDMDL
MODEL 4
REMARK VINA RESULT:      -3.9      5.490      7.394
REMARK  5 active torsions:
REMARK  status: ('A' for Active; 'I' for Inactive)
REMARK    1  A    between atoms: N_12  and  C_4 
REMARK    2  A    between atoms: C_19  and  N_5 
REMARK    3  A    between atoms: C_11  and  S_18 
REMARK    4  A    between atoms: S_18  and  C_21 
REMARK    5  A    between atoms: C_21  and  C_19 
ROOT
ATOM      1  C   UNL d   1     -39.044  14.006  19.075  0.00  0.00     0.191 A 
ATOM      2  C   UNL d   1     -39.852  14.139  19.161  0.00  0.00     0.174 A 
ATOM      3  N   UNL d   1     -38.683  14.165  19.796  0.00  0.00    -0.042 NA
ATOM      4  C   UNL d   1     -39.260  14.395  20.325  0.00  0.00     0.722 A 
ATOM      5  N   UNL d   1     -39.991  14.381  19.937  0.00  0.00    -0.132 N 
ATOM      6  N   UNL d   1     -38.743  13.756  18.348  0.00  0.00    -0.239 N 
ATOM      7  C   UNL d   1     -39.251  13.639  17.708  0.00  0.00     0.358 A 
ATOM      8  N   UNL d   1     -40.060  13.773  17.795  0.00  0.00    -0.152 NA
ATOM      9  C   UNL d   1     -40.361  14.023  18.522  0.00  0.00     0.303 A 
ATOM     10  O   UNL d   1     -38.946  13.389  16.982  0.00  0.00    -0.244 OA
ATOM     11  O   UNL d   1     -41.169  14.157  18.609  0.00  0.00    -0.263 OA
ATOM     12  C   UNL d   1     -37.943  13.623  18.262  0.00  0.00     0.105 C 
ENDROOT
BRANCH   5  13
ATOM     13  C   UNL d   1     -40.727  14.575  20.265  0.00  0.00     0.105 C 
BRANCH  13  14
ATOM     14  C   UNL d   1     -41.255  13.974  20.485  0.00  0.00     0.058 C 
BRANCH  14  15
ATOM     15  S   UNL d   1     -42.026  14.174  20.737  0.00  0.00    -0.041 SA
BRANCH  15  16
ATOM     16  C   UNL d   1     -42.480  13.605  21.130  0.00  0.00     0.215 A 
ATOM     17  N   UNL d   1     -43.288  13.701  21.218  0.00  0.00    -0.214 NA
ATOM     18  C   UNL d   1     -43.579  13.061  21.623  0.00  0.00     0.107 A 
ATOM     19  C   UNL d   1     -44.351  12.874  21.860  0.00  0.00     0.021 A 
ATOM     20  C   UNL d   1     -42.969  12.557  21.795  0.00  0.00     0.120 A 
ATOM     21  C   UNL d   1     -44.495  12.170  22.274  0.00  0.00     0.002 A 
ATOM     22  C   UNL d   1     -43.883  11.669  22.445  0.00  0.00     0.002 A 
ATOM     23  C   UNL d   1     -43.116  11.863  22.204  0.00  0.00     0.026 A 
ATOM     24  O   UNL d   1     -42.272  12.897  21.486  0.00  0.00    -0.283 OA
ENDBRANCH  15  16
ENDBRANCH  14  15
ENDBRANCH  13  14
ENDBRANCH   5  13
BRANCH   4  25
ATOM     25  N   UNL d   1     -39.172  14.612  21.116  0.00  0.00    -0.139 N 
ATOM     26  C   UNL d   1     -39.032  14.028  21.692  0.00  0.00     0.098 A 
ATOM     27  C   UNL d   1     -38.945  14.246  22.484  0.00  0.00     0.020 A 
ATOM     28  C   UNL d   1     -38.996  15.033  22.704  0.00  0.00     0.003 A 
ATOM     29  C   UNL d   1     -39.135  15.609  22.130  0.00  0.00     0.020 A 
ATOM     30  C   UNL d   1     -39.224  15.400  21.336  0.00  0.00     0.098 A 
ENDBRANCH   4  25
TORSDOF 5
ENDMDL
MODEL 5
REMARK VINA RESULT:      -3.8      1.646      4.655
REMARK  5 active torsions:
REMARK  status: ('A' for Active; 'I' for Inactive)
REMARK    1  A    between atoms: N_12  and  C_4 
REMARK    2  A    between atoms: C_19  and  N_5 
REMARK    3  A    between atoms: C_11  and  S_18 
REMARK    4  A    between atoms: S_18  and  C_21 
REMARK    5  A    between atoms: C_21  and  C_19 
ROOT
ATOM      1  C   UNL d   1     -49.511  12.560  23.027  0.00  0.00     0.191 A 
ATOM      2  C   UNL d   1     -48.735  12.358  23.215  0.00  0.00     0.174 A 
ATOM      3  N   UNL d   1     -49.510  13.336  22.754  0.00  0.00    -0.042 NA
ATOM      4  C   UNL d   1     -48.743  13.614  22.773  0.00  0.00     0.722 A 
ATOM      5  N   UNL d   1     -48.255  13.010  23.059  0.00  0.00    -0.132 N 
ATOM      6  N   UNL d   1     -50.117  12.009  23.128  0.00  0.00    -0.239 N 
ATOM      7  C   UNL d   1     -49.946  11.256  23.419  0.00  0.00     0.358 A 
ATOM      8  N   UNL d   1     -49.170  11.054  23.608  0.00  0.00    -0.152 NA
ATOM      9  C   UNL d   1     -48.563  11.605  23.506  0.00  0.00     0.303 A 
ATOM     10  O   UNL d   1     -50.556  10.706  23.519  0.00  0.00    -0.244 OA
ATOM     11  O   UNL d   1     -47.787  11.403  23.695  0.00  0.00    -0.263 OA
ATOM     12  C   UNL d   1     -50.885  12.209  22.941  0.00  0.00     0.105 C 
ENDROOT
BRANCH   5  13
ATOM     13  C   UNL d   1     -47.435  13.050  23.170  0.00  0.00     0.105 C 
BRANCH  13  14
ATOM     14  C   UNL d   1     -46.924  12.678  22.633  0.00  0.00     0.058 C 
BRANCH  14  15
ATOM     15  S   UNL d   1     -46.216  12.329  22.909  0.00  0.00    -0.041 SA
BRANCH  15  16
ATOM     16  C   UNL d   1     -45.505  12.500  22.522  0.00  0.00     0.215 A 
ATOM     17  N   UNL d   1     -44.837  12.048  22.655  0.00  0.00    -0.214 NA
ATOM     18  C   UNL d   1     -44.233  12.346  22.201  0.00  0.00     0.107 A 
ATOM     19  C   UNL d   1     -43.444  12.104  22.121  0.00  0.00     0.021 A 
ATOM     20  C   UNL d   1     -44.507  12.981  21.781  0.00  0.00     0.120 A 
ATOM     21  C   UNL d   1     -42.937  12.515  21.610  0.00  0.00     0.002 A 
ATOM     22  C   UNL d   1     -43.215  13.150  21.191  0.00  0.00     0.002 A 
ATOM     23  C   UNL d   1     -44.003  13.384  21.277  0.00  0.00     0.026 A 
ATOM     24  O   UNL d   1     -45.311  13.082  21.980  0.00  0.00    -0.283 OA
ENDBRANCH  15  16
ENDBRANCH  14  15
ENDBRANCH  13  14
ENDBRANCH   5  13
BRANCH   4  25
ATOM     25  N   UNL d   1     -48.462  14.357  22.554  0.00  0.00    -0.139 N 
ATOM     26  C   UNL d   1     -48.316  14.526  21.753  0.00  0.00     0.098 A 
ATOM     27  C   UNL d   1     -48.034  15.271  21.535  0.00  0.00     0.020 A 
ATOM     28  C   UNL d   1     -47.898  15.843  22.105  0.00  0.00     0.003 A 
ATOM     29  C   UNL d   1     -48.044  15.673  22.898  0.00  0.00     0.020 A 
ATOM     30  C   UNL d   1     -48.326  14.930  23.125  0.00  0.00     0.098 A 
ENDBRANCH   4  25
TORSDOF 5
ENDMDL
MODEL 6
REMARK VINA RESULT:      -2.9      6.317      8.296
REMARK  5 active torsions:
REMARK  status: ('A' for Active; 'I' for Inactive)
REMARK    1  A    between atoms: N_12  and  C_4 
REMARK    2  A    between atoms: C_19  and  N_5 
REMARK    3  A    between atoms: C_11  and  S_18 
REMARK    4  A    between atoms: S_18  and  C_21 
REMARK    5  A    between atoms: C_21  and  C_19 
ROOT
ATOM      1  C   UNL d   1     -39.010  15.050  18.256  0.00  0.00     0.191 A 
ATOM      2  C   UNL d   1     -39.687  15.291  18.659  0.00  0.00     0.174 A 
ATOM      3  N   UNL d   1     -38.491  14.727  18.806  0.00  0.00    -0.042 NA
ATOM      4  C   UNL d   1     -38.841  14.766  19.542  0.00  0.00     0.722 A 
ATOM      5  N   UNL d   1     -39.587  15.116  19.458  0.00  0.00    -0.132 N 
ATOM      6  N   UNL d   1     -38.955  15.158  17.440  0.00  0.00    -0.239 N 
ATOM      7  C   UNL d   1     -39.579  15.507  17.026  0.00  0.00     0.358 A 
ATOM      8  N   UNL d   1     -40.256  15.748  17.429  0.00  0.00    -0.152 NA
ATOM      9  C   UNL d   1     -40.311  15.640  18.246  0.00  0.00     0.303 A 
ATOM     10  O   UNL d   1     -39.520  15.613  16.208  0.00  0.00    -0.244 OA
ATOM     11  O   UNL d   1     -40.988  15.881  18.648  0.00  0.00    -0.263 OA
ATOM     12  C   UNL d   1     -38.285  14.920  17.041  0.00  0.00     0.105 C 
ENDROOT
BRANCH   5  13
ATOM     13  C   UNL d   1     -40.133  15.265  20.063  0.00  0.00     0.105 C 
BRANCH  13  14
ATOM     14  C   UNL d   1     -40.793  14.771  20.159  0.00  0.00     0.058 C 
BRANCH  14  15
ATOM     15  S   UNL d   1     -41.312  14.895  20.802  0.00  0.00    -0.041 SA
BRANCH  15  16
ATOM     16  C   UNL d   1     -41.866  14.309  20.990  0.00  0.00     0.215 A 
ATOM     17  N   UNL d   1     -41.647  13.651  21.423  0.00  0.00    -0.214 NA
ATOM     18  C   UNL d   1     -42.302  13.181  21.519  0.00  0.00     0.107 A 
ATOM     19  C   UNL d   1     -42.396  12.454  21.909  0.00  0.00     0.021 A 
ATOM     20  C   UNL d   1     -42.934  13.529  21.153  0.00  0.00     0.120 A 
ATOM     21  C   UNL d   1     -43.140  12.088  21.921  0.00  0.00     0.002 A 
ATOM     22  C   UNL d   1     -43.769  12.439  21.554  0.00  0.00     0.002 A 
ATOM     23  C   UNL d   1     -43.667  13.163  21.168  0.00  0.00     0.026 A 
ATOM     24  O   UNL d   1     -42.663  14.243  20.817  0.00  0.00    -0.283 OA
ENDBRANCH  15  16
ENDBRANCH  14  15
ENDBRANCH  13  14
ENDBRANCH   5  13
BRANCH   4  25
ATOM     25  N   UNL d   1     -38.541  14.512  20.267  0.00  0.00    -0.139 N 
ATOM     26  C   UNL d   1     -38.477  13.699  20.427  0.00  0.00     0.098 A 
ATOM     27  C   UNL d   1     -38.176  13.446  21.153  0.00  0.00     0.020 A 
ATOM     28  C   UNL d   1     -37.940  13.993  21.715  0.00  0.00     0.003 A 
ATOM     29  C   UNL d   1     -38.005  14.799  21.553  0.00  0.00     0.020 A 
ATOM     30  C   UNL d   1     -38.305  15.060  20.829  0.00  0.00     0.098 A 
ENDBRANCH   4  25
TORSDOF 5
ENDMDL
