MODEL 1
REMARK VINA RESULT:       8.0      0.000      0.000
REMARK  5 active torsions:
REMARK  status: ('A' for Active; 'I' for Inactive)
REMARK    1  A    between atoms: C_3  and  C_1 
REMARK       I    between atoms: N_5  and  C_1 
REMARK    2  A    between atoms: C_2  and  C_4 
REMARK    3  A    between atoms: C_4  and  C_3 
REMARK    4  A    between atoms: C_7  and  N_5 
REMARK    5  A    between atoms: O_14  and  C_13 
ROOT
ATOM      1  C   UNL d   1      45.956 -17.262  44.363  0.00  0.00     0.279 C 
ATOM      2  N   UNL d   1      46.646 -17.685  44.220  0.00  0.00    -0.208 NA
ATOM      3  O   UNL d   1      45.223 -17.607  44.223  0.00  0.00    -0.265 OA
ENDROOT
BRANCH   1   4
ATOM      4  C   UNL d   1      45.994 -16.492  44.646  0.00  0.00     0.065 C 
BRANCH   4   5
ATOM      5  C   UNL d   1      45.352 -15.979  44.542  0.00  0.00     0.030 C 
BRANCH   5   6
ATOM      6  C   UNL d   1      45.460 -15.167  44.637  0.00  0.00     0.100 A 
ATOM      7  O   UNL d   1      46.125 -14.675  44.501  0.00  0.00    -0.305 OA
ATOM      8  C   UNL d   1      45.901 -13.899  44.697  0.00  0.00     0.123 A 
ATOM      9  C   UNL d   1      45.114 -13.909  44.950  0.00  0.00     0.029 A 
ATOM     10  C   UNL d   1      44.838 -14.696  44.914  0.00  0.00     0.027 A 
ENDBRANCH   5   6
ENDBRANCH   4   5
ENDBRANCH   1   4
BRANCH   2  11
ATOM     11  C   UNL d   1      46.602 -18.457  43.935  0.00  0.00     0.087 A 
ATOM     12  C   UNL d   1      46.645 -18.595  43.134  0.00  0.00     0.043 A 
ATOM     13  C   UNL d   1      46.601 -19.364  42.848  0.00  0.00     0.096 A 
ATOM     14  C   UNL d   1      46.513 -19.998  43.368  0.00  0.00     0.024 A 
ATOM     15  C   UNL d   1      46.470 -19.850  44.185  0.00  0.00     0.004 A 
ATOM     16  C   UNL d   1      46.515 -19.077  44.465  0.00  0.00     0.019 A 
BRANCH  13  17
ATOM     17  O   UNL d   1      46.645 -19.507  42.034  0.00  0.00    -0.328 OA
ATOM     18  C   UNL d   1      46.610 -20.276  41.746  0.00  0.00     0.181 C 
ENDBRANCH  13  17
ENDBRANCH   2  11
TORSDOF 5
ENDMDL
