MODEL 1
REMARK VINA RESULT:      11.6      0.000      0.000
REMARK  4 active torsions:
REMARK  status: ('A' for Active; 'I' for Inactive)
REMARK    1  A    between atoms: N_4  and  C_1 
REMARK       I    between atoms: C_6  and  N_4 
REMARK    2  A    between atoms: C_10  and  C_6 
REMARK    3  A    between atoms: C_8  and  C_11 
REMARK    4  A    between atoms: C_11  and  C_10 
ROOT
ATOM      1  N   UNL d   1      14.598  13.132  -1.785  0.00  0.00    -0.187 NA
ATOM      2  C   UNL d   1      14.560  12.310  -1.868  0.00  0.00     0.281 C 
ATOM      3  O   UNL d   1      14.894  11.779  -1.305  0.00  0.00    -0.265 OA
ENDROOT
BRANCH   2   4
ATOM      4  C   UNL d   1      14.161  11.976  -2.561  0.00  0.00     0.063 C 
BRANCH   4   5
ATOM      5  C   UNL d   1      13.488  12.381  -2.867  0.00  0.00     0.011 C 
BRANCH   5   6
ATOM      6  C   UNL d   1      13.315  12.296  -3.652  0.00  0.00     0.030 A 
ATOM      7  S   UNL d   1      12.815  11.781  -3.949  0.00  0.00    -0.086 SA
ATOM      8  C   UNL d   1      12.770  11.844  -4.770  0.00  0.00     0.035 A 
ATOM      9  C   UNL d   1      13.271  12.431  -4.987  0.00  0.00     0.007 A 
ATOM     10  C   UNL d   1      13.627  12.733  -4.309  0.00  0.00     0.007 A 
ENDBRANCH   5   6
ENDBRANCH   4   5
ENDBRANCH   2   4
BRANCH   1  11
ATOM     11  C   UNL d   1      14.978  13.449  -1.126  0.00  0.00     0.194 A 
ATOM     12  N   UNL d   1      15.346  13.108  -0.486  0.00  0.00    -0.107 NA
ATOM     13  O   UNL d   1      15.618  13.686  -0.014  0.00  0.00    -0.210 OA
ATOM     14  C   UNL d   1      15.438  14.440  -0.326  0.00  0.00     0.128 A 
ATOM     15  C   UNL d   1      15.039  14.285  -1.021  0.00  0.00     0.068 A 
ATOM     16  C   UNL d   1      15.606  15.193  -0.035  0.00  0.00     0.029 C 
ENDBRANCH   1  11
TORSDOF 4
ENDMDL
MODEL 2
REMARK VINA RESULT:      12.3      1.839      4.128
REMARK  4 active torsions:
REMARK  status: ('A' for Active; 'I' for Inactive)
REMARK    1  A    between atoms: N_4  and  C_1 
REMARK       I    between atoms: C_6  and  N_4 
REMARK    2  A    between atoms: C_10  and  C_6 
REMARK    3  A    between atoms: C_8  and  C_11 
REMARK    4  A    between atoms: C_11  and  C_10 
ROOT
ATOM      1  N   UNL d   1      13.208  12.301  -2.858  0.00  0.00    -0.187 NA
ATOM      2  C   UNL d   1      13.895  11.966  -2.541  0.00  0.00     0.281 C 
ATOM      3  O   UNL d   1      14.576  11.795  -3.007  0.00  0.00    -0.265 OA
ENDROOT
BRANCH   2   4
ATOM      4  C   UNL d   1      13.918  11.780  -1.694  0.00  0.00     0.063 C 
BRANCH   4   5
ATOM      5  C   UNL d   1      14.632  11.931  -1.273  0.00  0.00     0.011 C 
BRANCH   5   6
ATOM      6  C   UNL d   1      14.660  12.576  -0.787  0.00  0.00     0.030 A 
ATOM      7  S   UNL d   1      14.044  12.955  -0.507  0.00  0.00    -0.086 SA
ATOM      8  C   UNL d   1      14.271  13.587  -0.028  0.00  0.00     0.035 A 
ATOM      9  C   UNL d   1      15.072  13.595  -0.015  0.00  0.00     0.007 A 
ATOM     10  C   UNL d   1      15.345  12.973  -0.480  0.00  0.00     0.007 A 
ENDBRANCH   5   6
ENDBRANCH   4   5
ENDBRANCH   2   4
BRANCH   1  11
ATOM     11  C   UNL d   1      13.186  12.478  -3.662  0.00  0.00     0.194 A 
ATOM     12  N   UNL d   1      13.247  13.176  -4.074  0.00  0.00    -0.107 NA
ATOM     13  O   UNL d   1      13.186  13.017  -4.850  0.00  0.00    -0.210 OA
ATOM     14  C   UNL d   1      13.082  12.200  -4.983  0.00  0.00     0.128 A 
ATOM     15  C   UNL d   1      13.082  11.868  -4.238  0.00  0.00     0.068 A 
ATOM     16  C   UNL d   1      12.993  11.779  -5.687  0.00  0.00     0.029 C 
ENDBRANCH   1  11
TORSDOF 4
ENDMDL
