MODEL 1
REMARK VINA RESULT:      16.9      0.000      0.000
REMARK  6 active torsions:
REMARK  status: ('A' for Active; 'I' for Inactive)
REMARK    1  A    between atoms: N_3  and  C_1 
REMARK       I    between atoms: C_5  and  N_3 
REMARK    2  A    between atoms: C_19  and  N_3 
REMARK    3  A    between atoms: C_8  and  C_5 
REMARK    4  A    between atoms: C_20  and  C_19 
REMARK    5  A    between atoms: C_23  and  C_20 
REMARK    6  A    between atoms: N_21  and  C_23 
ROOT
ATOM      1  N   UNL d   1     -41.588-122.095 -52.074  0.00  0.00    -0.253 N 
ATOM      2  C   UNL d   1     -41.484-122.722 -51.546  0.00  0.00     0.266 C 
ATOM      3  O   UNL d   1     -41.450-123.490 -51.817  0.00  0.00    -0.267 OA
ENDROOT
BRANCH   1   4
ATOM      4  C   UNL d   1     -41.657-122.256 -52.888  0.00  0.00     0.182 A 
ATOM      5  N   UNL d   1     -42.208-121.917 -53.400  0.00  0.00    -0.222 NA
ATOM      6  C   UNL d   1     -42.091-122.223 -54.153  0.00  0.00     0.089 A 
ATOM      7  C   UNL d   1     -42.463-122.095 -54.867  0.00  0.00     0.018 A 
ATOM      8  C   UNL d   1     -41.460-122.760 -54.108  0.00  0.00     0.050 A 
ATOM      9  C   UNL d   1     -42.219-122.491 -55.545  0.00  0.00     0.002 A 
ATOM     10  C   UNL d   1     -43.096-121.560 -54.920  0.00  0.00     0.002 C 
ATOM     11  C   UNL d   1     -41.596-123.019 -55.495  0.00  0.00     0.001 A 
ATOM     12  C   UNL d   1     -41.220-123.149 -54.774  0.00  0.00     0.008 A 
ATOM     13  S   UNL d   1     -41.191-122.781 -53.326  0.00  0.00    -0.048 SA
ENDBRANCH   1   4
BRANCH   1  14
ATOM     14  C   UNL d   1     -41.622-121.318 -51.800  0.00  0.00     0.086 C 
BRANCH  14  15
ATOM     15  C   UNL d   1     -41.293-120.707 -52.252  0.00  0.00     0.038 C 
BRANCH  15  16
ATOM     16  C   UNL d   1     -41.782-120.128 -52.575  0.00  0.00     0.082 C 
BRANCH  16  17
ATOM     17  N   UNL d   1     -41.524-119.348 -52.619  0.00  0.00    -0.300 N 
ATOM     18  C   UNL d   1     -41.131-119.080 -53.291  0.00  0.00     0.100 C 
ATOM     19  C   UNL d   1     -41.659-118.837 -51.989  0.00  0.00     0.100 C 
ENDBRANCH  16  17
ENDBRANCH  15  16
ENDBRANCH  14  15
ENDBRANCH   1  14
BRANCH   2  20
ATOM     20  C   UNL d   1     -41.416-122.558 -50.740  0.00  0.00     0.057 A 
ATOM     21  C   UNL d   1     -41.564-123.144 -50.179  0.00  0.00     0.013 A 
ATOM     22  C   UNL d   1     -41.490-122.960 -49.374  0.00  0.00     0.049 A 
ATOM     23  S   UNL d   1     -41.602-123.428 -48.700  0.00  0.00    -0.064 SA
ATOM     24  C   UNL d   1     -41.271-122.202 -49.131  0.00  0.00     0.088 A 
ATOM     25  C   UNL d   1     -41.450-122.951 -48.041  0.00  0.00     0.135 A 
ATOM     26  N   UNL d   1     -41.246-122.194 -48.309  0.00  0.00    -0.236 NA
ATOM     27  C   UNL d   1     -41.124-121.617 -49.691  0.00  0.00     0.020 A 
ATOM     28  C   UNL d   1     -41.194-121.789 -50.495  0.00  0.00     0.006 A 
ENDBRANCH   2  20
TORSDOF 6
ENDMDL
