MODEL 1
REMARK VINA RESULT:      10.7      0.000      0.000
REMARK  3 active torsions:
REMARK  status: ('A' for Active; 'I' for Inactive)
REMARK    1  A    between atoms: C_10  and  C_3 
REMARK    2  A    between atoms: C_13  and  C_7 
REMARK    3  A    between atoms: C_12  and  C_13 
ROOT
ATOM      1  C   UNL d   1     -52.194  24.564  33.317  0.00  0.00     0.171 A 
ATOM      2  N   UNL d   1     -51.420  24.282  33.318  0.00  0.00    -0.212 N 
ATOM      3  C   UNL d   1     -52.703  23.909  33.321  0.00  0.00     0.121 A 
ATOM      4  N   UNL d   1     -52.340  25.372  33.313  0.00  0.00    -0.227 NA
ATOM      5  N   UNL d   1     -51.445  23.450  33.322  0.00  0.00    -0.162 NA
ATOM      6  C   UNL d   1     -50.788  24.806  33.314  0.00  0.00     0.086 A 
ATOM      7  C   UNL d   1     -50.933  25.618  33.310  0.00  0.00     0.035 A 
ATOM      8  C   UNL d   1     -51.707  25.900  33.310  0.00  0.00     0.085 A 
ATOM      9  C   UNL d   1     -52.244  23.223  33.324  0.00  0.00     0.130 A 
ATOM     10  C   UNL d   1     -50.012  24.523  33.315  0.00  0.00     0.021 C 
ATOM     11  C   UNL d   1     -51.851  26.715  33.306  0.00  0.00     0.021 C 
ENDROOT
BRANCH   3  12
ATOM     12  C   UNL d   1     -53.527  23.940  33.321  0.00  0.00     0.215 C 
ATOM     13  O   UNL d   1     -53.970  23.239  33.329  0.00  0.00    -0.644 OA
ATOM     14  O   UNL d   1     -53.919  24.669  33.313  0.00  0.00    -0.644 OA
ENDBRANCH   3  12
BRANCH   7  15
ATOM     15  C   UNL d   1     -50.300  26.146  33.307  0.00  0.00     0.003 C 
BRANCH  15  16
ATOM     16  C   UNL d   1     -50.433  26.944  33.464  0.00  0.00     0.000 C 
ATOM     17  C   UNL d   1     -49.815  27.487  33.383  0.00  0.00     0.000 C 
ENDBRANCH  15  16
ENDBRANCH   7  15
TORSDOF 3
ENDMDL
MODEL 2
REMARK VINA RESULT:      12.7      1.555      3.119
REMARK  3 active torsions:
REMARK  status: ('A' for Active; 'I' for Inactive)
REMARK    1  A    between atoms: C_10  and  C_3 
REMARK    2  A    between atoms: C_13  and  C_7 
REMARK    3  A    between atoms: C_12  and  C_13 
ROOT
ATOM      1  C   UNL d   1     -51.296  25.458  33.324  0.00  0.00     0.171 A 
ATOM      2  N   UNL d   1     -50.876  24.750  33.327  0.00  0.00    -0.212 N 
ATOM      3  C   UNL d   1     -50.747  26.080  33.330  0.00  0.00     0.121 A 
ATOM      4  N   UNL d   1     -52.117  25.452  33.317  0.00  0.00    -0.227 NA
ATOM      5  N   UNL d   1     -50.063  24.929  33.334  0.00  0.00    -0.162 NA
ATOM      6  C   UNL d   1     -51.274  24.032  33.322  0.00  0.00     0.086 A 
ATOM      7  C   UNL d   1     -52.098  24.023  33.315  0.00  0.00     0.035 A 
ATOM      8  C   UNL d   1     -52.519  24.732  33.313  0.00  0.00     0.085 A 
ATOM      9  C   UNL d   1     -49.988  25.756  33.336  0.00  0.00     0.130 A 
ATOM     10  C   UNL d   1     -50.852  23.321  33.325  0.00  0.00     0.021 C 
ATOM     11  C   UNL d   1     -53.346  24.722  33.306  0.00  0.00     0.021 C 
ENDROOT
BRANCH   3  12
ATOM     12  C   UNL d   1     -50.930  26.884  33.329  0.00  0.00     0.215 C 
ATOM     13  O   UNL d   1     -51.722  27.130  33.313  0.00  0.00    -0.644 OA
ATOM     14  O   UNL d   1     -50.328  27.451  33.345  0.00  0.00    -0.644 OA
ENDBRANCH   3  12
BRANCH   7  15
ATOM     15  C   UNL d   1     -52.500  23.303  33.311  0.00  0.00     0.003 C 
BRANCH  15  16
ATOM     16  C   UNL d   1     -53.307  23.284  33.478  0.00  0.00     0.000 C 
ATOM     17  C   UNL d   1     -53.562  23.208  34.260  0.00  0.00     0.000 C 
ENDBRANCH  15  16
ENDBRANCH   7  15
TORSDOF 3
ENDMDL
