MODEL 1
REMARK VINA RESULT:      59.8      0.000      0.000
REMARK  7 active torsions:
REMARK  status: ('A' for Active; 'I' for Inactive)
REMARK    1  A    between atoms: C_11  and  C_3 
REMARK    2  A    between atoms: N_12  and  C_7 
REMARK       I    between atoms: C_9  and  N_15 
REMARK    3  A    between atoms: C_14  and  C_9 
REMARK    4  A    between atoms: C_16  and  C_11 
REMARK    5  A    between atoms: C_17  and  N_12 
REMARK    6  A    between atoms: N_15  and  C_16 
REMARK    7  A    between atoms: C_19  and  C_17 
ROOT
ATOM      1  N   UNL d   1     -48.361  28.818  35.322  0.00  0.00    -0.190 N 
ATOM      2  C   UNL d   1     -48.433  28.852  36.146  0.00  0.00     0.187 A 
ATOM      3  C   UNL d   1     -48.825  28.183  35.043  0.00  0.00     0.188 A 
ATOM      4  N   UNL d   1     -47.878  29.376  34.934  0.00  0.00    -0.143 NA
ATOM      5  N   UNL d   1     -48.945  28.234  36.374  0.00  0.00    -0.127 NA
ATOM      6  N   UNL d   1     -49.176  27.833  35.691  0.00  0.00    -0.127 NA
ATOM      7  C   UNL d   1     -47.478  29.953  35.366  0.00  0.00     0.182 A 
ATOM      8  C   UNL d   1     -48.033  29.430  36.579  0.00  0.00     0.044 A 
ATOM      9  C   UNL d   1     -47.557  29.979  36.191  0.00  0.00     0.044 A 
ENDROOT
BRANCH   3  10
ATOM     10  C   UNL d   1     -48.914  27.947  34.256  0.00  0.00     0.061 C 
BRANCH  10  11
ATOM     11  C   UNL d   1     -49.459  27.364  34.059  0.00  0.00     0.105 C 
BRANCH  11  12
ATOM     12  N   UNL d   1     -50.225  27.584  33.841  0.00  0.00    -0.206 NA
ATOM     13  C   UNL d   1     -50.744  27.010  33.540  0.00  0.00     0.279 C 
ATOM     14  O   UNL d   1     -51.512  27.234  33.322  0.00  0.00    -0.265 OA
BRANCH  13  15
ATOM     15  C   UNL d   1     -50.493  26.232  33.462  0.00  0.00     0.058 A 
ATOM     16  C   UNL d   1     -49.682  26.047  33.452  0.00  0.00     0.005 A 
ATOM     17  C   UNL d   1     -49.446  25.271  33.374  0.00  0.00     0.000 A 
ATOM     18  C   UNL d   1     -50.003  24.676  33.306  0.00  0.00     0.000 A 
ATOM     19  C   UNL d   1     -50.799  24.843  33.315  0.00  0.00     0.000 A 
ATOM     20  C   UNL d   1     -51.054  25.627  33.393  0.00  0.00     0.005 A 
ENDBRANCH  13  15
ENDBRANCH  11  12
ENDBRANCH  10  11
ENDBRANCH   3  10
BRANCH   7  21
ATOM     21  N   UNL d   1     -46.995  30.511  34.985  0.00  0.00    -0.224 NA
BRANCH  21  22
ATOM     22  C   UNL d   1     -47.021  31.297  35.241  0.00  0.00     0.101 C 
BRANCH  22  23
ATOM     23  C   UNL d   1     -47.334  31.887  34.757  0.00  0.00     0.019 A 
ATOM     24  C   UNL d   1     -46.854  32.254  34.184  0.00  0.00     0.002 A 
ATOM     25  C   UNL d   1     -47.179  32.842  33.705  0.00  0.00     0.011 A 
ATOM     26  C   UNL d   1     -47.966  33.069  33.787  0.00  0.00     0.058 A 
ATOM     27  C   UNL d   1     -48.446  32.701  34.360  0.00  0.00     0.011 A 
ATOM     28 CL   UNL d   1     -48.291  33.657  33.308  0.00  0.00    -0.082 Cl
ATOM     29  C   UNL d   1     -48.125  32.112  34.841  0.00  0.00     0.002 A 
ENDBRANCH  22  23
ENDBRANCH  21  22
ENDBRANCH   7  21
TORSDOF 7
ENDMDL
MODEL 2
REMARK VINA RESULT:      62.7      2.387      5.854
REMARK  7 active torsions:
REMARK  status: ('A' for Active; 'I' for Inactive)
REMARK    1  A    between atoms: C_11  and  C_3 
REMARK    2  A    between atoms: N_12  and  C_7 
REMARK       I    between atoms: C_9  and  N_15 
REMARK    3  A    between atoms: C_14  and  C_9 
REMARK    4  A    between atoms: C_16  and  C_11 
REMARK    5  A    between atoms: C_17  and  N_12 
REMARK    6  A    between atoms: N_15  and  C_16 
REMARK    7  A    between atoms: C_19  and  C_17 
ROOT
ATOM      1  N   UNL d   1     -48.324  28.970  35.291  0.00  0.00    -0.190 N 
ATOM      2  C   UNL d   1     -48.726  28.690  35.959  0.00  0.00     0.187 A 
ATOM      3  C   UNL d   1     -47.810  29.583  35.531  0.00  0.00     0.188 A 
ATOM      4  N   UNL d   1     -48.481  28.626  34.548  0.00  0.00    -0.143 NA
ATOM      5  N   UNL d   1     -48.457  29.134  36.612  0.00  0.00    -0.127 NA
ATOM      6  N   UNL d   1     -47.899  29.675  36.337  0.00  0.00    -0.127 NA
ATOM      7  C   UNL d   1     -49.031  28.014  34.481  0.00  0.00     0.182 A 
ATOM      8  C   UNL d   1     -49.276  28.079  35.891  0.00  0.00     0.044 A 
ATOM      9  C   UNL d   1     -49.429  27.741  35.156  0.00  0.00     0.044 A 
ENDROOT
BRANCH   3  10
ATOM     10  C   UNL d   1     -47.303  30.018  35.045  0.00  0.00     0.061 C 
BRANCH  10  11
ATOM     11  C   UNL d   1     -47.431  30.822  34.931  0.00  0.00     0.105 C 
BRANCH  11  12
ATOM     12  N   UNL d   1     -46.940  31.368  35.311  0.00  0.00    -0.206 NA
ATOM     13  C   UNL d   1     -46.970  32.167  35.090  0.00  0.00     0.279 C 
ATOM     14  O   UNL d   1     -46.476  32.711  35.473  0.00  0.00    -0.265 OA
BRANCH  13  15
ATOM     15  C   UNL d   1     -47.485  32.409  34.499  0.00  0.00     0.058 A 
ATOM     16  C   UNL d   1     -48.269  32.131  34.479  0.00  0.00     0.005 A 
ATOM     17  C   UNL d   1     -48.771  32.379  33.887  0.00  0.00     0.000 A 
ATOM     18  C   UNL d   1     -48.505  32.898  33.313  0.00  0.00     0.000 A 
ATOM     19  C   UNL d   1     -47.742  33.177  33.319  0.00  0.00     0.000 A 
ATOM     20  C   UNL d   1     -47.221  32.934  33.915  0.00  0.00     0.005 A 
ENDBRANCH  13  15
ENDBRANCH  11  12
ENDBRANCH  10  11
ENDBRANCH   3  10
BRANCH   7  21
ATOM     21  N   UNL d   1     -49.192  27.667  33.744  0.00  0.00    -0.224 NA
BRANCH  21  22
ATOM     22  C   UNL d   1     -49.982  27.567  33.518  0.00  0.00     0.101 C 
BRANCH  22  23
ATOM     23  C   UNL d   1     -50.312  26.813  33.466  0.00  0.00     0.019 A 
ATOM     24  C   UNL d   1     -51.139  26.719  33.484  0.00  0.00     0.002 A 
ATOM     25  C   UNL d   1     -51.457  25.959  33.431  0.00  0.00     0.011 A 
ATOM     26  C   UNL d   1     -50.970  25.299  33.363  0.00  0.00     0.058 A 
ATOM     27  C   UNL d   1     -50.143  25.394  33.346  0.00  0.00     0.011 A 
ATOM     28 CL   UNL d   1     -51.288  24.540  33.311  0.00  0.00    -0.082 Cl
ATOM     29  C   UNL d   1     -49.820  26.152  33.398  0.00  0.00     0.002 A 
ENDBRANCH  22  23
ENDBRANCH  21  22
ENDBRANCH   7  21
TORSDOF 7
ENDMDL
