MODEL 1
REMARK VINA RESULT:      -2.0      0.000      0.000
REMARK  5 active torsions:
REMARK  status: ('A' for Active; 'I' for Inactive)
REMARK    1  A    between atoms: C_7  and  C_4 
REMARK    2  A    between atoms: O_9  and  C_7 
REMARK    3  A    between atoms: O_15  and  C_8 
REMARK    4  A    between atoms: C_17  and  O_9 
REMARK    5  A    between atoms: O_16  and  C_11 
ROOT
ATOM      1  C   UNL d   1      31.282  16.500 -23.489  0.00  0.00     0.228 A 
ATOM      2  C   UNL d   1      30.540  16.663 -23.814  0.00  0.00     0.070 A 
ATOM      3  S   UNL d   1      31.917  17.016 -23.630  0.00  0.00    -0.040 SA
ATOM      4  C   UNL d   1      31.800  17.695 -24.100  0.00  0.00     0.096 A 
ATOM      5  C   UNL d   1      30.425  17.334 -24.279  0.00  0.00     0.006 A 
ATOM      6  C   UNL d   1      31.051  17.850 -24.423  0.00  0.00     0.012 A 
ATOM      7  C   UNL d   1      29.915  16.141 -23.667  0.00  0.00     0.120 A 
ATOM      8  O   UNL d   1      31.398  15.828 -23.024  0.00  0.00    -0.279 OA
ATOM      9  C   UNL d   1      29.174  16.298 -23.989  0.00  0.00     0.116 A 
ATOM     10  C   UNL d   1      29.683  17.491 -24.601  0.00  0.00     0.002 A 
ATOM     11  C   UNL d   1      29.058  16.969 -24.453  0.00  0.00     0.026 A 
ENDROOT
BRANCH   4  12
ATOM     12  C   UNL d   1      32.432  18.205 -24.238  0.00  0.00     0.306 C 
ATOM     13  O   UNL d   1      32.940  18.059 -24.870  0.00  0.00    -0.258 OA
BRANCH  12  14
ATOM     14  O   UNL d   1      32.556  18.856 -23.750  0.00  0.00    -0.273 OA
BRANCH  14  15
ATOM     15  C   UNL d   1      33.012  19.490 -24.015  0.00  0.00     0.103 C 
ATOM     16  C   UNL d   1      33.239  20.082 -23.489  0.00  0.00     0.027 C 
ATOM     17  C   UNL d   1      33.239  19.531 -24.809  0.00  0.00     0.027 C 
ENDBRANCH  14  15
ENDBRANCH  12  14
ENDBRANCH   4  12
BRANCH   7  18
ATOM     18  O   UNL d   1      30.030  15.470 -23.202  0.00  0.00    -0.326 OA
ATOM     19  C   UNL d   1      29.743  15.453 -22.423  0.00  0.00     0.181 C 
ENDBRANCH   7  18
BRANCH   9  20
ATOM     20  O   UNL d   1      28.543  15.782 -23.846  0.00  0.00    -0.326 OA
ATOM     21  C   UNL d   1      27.951  15.690 -24.409  0.00  0.00     0.181 C 
ENDBRANCH   9  20
TORSDOF 5
ENDMDL
MODEL 2
REMARK VINA RESULT:      -1.7      2.990      4.345
REMARK  5 active torsions:
REMARK  status: ('A' for Active; 'I' for Inactive)
REMARK    1  A    between atoms: C_7  and  C_4 
REMARK    2  A    between atoms: O_9  and  C_7 
REMARK    3  A    between atoms: O_15  and  C_8 
REMARK    4  A    between atoms: C_17  and  O_9 
REMARK    5  A    between atoms: O_16  and  C_11 
ROOT
ATOM      1  C   UNL d   1      33.190  20.007 -23.361  0.00  0.00     0.228 A 
ATOM      2  C   UNL d   1      33.190  19.198 -23.192  0.00  0.00     0.070 A 
ATOM      3  S   UNL d   1      33.177  20.557 -22.740  0.00  0.00    -0.040 SA
ATOM      4  C   UNL d   1      33.165  20.290 -21.951  0.00  0.00     0.096 A 
ATOM      5  C   UNL d   1      33.177  18.933 -22.411  0.00  0.00     0.006 A 
ATOM      6  C   UNL d   1      33.164  19.475 -21.791  0.00  0.00     0.012 A 
ATOM      7  C   UNL d   1      33.203  18.657 -23.818  0.00  0.00     0.120 A 
ATOM      8  O   UNL d   1      33.203  20.271 -24.142  0.00  0.00    -0.279 OA
ATOM      9  C   UNL d   1      33.203  17.850 -23.656  0.00  0.00     0.116 A 
ATOM     10  C   UNL d   1      33.177  18.125 -22.248  0.00  0.00     0.002 A 
ATOM     11  C   UNL d   1      33.190  17.586 -22.875  0.00  0.00     0.026 A 
ENDROOT
BRANCH   4  12
ATOM     12  C   UNL d   1      33.152  20.839 -21.337  0.00  0.00     0.306 C 
ATOM     13  O   UNL d   1      33.241  20.581 -20.560  0.00  0.00    -0.258 OA
BRANCH  12  14
ATOM     14  O   UNL d   1      33.051  21.640 -21.497  0.00  0.00    -0.273 OA
BRANCH  14  15
ATOM     15  C   UNL d   1      32.684  22.130 -20.944  0.00  0.00     0.103 C 
ATOM     16  C   UNL d   1      33.013  22.227 -20.196  0.00  0.00     0.027 C 
ATOM     17  C   UNL d   1      31.983  22.522 -21.143  0.00  0.00     0.027 C 
ENDBRANCH  14  15
ENDBRANCH  12  14
ENDBRANCH   4  12
BRANCH   7  18
ATOM     18  O   UNL d   1      33.216  18.922 -24.599  0.00  0.00    -0.326 OA
ATOM     19  C   UNL d   1      32.567  18.772 -25.097  0.00  0.00     0.181 C 
ENDBRANCH   7  18
BRANCH   9  20
ATOM     20  O   UNL d   1      33.215  17.303 -24.277  0.00  0.00    -0.326 OA
ATOM     21  C   UNL d   1      33.195  16.497 -24.115  0.00  0.00     0.181 C 
ENDBRANCH   9  20
TORSDOF 5
ENDMDL
MODEL 3
REMARK VINA RESULT:      -1.5      3.483      6.250
REMARK  5 active torsions:
REMARK  status: ('A' for Active; 'I' for Inactive)
REMARK    1  A    between atoms: C_7  and  C_4 
REMARK    2  A    between atoms: O_9  and  C_7 
REMARK    3  A    between atoms: O_15  and  C_8 
REMARK    4  A    between atoms: C_17  and  O_9 
REMARK    5  A    between atoms: O_16  and  C_11 
ROOT
ATOM      1  C   UNL d   1      32.604  21.693 -21.956  0.00  0.00     0.228 A 
ATOM      2  C   UNL d   1      32.795  21.788 -21.157  0.00  0.00     0.070 A 
ATOM      3  S   UNL d   1      32.671  20.945 -22.309  0.00  0.00    -0.040 SA
ATOM      4  C   UNL d   1      32.930  20.296 -21.857  0.00  0.00     0.096 A 
ATOM      5  C   UNL d   1      33.052  21.144 -20.709  0.00  0.00     0.006 A 
ATOM      6  C   UNL d   1      33.120  20.401 -21.055  0.00  0.00     0.012 A 
ATOM      7  C   UNL d   1      32.725  22.537 -20.814  0.00  0.00     0.120 A 
ATOM      8  O   UNL d   1      32.347  22.337 -22.404  0.00  0.00    -0.279 OA
ATOM      9  C   UNL d   1      32.914  22.638 -20.019  0.00  0.00     0.116 A 
ATOM     10  C   UNL d   1      33.241  21.245 -19.913  0.00  0.00     0.002 A 
ATOM     11  C   UNL d   1      33.170  21.995 -19.571  0.00  0.00     0.026 A 
ENDROOT
BRANCH   4  12
ATOM     12  C   UNL d   1      32.995  19.555 -22.211  0.00  0.00     0.306 C 
ATOM     13  O   UNL d   1      33.216  18.906 -21.755  0.00  0.00    -0.258 OA
BRANCH  12  14
ATOM     14  O   UNL d   1      32.841  19.463 -23.015  0.00  0.00    -0.273 OA
BRANCH  14  15
ATOM     15  C   UNL d   1      32.645  18.720 -23.315  0.00  0.00     0.103 C 
ATOM     16  C   UNL d   1      33.239  18.203 -23.557  0.00  0.00     0.027 C 
ATOM     17  C   UNL d   1      31.851  18.496 -23.374  0.00  0.00     0.027 C 
ENDBRANCH  14  15
ENDBRANCH  12  14
ENDBRANCH   4  12
BRANCH   7  18
ATOM     18  O   UNL d   1      32.468  23.181 -21.262  0.00  0.00    -0.326 OA
ATOM     19  C   UNL d   1      31.749  23.553 -21.077  0.00  0.00     0.181 C 
ENDBRANCH   7  18
BRANCH   9  20
ATOM     20  O   UNL d   1      32.846  23.384 -19.669  0.00  0.00    -0.326 OA
ATOM     21  C   UNL d   1      32.968  23.471 -18.860  0.00  0.00     0.181 C 
ENDBRANCH   9  20
TORSDOF 5
ENDMDL
MODEL 4
REMARK VINA RESULT:      -0.9      1.871      4.656
REMARK  5 active torsions:
REMARK  status: ('A' for Active; 'I' for Inactive)
REMARK    1  A    between atoms: C_7  and  C_4 
REMARK    2  A    between atoms: O_9  and  C_7 
REMARK    3  A    between atoms: O_15  and  C_8 
REMARK    4  A    between atoms: C_17  and  O_9 
REMARK    5  A    between atoms: O_16  and  C_11 
ROOT
ATOM      1  C   UNL d   1      32.978  19.247 -24.297  0.00  0.00     0.228 A 
ATOM      2  C   UNL d   1      32.978  19.492 -23.508  0.00  0.00     0.070 A 
ATOM      3  S   UNL d   1      32.850  18.447 -24.481  0.00  0.00    -0.040 SA
ATOM      4  C   UNL d   1      32.722  17.898 -23.867  0.00  0.00     0.096 A 
ATOM      5  C   UNL d   1      32.851  18.948 -22.900  0.00  0.00     0.006 A 
ATOM      6  C   UNL d   1      32.724  18.154 -23.077  0.00  0.00     0.012 A 
ATOM      7  C   UNL d   1      33.106  20.291 -23.336  0.00  0.00     0.120 A 
ATOM      8  O   UNL d   1      33.104  19.791 -24.905  0.00  0.00    -0.279 OA
ATOM      9  C   UNL d   1      33.107  20.541 -22.552  0.00  0.00     0.116 A 
ATOM     10  C   UNL d   1      32.852  19.198 -22.115  0.00  0.00     0.002 A 
ATOM     11  C   UNL d   1      32.981  19.997 -21.945  0.00  0.00     0.026 A 
ENDROOT
BRANCH   4  12
ATOM     12  C   UNL d   1      32.596  17.106 -24.053  0.00  0.00     0.306 C 
ATOM     13  O   UNL d   1      33.241  16.598 -24.126  0.00  0.00    -0.258 OA
BRANCH  12  14
ATOM     14  O   UNL d   1      31.832  16.821 -24.165  0.00  0.00    -0.273 OA
BRANCH  14  15
ATOM     15  C   UNL d   1      31.678  16.013 -24.103  0.00  0.00     0.103 C 
ATOM     16  C   UNL d   1      32.138  15.542 -23.608  0.00  0.00     0.027 C 
ATOM     17  C   UNL d   1      31.061  15.676 -24.539  0.00  0.00     0.027 C 
ENDBRANCH  14  15
ENDBRANCH  12  14
ENDBRANCH   4  12
BRANCH   7  18
ATOM     18  O   UNL d   1      33.233  20.835 -23.943  0.00  0.00    -0.326 OA
ATOM     19  C   UNL d   1      32.804  21.546 -23.956  0.00  0.00     0.181 C 
ENDBRANCH   7  18
BRANCH   9  20
ATOM     20  O   UNL d   1      33.235  21.338 -22.372  0.00  0.00    -0.326 OA
ATOM     21  C   UNL d   1      32.881  21.672 -21.709  0.00  0.00     0.181 C 
ENDBRANCH   9  20
TORSDOF 5
ENDMDL
