MODEL 1
REMARK VINA RESULT:       3.4      0.000      0.000
REMARK  0 active torsions:
REMARK  status: ('A' for Active; 'I' for Inactive)
ROOT
ATOM      1  C   UNL d   1     -52.349  24.655  33.329  0.00  0.00     0.116 A 
ATOM      2  C   UNL d   1     -51.524  24.657  33.315  0.00  0.00     0.192 A 
ATOM      3  N   UNL d   1     -51.538  26.079  33.313  0.00  0.00    -0.145 NA
ATOM      4  C   UNL d   1     -52.740  23.937  33.337  0.00  0.00     0.285 A 
ATOM      5  N   UNL d   1     -51.106  23.963  33.310  0.00  0.00    -0.203 NA
ATOM      6  N   UNL d   1     -51.121  25.367  33.307  0.00  0.00    -0.128 NA
ATOM      7  N   UNL d   1     -52.319  23.225  33.331  0.00  0.00    -0.185 NA
ATOM      8  C   UNL d   1     -51.501  23.245  33.318  0.00  0.00     0.203 A 
ATOM      9  C   UNL d   1     -52.355  26.072  33.326  0.00  0.00     0.130 A 
ATOM     10  O   UNL d   1     -53.566  23.918  33.350  0.00  0.00    -0.265 OA
ENDROOT
TORSDOF 0
ENDMDL
