MODEL 1
REMARK VINA RESULT:      -3.9      0.000      0.000
REMARK  4 active torsions:
REMARK  status: ('A' for Active; 'I' for Inactive)
REMARK       I    between atoms: C_7  and  N_9 
REMARK    1  A    between atoms: C_15  and  C_7 
REMARK    2  A    between atoms: N_9  and  C_12 
REMARK    3  A    between atoms: C_16  and  C_15 
REMARK    4  A    between atoms: C_17  and  C_16 
ROOT
ATOM      1  N   UNL d   1     -42.279-122.417 -54.952  0.00  0.00    -0.169 NA
ATOM      2  C   UNL d   1     -42.244-121.772 -54.445  0.00  0.00     0.282 A 
ATOM      3  C   UNL d   1     -41.936-123.057 -54.575  0.00  0.00     0.282 A 
ATOM      4  C   UNL d   1     -41.874-122.019 -53.745  0.00  0.00     0.064 A 
ATOM      5  C   UNL d   1     -41.687-122.810 -53.834  0.00  0.00     0.063 A 
ATOM      6  C   UNL d   1     -41.310-123.210 -53.218  0.00  0.00     0.006 A 
ATOM      7  C   UNL d   1     -41.691-121.614 -53.050  0.00  0.00     0.024 A 
ATOM      8  O   UNL d   1     -42.532-121.022 -54.619  0.00  0.00    -0.265 OA
ATOM      9  O   UNL d   1     -41.851-123.816 -54.880  0.00  0.00    -0.265 OA
ATOM     10  C   UNL d   1     -41.316-122.011 -52.440  0.00  0.00     0.085 A 
ATOM     11  C   UNL d   1     -41.123-122.813 -52.520  0.00  0.00     0.019 A 
ENDROOT
BRANCH  10  12
ATOM     12  N   UNL d   1     -41.133-121.606 -51.745  0.00  0.00    -0.208 NA
ATOM     13  C   UNL d   1     -41.465-121.843 -51.034  0.00  0.00     0.279 C 
ATOM     14  O   UNL d   1     -41.281-121.437 -50.345  0.00  0.00    -0.265 OA
BRANCH  13  15
ATOM     15  C   UNL d   1     -41.977-122.477 -51.007  0.00  0.00     0.062 C 
BRANCH  15  16
ATOM     16  C   UNL d   1     -42.195-122.788 -50.274  0.00  0.00     0.005 C 
BRANCH  16  17
ATOM     17  C   UNL d   1     -42.971-123.048 -50.152  0.00  0.00     0.000 C 
ATOM     18  C   UNL d   1     -43.117-123.707 -49.678  0.00  0.00     0.000 C 
ENDBRANCH  16  17
ENDBRANCH  15  16
ENDBRANCH  13  15
ENDBRANCH  10  12
TORSDOF 4
ENDMDL
MODEL 2
REMARK VINA RESULT:      -2.9      0.904      1.527
REMARK  4 active torsions:
REMARK  status: ('A' for Active; 'I' for Inactive)
REMARK       I    between atoms: C_7  and  N_9 
REMARK    1  A    between atoms: C_15  and  C_7 
REMARK    2  A    between atoms: N_9  and  C_12 
REMARK    3  A    between atoms: C_16  and  C_15 
REMARK    4  A    between atoms: C_17  and  C_16 
ROOT
ATOM      1  N   UNL d   1     -42.473-122.266 -55.140  0.00  0.00    -0.169 NA
ATOM      2  C   UNL d   1     -42.374-122.972 -54.732  0.00  0.00     0.282 A 
ATOM      3  C   UNL d   1     -42.150-121.664 -54.689  0.00  0.00     0.282 A 
ATOM      4  C   UNL d   1     -41.985-122.801 -54.020  0.00  0.00     0.064 A 
ATOM      5  C   UNL d   1     -41.851-121.994 -54.001  0.00  0.00     0.063 A 
ATOM      6  C   UNL d   1     -41.469-121.662 -53.350  0.00  0.00     0.006 A 
ATOM      7  C   UNL d   1     -41.744-123.287 -53.398  0.00  0.00     0.024 A 
ATOM      8  O   UNL d   1     -42.624-123.707 -55.000  0.00  0.00    -0.265 OA
ATOM      9  O   UNL d   1     -42.127-120.865 -54.885  0.00  0.00    -0.265 OA
ATOM     10  C   UNL d   1     -41.364-122.955 -52.753  0.00  0.00     0.085 A 
ATOM     11  C   UNL d   1     -41.224-122.139 -52.725  0.00  0.00     0.019 A 
ENDROOT
BRANCH  10  12
ATOM     12  N   UNL d   1     -41.123-123.441 -52.131  0.00  0.00    -0.208 NA
ATOM     13  C   UNL d   1     -41.410-123.309 -51.374  0.00  0.00     0.279 C 
ATOM     14  O   UNL d   1     -41.167-123.795 -50.759  0.00  0.00    -0.265 OA
BRANCH  13  15
ATOM     15  C   UNL d   1     -41.933-122.701 -51.230  0.00  0.00     0.062 C 
BRANCH  15  16
ATOM     16  C   UNL d   1     -42.132-122.517 -50.450  0.00  0.00     0.005 C 
BRANCH  16  17
ATOM     17  C   UNL d   1     -42.926-122.407 -50.243  0.00  0.00     0.000 C 
ATOM     18  C   UNL d   1     -43.150-122.401 -49.449  0.00  0.00     0.000 C 
ENDBRANCH  16  17
ENDBRANCH  15  16
ENDBRANCH  13  15
ENDBRANCH  10  12
TORSDOF 4
ENDMDL
MODEL 3
REMARK VINA RESULT:      -2.7      1.420      3.742
REMARK  4 active torsions:
REMARK  status: ('A' for Active; 'I' for Inactive)
REMARK       I    between atoms: C_7  and  N_9 
REMARK    1  A    between atoms: C_15  and  C_7 
REMARK    2  A    between atoms: N_9  and  C_12 
REMARK    3  A    between atoms: C_16  and  C_15 
REMARK    4  A    between atoms: C_17  and  C_16 
ROOT
ATOM      1  N   UNL d   1     -43.150-122.936 -49.370  0.00  0.00    -0.169 NA
ATOM      2  C   UNL d   1     -43.284-122.394 -49.972  0.00  0.00     0.282 A 
ATOM      3  C   UNL d   1     -42.392-123.233 -49.459  0.00  0.00     0.282 A 
ATOM      4  C   UNL d   1     -42.599-122.358 -50.438  0.00  0.00     0.064 A 
ATOM      5  C   UNL d   1     -42.056-122.876 -50.116  0.00  0.00     0.063 A 
ATOM      6  C   UNL d   1     -41.314-122.958 -50.468  0.00  0.00     0.006 A 
ATOM      7  C   UNL d   1     -42.418-121.914 -51.110  0.00  0.00     0.024 A 
ATOM      8  O   UNL d   1     -43.982-121.973 -50.077  0.00  0.00    -0.265 OA
ATOM      9  O   UNL d   1     -42.026-123.791 -48.977  0.00  0.00    -0.265 OA
ATOM     10  C   UNL d   1     -41.681-121.996 -51.458  0.00  0.00     0.085 A 
ATOM     11  C   UNL d   1     -41.123-122.519 -51.139  0.00  0.00     0.019 A 
ENDROOT
BRANCH  10  12
ATOM     12  N   UNL d   1     -41.499-121.553 -52.130  0.00  0.00    -0.208 NA
ATOM     13  C   UNL d   1     -41.496-121.912 -52.868  0.00  0.00     0.279 C 
ATOM     14  O   UNL d   1     -41.315-121.467 -53.533  0.00  0.00    -0.265 OA
BRANCH  13  15
ATOM     15  C   UNL d   1     -41.671-122.704 -52.944  0.00  0.00     0.062 C 
BRANCH  15  16
ATOM     16  C   UNL d   1     -41.501-123.088 -53.655  0.00  0.00     0.005 C 
BRANCH  16  17
ATOM     17  C   UNL d   1     -42.056-123.604 -53.986  0.00  0.00     0.000 C 
ATOM     18  C   UNL d   1     -42.002-123.817 -54.781  0.00  0.00     0.000 C 
ENDBRANCH  16  17
ENDBRANCH  15  16
ENDBRANCH  13  15
ENDBRANCH  10  12
TORSDOF 4
ENDMDL
