MODEL 1
REMARK VINA RESULT:      -8.3      0.000      0.000
REMARK  3 active torsions:
REMARK  status: ('A' for Active; 'I' for Inactive)
REMARK    1  A    between atoms: C_5  and  C_1 
REMARK       I    between atoms: N_7  and  C_5 
REMARK    2  A    between atoms: C_15  and  N_10 
REMARK    3  A    between atoms: C_21  and  C_15 
ROOT
ATOM      1  C   UNL d   1     -49.486  12.109  23.097  0.00  0.00     0.270 C 
ATOM      2  N   UNL d   1     -48.663  12.218  23.249  0.00  0.00    -0.270 N 
ATOM      3  N   UNL d   1     -47.032  12.445  23.548  0.00  0.00    -0.300 N 
ATOM      4  O   UNL d   1     -49.806  11.390  23.223  0.00  0.00    -0.269 OA
ATOM      5  C   UNL d   1     -48.191  11.580  23.529  0.00  0.00     0.102 A 
ATOM      6  C   UNL d   1     -48.332  12.972  23.116  0.00  0.00     0.102 A 
ATOM      7  C   UNL d   1     -47.388  11.695  23.675  0.00  0.00     0.100 A 
ATOM      8  C   UNL d   1     -47.505  13.084  23.268  0.00  0.00     0.100 A 
ENDROOT
BRANCH   1   9
ATOM      9  C   UNL d   1     -49.930  12.709  22.834  0.00  0.00     0.191 A 
ATOM     10  O   UNL d   1     -50.055  12.938  23.567  0.00  0.00    -0.293 OA
ATOM     11  C   UNL d   1     -50.498  13.538  23.304  0.00  0.00     0.275 A 
ATOM     12  O   UNL d   1     -50.912  14.142  23.640  0.00  0.00    -0.264 OA
ATOM     13  C   UNL d   1     -50.381  13.318  22.553  0.00  0.00     0.099 A 
ATOM     14  C   UNL d   1     -50.602  13.571  21.827  0.00  0.00     0.047 A 
ATOM     15  C   UNL d   1     -50.839  13.951  22.480  0.00  0.00     0.014 C 
ATOM     16  C   UNL d   1     -50.040  12.803  22.045  0.00  0.00    -0.019 A 
ATOM     17  C   UNL d   1     -51.064  14.211  21.765  0.00  0.00     0.004 C 
ATOM     18  C   UNL d   1     -50.475  13.338  21.082  0.00  0.00     0.004 C 
ATOM     19  C   UNL d   1     -49.598  12.206  22.316  0.00  0.00     0.006 A 
ENDBRANCH   1   9
BRANCH   3  20
ATOM     20  C   UNL d   1     -46.207  12.566  23.698  0.00  0.00     0.080 C 
BRANCH  20  21
ATOM     21  C   UNL d   1     -45.675  12.685  23.058  0.00  0.00     0.018 A 
ATOM     22  C   UNL d   1     -45.680  13.410  22.637  0.00  0.00     0.002 A 
ATOM     23  C   UNL d   1     -45.148  13.540  21.991  0.00  0.00     0.000 A 
ATOM     24  C   UNL d   1     -44.611  12.920  21.781  0.00  0.00     0.000 A 
ATOM     25  C   UNL d   1     -44.606  12.192  22.204  0.00  0.00     0.000 A 
ATOM     26  C   UNL d   1     -45.138  12.076  22.841  0.00  0.00     0.002 A 
ENDBRANCH  20  21
ENDBRANCH   3  20
TORSDOF 3
ENDMDL
MODEL 2
REMARK VINA RESULT:      -7.9      8.939     10.517
REMARK  3 active torsions:
REMARK  status: ('A' for Active; 'I' for Inactive)
REMARK    1  A    between atoms: C_5  and  C_1 
REMARK       I    between atoms: N_7  and  C_5 
REMARK    2  A    between atoms: C_15  and  N_10 
REMARK    3  A    between atoms: C_21  and  C_15 
ROOT
ATOM      1  C   UNL d   1     -40.237  14.374  17.913  0.00  0.00     0.270 C 
ATOM      2  N   UNL d   1     -40.105  14.596  18.717  0.00  0.00    -0.270 N 
ATOM      3  N   UNL d   1     -39.832  15.039  20.308  0.00  0.00    -0.300 N 
ATOM      4  O   UNL d   1     -40.939  14.050  17.717  0.00  0.00    -0.269 OA
ATOM      5  C   UNL d   1     -40.702  14.477  19.299  0.00  0.00     0.102 A 
ATOM      6  C   UNL d   1     -39.370  14.934  18.919  0.00  0.00     0.102 A 
ATOM      7  C   UNL d   1     -40.565  14.696  20.081  0.00  0.00     0.100 A 
ATOM      8  C   UNL d   1     -39.235  15.158  19.726  0.00  0.00     0.100 A 
ENDROOT
BRANCH   1   9
ATOM      9  C   UNL d   1     -39.676  14.485  17.367  0.00  0.00     0.191 A 
ATOM     10  O   UNL d   1     -39.943  15.205  17.240  0.00  0.00    -0.293 OA
ATOM     11  C   UNL d   1     -39.382  15.317  16.694  0.00  0.00     0.275 A 
ATOM     12  O   UNL d   1     -39.165  15.917  16.203  0.00  0.00    -0.264 OA
ATOM     13  C   UNL d   1     -39.099  14.588  16.811  0.00  0.00     0.099 A 
ATOM     14  C   UNL d   1     -38.506  14.135  16.520  0.00  0.00     0.047 A 
ATOM     15  C   UNL d   1     -38.624  14.872  16.255  0.00  0.00     0.014 C 
ATOM     16  C   UNL d   1     -39.156  13.896  17.208  0.00  0.00    -0.019 A 
ATOM     17  C   UNL d   1     -38.034  14.432  15.959  0.00  0.00     0.004 C 
ATOM     18  C   UNL d   1     -38.235  13.404  16.650  0.00  0.00     0.004 C 
ATOM     19  C   UNL d   1     -39.721  13.792  17.753  0.00  0.00     0.006 A 
ENDBRANCH   1   9
BRANCH   3  20
ATOM     20  C   UNL d   1     -39.689  15.266  21.111  0.00  0.00     0.080 C 
BRANCH  20  21
ATOM     21  C   UNL d   1     -39.234  14.769  21.615  0.00  0.00     0.018 A 
ATOM     22  C   UNL d   1     -38.431  14.951  21.770  0.00  0.00     0.002 A 
ATOM     23  C   UNL d   1     -37.964  14.458  22.276  0.00  0.00     0.000 A 
ATOM     24  C   UNL d   1     -38.330  13.776  22.622  0.00  0.00     0.000 A 
ATOM     25  C   UNL d   1     -39.137  13.594  22.466  0.00  0.00     0.000 A 
ATOM     26  C   UNL d   1     -39.587  14.091  21.963  0.00  0.00     0.002 A 
ENDBRANCH  20  21
ENDBRANCH   3  20
TORSDOF 3
ENDMDL
MODEL 3
REMARK VINA RESULT:      -7.1      1.620      4.799
REMARK  3 active torsions:
REMARK  status: ('A' for Active; 'I' for Inactive)
REMARK    1  A    between atoms: C_5  and  C_1 
REMARK       I    between atoms: N_7  and  C_5 
REMARK    2  A    between atoms: C_15  and  N_10 
REMARK    3  A    between atoms: C_21  and  C_15 
ROOT
ATOM      1  C   UNL d   1     -46.265  13.448  23.164  0.00  0.00     0.270 C 
ATOM      2  N   UNL d   1     -47.053  13.159  23.068  0.00  0.00    -0.270 N 
ATOM      3  N   UNL d   1     -48.610  12.577  22.872  0.00  0.00    -0.300 N 
ATOM      4  O   UNL d   1     -46.155  14.130  23.562  0.00  0.00    -0.269 OA
ATOM      5  C   UNL d   1     -47.707  13.583  23.387  0.00  0.00     0.102 A 
ATOM      6  C   UNL d   1     -47.165  12.445  22.652  0.00  0.00     0.102 A 
ATOM      7  C   UNL d   1     -48.473  13.293  23.289  0.00  0.00     0.100 A 
ATOM      8  C   UNL d   1     -47.956  12.153  22.554  0.00  0.00     0.100 A 
ENDROOT
BRANCH   1   9
ATOM      9  C   UNL d   1     -45.651  13.049  22.865  0.00  0.00     0.191 A 
ATOM     10  O   UNL d   1     -45.719  12.520  23.431  0.00  0.00    -0.293 OA
ATOM     11  C   UNL d   1     -45.105  12.121  23.132  0.00  0.00     0.275 A 
ATOM     12  O   UNL d   1     -44.705  11.448  23.321  0.00  0.00    -0.264 OA
ATOM     13  C   UNL d   1     -45.022  12.651  22.550  0.00  0.00     0.099 A 
ATOM     14  C   UNL d   1     -44.539  12.762  21.922  0.00  0.00     0.047 A 
ATOM     15  C   UNL d   1     -44.448  12.138  22.401  0.00  0.00     0.014 C 
ATOM     16  C   UNL d   1     -45.283  13.326  22.208  0.00  0.00    -0.019 A 
ATOM     17  C   UNL d   1     -43.963  12.238  21.782  0.00  0.00     0.004 C 
ATOM     18  C   UNL d   1     -44.470  13.300  21.347  0.00  0.00     0.004 C 
ATOM     19  C   UNL d   1     -45.898  13.718  22.514  0.00  0.00     0.006 A 
ENDBRANCH   1   9
BRANCH   3  20
ATOM     20  C   UNL d   1     -49.395  12.277  22.770  0.00  0.00     0.080 C 
BRANCH  20  21
ATOM     21  C   UNL d   1     -49.953  12.703  22.306  0.00  0.00     0.018 A 
ATOM     22  C   UNL d   1     -50.495  13.225  22.676  0.00  0.00     0.002 A 
ATOM     23  C   UNL d   1     -51.060  13.659  22.219  0.00  0.00     0.000 A 
ATOM     24  C   UNL d   1     -51.064  13.552  21.379  0.00  0.00     0.000 A 
ATOM     25  C   UNL d   1     -50.520  13.028  21.008  0.00  0.00     0.000 A 
ATOM     26  C   UNL d   1     -49.965  12.605  21.472  0.00  0.00     0.002 A 
ENDBRANCH  20  21
ENDBRANCH   3  20
TORSDOF 3
ENDMDL
MODEL 4
REMARK VINA RESULT:      -7.0      8.667     10.141
REMARK  3 active torsions:
REMARK  status: ('A' for Active; 'I' for Inactive)
REMARK    1  A    between atoms: C_5  and  C_1 
REMARK       I    between atoms: N_7  and  C_5 
REMARK    2  A    between atoms: C_15  and  N_10 
REMARK    3  A    between atoms: C_21  and  C_15 
ROOT
ATOM      1  C   UNL d   1     -40.393  14.602  20.797  0.00  0.00     0.270 C 
ATOM      2  N   UNL d   1     -40.164  14.427  20.003  0.00  0.00    -0.270 N 
ATOM      3  N   UNL d   1     -39.701  14.078  18.434  0.00  0.00    -0.300 N 
ATOM      4  O   UNL d   1     -41.155  14.783  20.945  0.00  0.00    -0.269 OA
ATOM      5  C   UNL d   1     -40.731  14.443  19.381  0.00  0.00     0.102 A 
ATOM      6  C   UNL d   1     -39.366  14.238  19.854  0.00  0.00     0.102 A 
ATOM      7  C   UNL d   1     -40.500  14.271  18.609  0.00  0.00     0.100 A 
ATOM      8  C   UNL d   1     -39.134  14.061  19.056  0.00  0.00     0.100 A 
ENDROOT
BRANCH   1   9
ATOM      9  C   UNL d   1     -39.860  14.587  21.382  0.00  0.00     0.191 A 
ATOM     10  O   UNL d   1     -39.958  13.818  21.452  0.00  0.00    -0.293 OA
ATOM     11  C   UNL d   1     -39.426  13.803  22.036  0.00  0.00     0.275 A 
ATOM     12  O   UNL d   1     -39.108  13.237  22.514  0.00  0.00    -0.264 OA
ATOM     13  C   UNL d   1     -39.315  14.584  21.978  0.00  0.00     0.099 A 
ATOM     14  C   UNL d   1     -38.867  15.140  22.339  0.00  0.00     0.047 A 
ATOM     15  C   UNL d   1     -38.826  14.381  22.558  0.00  0.00     0.014 C 
ATOM     16  C   UNL d   1     -39.506  15.269  21.612  0.00  0.00    -0.019 A 
ATOM     17  C   UNL d   1     -38.378  14.924  22.923  0.00  0.00     0.004 C 
ATOM     18  C   UNL d   1     -38.767  15.922  22.268  0.00  0.00     0.004 C 
ATOM     19  C   UNL d   1     -40.040  15.275  21.028  0.00  0.00     0.006 A 
ENDBRANCH   1   9
BRANCH   3  20
ATOM     20  C   UNL d   1     -39.461  13.900  17.641  0.00  0.00     0.080 C 
BRANCH  20  21
ATOM     21  C   UNL d   1     -39.118  14.498  17.160  0.00  0.00     0.018 A 
ATOM     22  C   UNL d   1     -39.608  15.056  16.771  0.00  0.00     0.002 A 
ATOM     23  C   UNL d   1     -39.274  15.662  16.283  0.00  0.00     0.000 A 
ATOM     24  C   UNL d   1     -38.432  15.691  16.199  0.00  0.00     0.000 A 
ATOM     25  C   UNL d   1     -37.940  15.131  16.590  0.00  0.00     0.000 A 
ATOM     26  C   UNL d   1     -38.284  14.536  17.069  0.00  0.00     0.002 A 
ENDBRANCH  20  21
ENDBRANCH   3  20
TORSDOF 3
ENDMDL
MODEL 5
REMARK VINA RESULT:      -6.8      1.298      2.023
REMARK  3 active torsions:
REMARK  status: ('A' for Active; 'I' for Inactive)
REMARK    1  A    between atoms: C_5  and  C_1 
REMARK       I    between atoms: N_7  and  C_5 
REMARK    2  A    between atoms: C_15  and  N_10 
REMARK    3  A    between atoms: C_21  and  C_15 
ROOT
ATOM      1  C   UNL d   1     -49.156  14.397  22.343  0.00  0.00     0.270 C 
ATOM      2  N   UNL d   1     -48.344  14.297  22.551  0.00  0.00    -0.270 N 
ATOM      3  N   UNL d   1     -46.736  14.087  22.965  0.00  0.00    -0.300 N 
ATOM      4  O   UNL d   1     -49.411  15.124  22.138  0.00  0.00    -0.269 OA
ATOM      5  C   UNL d   1     -47.815  14.952  22.542  0.00  0.00     0.102 A 
ATOM      6  C   UNL d   1     -48.081  13.535  22.764  0.00  0.00     0.102 A 
ATOM      7  C   UNL d   1     -47.024  14.846  22.746  0.00  0.00     0.100 A 
ATOM      8  C   UNL d   1     -47.265  13.432  22.974  0.00  0.00     0.100 A 
ENDROOT
BRANCH   1   9
ATOM      9  C   UNL d   1     -49.653  13.782  22.351  0.00  0.00     0.191 A 
ATOM     10  O   UNL d   1     -49.503  13.650  21.599  0.00  0.00    -0.293 OA
ATOM     11  C   UNL d   1     -50.000  13.034  21.608  0.00  0.00     0.275 A 
ATOM     12  O   UNL d   1     -50.254  12.490  21.072  0.00  0.00    -0.264 OA
ATOM     13  C   UNL d   1     -50.163  13.155  22.373  0.00  0.00     0.099 A 
ATOM     14  C   UNL d   1     -50.623  12.819  22.934  0.00  0.00     0.047 A 
ATOM     15  C   UNL d   1     -50.604  12.530  22.196  0.00  0.00     0.014 C 
ATOM     16  C   UNL d   1     -50.036  13.592  23.030  0.00  0.00    -0.019 A 
ATOM     17  C   UNL d   1     -51.064  12.189  22.745  0.00  0.00     0.004 C 
ATOM     18  C   UNL d   1     -50.776  12.953  23.698  0.00  0.00     0.004 C 
ATOM     19  C   UNL d   1     -49.537  14.206  23.013  0.00  0.00     0.006 A 
ENDBRANCH   1   9
BRANCH   3  20
ATOM     20  C   UNL d   1     -45.923  13.975  23.175  0.00  0.00     0.080 C 
BRANCH  20  21
ATOM     21  C   UNL d   1     -45.433  13.470  22.715  0.00  0.00     0.018 A 
ATOM     22  C   UNL d   1     -45.323  12.671  22.943  0.00  0.00     0.002 A 
ATOM     23  C   UNL d   1     -44.832  12.154  22.487  0.00  0.00     0.000 A 
ATOM     24  C   UNL d   1     -44.455  12.464  21.795  0.00  0.00     0.000 A 
ATOM     25  C   UNL d   1     -44.566  13.266  21.566  0.00  0.00     0.000 A 
ATOM     26  C   UNL d   1     -45.055  13.768  22.027  0.00  0.00     0.002 A 
ENDBRANCH  20  21
ENDBRANCH   3  20
TORSDOF 3
ENDMDL
