MODEL 1
REMARK VINA RESULT:      43.4      0.000      0.000
REMARK  4 active torsions:
REMARK  status: ('A' for Active; 'I' for Inactive)
REMARK    1  A    between atoms: N_9  and  C_3 
REMARK    2  A    between atoms: C_11  and  C_5 
REMARK    3  A    between atoms: C_15  and  C_10 
REMARK    4  A    between atoms: C_18  and  C_15 
ROOT
ATOM      1  N   UNL d   1      13.954  12.936  -3.196  0.00  0.00    -0.196 N 
ATOM      2  C   UNL d   1      14.223  13.418  -2.568  0.00  0.00     0.167 A 
ATOM      3  C   UNL d   1      13.720  13.298  -3.889  0.00  0.00     0.152 A 
ATOM      4  N   UNL d   1      14.169  11.779  -2.402  0.00  0.00    -0.163 NA
ATOM      5  C   UNL d   1      14.460  13.079  -1.871  0.00  0.00     0.055 A 
ATOM      6  C   UNL d   1      14.438  12.261  -1.773  0.00  0.00     0.104 A 
ATOM      7  N   UNL d   1      14.244  14.236  -2.665  0.00  0.00    -0.227 NA
ATOM      8  C   UNL d   1      13.737  14.100  -3.995  0.00  0.00     0.057 A 
ATOM      9  C   UNL d   1      14.006  14.581  -3.367  0.00  0.00     0.086 A 
ATOM     10  C   UNL d   1      14.675  11.913  -1.075  0.00  0.00     0.023 C 
ENDROOT
BRANCH   5  11
ATOM     11  C   UNL d   1      14.725  13.553  -1.251  0.00  0.00     0.004 A 
ATOM     12  C   UNL d   1      15.514  13.779  -1.223  0.00  0.00     0.000 A 
ATOM     13  C   UNL d   1      15.779  14.253  -0.604  0.00  0.00     0.000 A 
ATOM     14  C   UNL d   1      15.254  14.501  -0.014  0.00  0.00     0.000 A 
ATOM     15  C   UNL d   1      14.461  14.276  -0.042  0.00  0.00     0.000 A 
ATOM     16  C   UNL d   1      14.192  13.795  -0.670  0.00  0.00     0.000 A 
ENDBRANCH   5  11
BRANCH   3  17
ATOM     17  N   UNL d   1      13.443  12.801  -4.537  0.00  0.00    -0.289 N 
ATOM     18  C   UNL d   1      13.636  12.961  -5.246  0.00  0.00     0.082 A 
ATOM     19  C   UNL d   1      13.396  12.532  -5.806  0.00  0.00     0.021 A 
ATOM     20  C   UNL d   1      12.769  11.779  -4.961  0.00  0.00     0.021 A 
ATOM     21  C   UNL d   1      13.012  12.216  -4.391  0.00  0.00     0.082 A 
ENDBRANCH   3  17
BRANCH   9  22
ATOM     22  C   UNL d   1      14.031  15.434  -3.463  0.00  0.00     0.019 C 
BRANCH  22  23
ATOM     23  C   UNL d   1      14.778  15.839  -3.632  0.00  0.00     0.002 C 
ATOM     24  C   UNL d   1      14.894  16.647  -3.392  0.00  0.00     0.000 C 
ENDBRANCH  22  23
ENDBRANCH   9  22
TORSDOF 4
ENDMDL
MODEL 2
REMARK VINA RESULT:      45.7      1.130      3.566
REMARK  4 active torsions:
REMARK  status: ('A' for Active; 'I' for Inactive)
REMARK    1  A    between atoms: N_9  and  C_3 
REMARK    2  A    between atoms: C_11  and  C_5 
REMARK    3  A    between atoms: C_15  and  C_10 
REMARK    4  A    between atoms: C_18  and  C_15 
ROOT
ATOM      1  N   UNL d   1      14.055  12.830  -2.281  0.00  0.00    -0.196 N 
ATOM      2  C   UNL d   1      13.907  13.377  -2.895  0.00  0.00     0.167 A 
ATOM      3  C   UNL d   1      14.453  13.090  -1.618  0.00  0.00     0.152 A 
ATOM      4  N   UNL d   1      13.404  11.813  -3.028  0.00  0.00    -0.163 NA
ATOM      5  C   UNL d   1      13.513  13.139  -3.563  0.00  0.00     0.055 A 
ATOM      6  C   UNL d   1      13.255  12.360  -3.643  0.00  0.00     0.104 A 
ATOM      7  N   UNL d   1      14.164  14.156  -2.815  0.00  0.00    -0.227 NA
ATOM      8  C   UNL d   1      14.710  13.852  -1.529  0.00  0.00     0.057 A 
ATOM      9  C   UNL d   1      14.561  14.399  -2.144  0.00  0.00     0.086 A 
ATOM     10  C   UNL d   1      12.859  12.114  -4.311  0.00  0.00     0.023 C 
ENDROOT
BRANCH   5  11
ATOM     11  C   UNL d   1      13.366  13.678  -4.168  0.00  0.00     0.004 A 
ATOM     12  C   UNL d   1      12.918  14.349  -4.014  0.00  0.00     0.000 A 
ATOM     13  C   UNL d   1      12.772  14.887  -4.619  0.00  0.00     0.000 A 
ATOM     14  C   UNL d   1      13.074  14.755  -5.379  0.00  0.00     0.000 A 
ATOM     15  C   UNL d   1      13.524  14.082  -5.535  0.00  0.00     0.000 A 
ATOM     16  C   UNL d   1      13.672  13.535  -4.920  0.00  0.00     0.000 A 
ENDBRANCH   5  11
BRANCH   3  17
ATOM     17  N   UNL d   1      14.606  12.526  -0.984  0.00  0.00    -0.289 N 
ATOM     18  C   UNL d   1      14.041  12.267  -0.562  0.00  0.00     0.082 A 
ATOM     19  C   UNL d   1      14.173  11.780  -0.014  0.00  0.00     0.021 A 
ATOM     20  C   UNL d   1      15.435  11.802  -0.300  0.00  0.00     0.021 A 
ATOM     21  C   UNL d   1      15.300  12.298  -0.857  0.00  0.00     0.082 A 
ENDBRANCH   3  17
BRANCH   9  22
ATOM     22  C   UNL d   1      14.827  15.212  -2.066  0.00  0.00     0.019 C 
BRANCH  22  23
ATOM     23  C   UNL d   1      14.680  15.657  -1.337  0.00  0.00     0.002 C 
ATOM     24  C   UNL d   1      15.294  16.136  -0.994  0.00  0.00     0.000 C 
ENDBRANCH  22  23
ENDBRANCH   9  22
TORSDOF 4
ENDMDL
MODEL 3
REMARK VINA RESULT:      46.4      1.280      3.773
REMARK  4 active torsions:
REMARK  status: ('A' for Active; 'I' for Inactive)
REMARK    1  A    between atoms: N_9  and  C_3 
REMARK    2  A    between atoms: C_11  and  C_5 
REMARK    3  A    between atoms: C_15  and  C_10 
REMARK    4  A    between atoms: C_18  and  C_15 
ROOT
ATOM      1  N   UNL d   1      14.157  13.423  -2.225  0.00  0.00    -0.196 N 
ATOM      2  C   UNL d   1      13.911  13.755  -2.952  0.00  0.00     0.167 A 
ATOM      3  C   UNL d   1      14.020  12.629  -2.095  0.00  0.00     0.152 A 
ATOM      4  N   UNL d   1      14.653  14.689  -1.815  0.00  0.00    -0.163 NA
ATOM      5  C   UNL d   1      14.037  14.541  -3.102  0.00  0.00     0.055 A 
ATOM      6  C   UNL d   1      14.407  15.021  -2.542  0.00  0.00     0.104 A 
ATOM      7  N   UNL d   1      13.541  13.275  -3.511  0.00  0.00    -0.227 NA
ATOM      8  C   UNL d   1      13.658  12.150  -2.637  0.00  0.00     0.057 A 
ATOM      9  C   UNL d   1      13.412  12.482  -3.364  0.00  0.00     0.086 A 
ATOM     10  C   UNL d   1      14.537  15.813  -2.686  0.00  0.00     0.023 C 
ENDROOT
BRANCH   5  11
ATOM     11  C   UNL d   1      13.795  14.868  -3.818  0.00  0.00     0.004 A 
ATOM     12  C   UNL d   1      14.331  14.929  -4.437  0.00  0.00     0.000 A 
ATOM     13  C   UNL d   1      14.089  15.256  -5.153  0.00  0.00     0.000 A 
ATOM     14  C   UNL d   1      13.310  15.521  -5.249  0.00  0.00     0.000 A 
ATOM     15  C   UNL d   1      12.771  15.460  -4.629  0.00  0.00     0.000 A 
ATOM     16  C   UNL d   1      13.017  15.128  -3.902  0.00  0.00     0.000 A 
ENDBRANCH   5  11
BRANCH   3  17
ATOM     17  N   UNL d   1      14.274  12.287  -1.345  0.00  0.00    -0.289 N 
ATOM     18  C   UNL d   1      13.783  12.199  -0.783  0.00  0.00     0.082 A 
ATOM     19  C   UNL d   1      14.002  11.904  -0.135  0.00  0.00     0.021 A 
ATOM     20  C   UNL d   1      15.204  11.780  -0.599  0.00  0.00     0.021 A 
ATOM     21  C   UNL d   1      14.981  12.080  -1.258  0.00  0.00     0.082 A 
ENDBRANCH   3  17
BRANCH   9  22
ATOM     22  C   UNL d   1      13.026  11.987  -3.950  0.00  0.00     0.019 C 
BRANCH  22  23
ATOM     23  C   UNL d   1      13.430  11.779  -4.688  0.00  0.00     0.002 C 
ATOM     24  C   UNL d   1      13.010  11.799  -5.428  0.00  0.00     0.000 C 
ENDBRANCH  22  23
ENDBRANCH   9  22
TORSDOF 4
ENDMDL
