MODEL 1
REMARK VINA RESULT:      -3.6      0.000      0.000
REMARK  4 active torsions:
REMARK  status: ('A' for Active; 'I' for Inactive)
REMARK    1  A    between atoms: C_3  and  N_1 
REMARK       I    between atoms: C_4  and  N_1 
REMARK    2  A    between atoms: C_9  and  C_4 
REMARK    3  A    between atoms: C_5  and  C_10 
REMARK    4  A    between atoms: C_10  and  C_9 
ROOT
ATOM      1  N   UNL d   1      59.441  -9.795  35.156  0.00  0.00    -0.189 NA
ATOM      2  C   UNL d   1      59.305  -9.122  35.639  0.00  0.00     0.281 C 
ATOM      3  O   UNL d   1      58.884  -9.195  36.330  0.00  0.00    -0.265 OA
ENDROOT
BRANCH   1   4
ATOM      4  C   UNL d   1      59.878  -9.698  34.446  0.00  0.00     0.166 A 
ATOM      5  N   UNL d   1      59.491  -9.529  33.734  0.00  0.00    -0.225 NA
ATOM      6  C   UNL d   1      59.896  -9.433  33.037  0.00  0.00     0.107 A 
ATOM      7  C   UNL d   1      60.696  -9.500  33.025  0.00  0.00     0.054 A 
ATOM      8  C   UNL d   1      61.133  -9.670  33.717  0.00  0.00     0.011 A 
ATOM      9 BR   UNL d   1      61.085  -9.390  32.267  0.00  0.00    -0.048 Br
ATOM     10  C   UNL d   1      60.734  -9.767  34.415  0.00  0.00     0.039 A 
ENDBRANCH   1   4
BRANCH   2  11
ATOM     11  C   UNL d   1      59.601  -8.358  35.416  0.00  0.00     0.069 C 
BRANCH  11  12
ATOM     12  C   UNL d   1      59.405  -7.718  35.872  0.00  0.00     0.075 C 
BRANCH  12  13
ATOM     13  C   UNL d   1      59.711  -6.974  35.683  0.00  0.00     0.211 C 
ATOM     14  O   UNL d   1      60.541  -6.858  35.677  0.00  0.00    -0.644 OA
ATOM     15  O   UNL d   1      59.216  -6.371  35.507  0.00  0.00    -0.644 OA
ENDBRANCH  12  13
ENDBRANCH  11  12
ENDBRANCH   2  11
TORSDOF 4
ENDMDL
MODEL 2
REMARK VINA RESULT:      -2.7      9.161      9.887
REMARK  4 active torsions:
REMARK  status: ('A' for Active; 'I' for Inactive)
REMARK    1  A    between atoms: C_3  and  N_1 
REMARK       I    between atoms: C_4  and  N_1 
REMARK    2  A    between atoms: C_9  and  C_4 
REMARK    3  A    between atoms: C_5  and  C_10 
REMARK    4  A    between atoms: C_10  and  C_9 
ROOT
ATOM      1  N   UNL d   1      56.185  -1.347  32.227  0.00  0.00    -0.189 NA
ATOM      2  C   UNL d   1      56.743  -1.074  31.664  0.00  0.00     0.281 C 
ATOM      3  O   UNL d   1      56.987  -1.563  31.062  0.00  0.00    -0.265 OA
ENDROOT
BRANCH   1   4
ATOM      4  C   UNL d   1      55.945  -0.826  32.841  0.00  0.00     0.166 A 
ATOM      5  N   UNL d   1      56.298  -0.865  33.588  0.00  0.00    -0.225 NA
ATOM      6  C   UNL d   1      56.080  -0.370  34.193  0.00  0.00     0.107 A 
ATOM      7  C   UNL d   1      55.506   0.179  34.076  0.00  0.00     0.054 A 
ATOM      8  C   UNL d   1      55.119   0.259  33.340  0.00  0.00     0.011 A 
ATOM      9 BR   UNL d   1      55.307   0.682  34.743  0.00  0.00    -0.048 Br
ATOM     10  C   UNL d   1      55.333  -0.232  32.732  0.00  0.00     0.039 A 
ENDBRANCH   1   4
BRANCH   2  11
ATOM     11  C   UNL d   1      57.060  -0.288  31.709  0.00  0.00     0.069 C 
BRANCH  11  12
ATOM     12  C   UNL d   1      57.464   0.006  31.071  0.00  0.00     0.075 C 
BRANCH  12  13
ATOM     13  C   UNL d   1      58.156   0.440  31.190  0.00  0.00     0.211 C 
ATOM     14  O   UNL d   1      58.364   0.682  31.965  0.00  0.00    -0.644 OA
ATOM     15  O   UNL d   1      58.623   0.628  30.568  0.00  0.00    -0.644 OA
ENDBRANCH  12  13
ENDBRANCH  11  12
ENDBRANCH   2  11
TORSDOF 4
ENDMDL
MODEL 3
REMARK VINA RESULT:      -2.6      2.214      3.151
REMARK  4 active torsions:
REMARK  status: ('A' for Active; 'I' for Inactive)
REMARK    1  A    between atoms: C_3  and  N_1 
REMARK       I    between atoms: C_4  and  N_1 
REMARK    2  A    between atoms: C_9  and  C_4 
REMARK    3  A    between atoms: C_5  and  C_10 
REMARK    4  A    between atoms: C_10  and  C_9 
ROOT
ATOM      1  N   UNL d   1      59.543  -8.649  35.915  0.00  0.00    -0.189 NA
ATOM      2  C   UNL d   1      59.669  -9.107  35.223  0.00  0.00     0.281 C 
ATOM      3  O   UNL d   1      59.285  -9.817  35.129  0.00  0.00    -0.265 OA
ENDROOT
BRANCH   1   4
ATOM      4  C   UNL d   1      59.949  -7.918  35.993  0.00  0.00     0.166 A 
ATOM      5  N   UNL d   1      59.571  -7.206  35.808  0.00  0.00    -0.225 NA
ATOM      6  C   UNL d   1      59.946  -6.490  35.877  0.00  0.00     0.107 A 
ATOM      7  C   UNL d   1      60.708  -6.458  36.131  0.00  0.00     0.054 A 
ATOM      8  C   UNL d   1      61.133  -7.149  36.330  0.00  0.00     0.011 A 
ATOM      9 BR   UNL d   1      61.066  -5.680  36.189  0.00  0.00    -0.048 Br
ATOM     10  C   UNL d   1      60.763  -7.867  36.263  0.00  0.00     0.039 A 
ENDBRANCH   1   4
BRANCH   2  11
ATOM     11  C   UNL d   1      60.195  -8.839  34.613  0.00  0.00     0.069 C 
BRANCH  11  12
ATOM     12  C   UNL d   1      60.322  -9.319  33.973  0.00  0.00     0.075 C 
BRANCH  12  13
ATOM     13  C   UNL d   1      60.400  -8.984  33.222  0.00  0.00     0.211 C 
ATOM     14  O   UNL d   1      61.128  -8.634  32.998  0.00  0.00    -0.644 OA
ATOM     15  O   UNL d   1      59.783  -8.996  32.713  0.00  0.00    -0.644 OA
ENDBRANCH  12  13
ENDBRANCH  11  12
ENDBRANCH   2  11
TORSDOF 4
ENDMDL
MODEL 4
REMARK VINA RESULT:      -2.5      9.346     10.261
REMARK  4 active torsions:
REMARK  status: ('A' for Active; 'I' for Inactive)
REMARK    1  A    between atoms: C_3  and  N_1 
REMARK       I    between atoms: C_4  and  N_1 
REMARK    2  A    between atoms: C_9  and  C_4 
REMARK    3  A    between atoms: C_5  and  C_10 
REMARK    4  A    between atoms: C_10  and  C_9 
ROOT
ATOM      1  N   UNL d   1      57.708   0.272  29.784  0.00  0.00    -0.189 NA
ATOM      2  C   UNL d   1      58.528   0.408  29.677  0.00  0.00     0.281 C 
ATOM      3  O   UNL d   1      58.818   0.592  28.940  0.00  0.00    -0.265 OA
ENDROOT
BRANCH   1   4
ATOM      4  C   UNL d   1      57.428   0.083  30.553  0.00  0.00     0.166 A 
ATOM      5  N   UNL d   1      57.396  -0.704  30.807  0.00  0.00    -0.225 NA
ATOM      6  C   UNL d   1      57.129  -0.906  31.547  0.00  0.00     0.107 A 
ATOM      7  C   UNL d   1      56.886  -0.335  32.057  0.00  0.00     0.054 A 
ATOM      8  C   UNL d   1      56.899   0.474  31.848  0.00  0.00     0.011 A 
ATOM      9 BR   UNL d   1      56.612  -0.593  32.828  0.00  0.00    -0.048 Br
ATOM     10  C   UNL d   1      57.165   0.682  31.111  0.00  0.00     0.039 A 
ENDBRANCH   1   4
BRANCH   2  11
ATOM     11  C   UNL d   1      59.068   0.356  30.331  0.00  0.00     0.069 C 
BRANCH  11  12
ATOM     12  C   UNL d   1      59.806   0.680  30.251  0.00  0.00     0.075 C 
BRANCH  12  13
ATOM     13  C   UNL d   1      60.436   0.374  30.689  0.00  0.00     0.211 C 
ATOM     14  O   UNL d   1      60.887  -0.260  30.376  0.00  0.00    -0.644 OA
ATOM     15  O   UNL d   1      60.611   0.681  31.406  0.00  0.00    -0.644 OA
ENDBRANCH  12  13
ENDBRANCH  11  12
ENDBRANCH   2  11
TORSDOF 4
ENDMDL
MODEL 5
REMARK VINA RESULT:      -2.1      9.018      9.927
REMARK  4 active torsions:
REMARK  status: ('A' for Active; 'I' for Inactive)
REMARK    1  A    between atoms: C_3  and  N_1 
REMARK       I    between atoms: C_4  and  N_1 
REMARK    2  A    between atoms: C_9  and  C_4 
REMARK    3  A    between atoms: C_5  and  C_10 
REMARK    4  A    between atoms: C_10  and  C_9 
ROOT
ATOM      1  N   UNL d   1      57.739   0.680  30.595  0.00  0.00    -0.189 NA
ATOM      2  C   UNL d   1      58.149   0.217  30.028  0.00  0.00     0.281 C 
ATOM      3  O   UNL d   1      58.499   0.574  29.387  0.00  0.00    -0.265 OA
ENDROOT
BRANCH   1   4
ATOM      4  C   UNL d   1      57.384   0.292  31.250  0.00  0.00     0.166 A 
ATOM      5  N   UNL d   1      56.686  -0.143  31.153  0.00  0.00    -0.225 NA
ATOM      6  C   UNL d   1      56.328  -0.524  31.774  0.00  0.00     0.107 A 
ATOM      7  C   UNL d   1      56.650  -0.487  32.508  0.00  0.00     0.054 A 
ATOM      8  C   UNL d   1      57.354  -0.062  32.658  0.00  0.00     0.011 A 
ATOM      9 BR   UNL d   1      56.239  -0.905  33.136  0.00  0.00    -0.048 Br
ATOM     10  C   UNL d   1      57.716   0.321  32.042  0.00  0.00     0.039 A 
ENDBRANCH   1   4
BRANCH   2  11
ATOM     11  C   UNL d   1      58.206  -0.626  30.112  0.00  0.00     0.069 C 
BRANCH  11  12
ATOM     12  C   UNL d   1      58.519  -1.057  29.501  0.00  0.00     0.075 C 
BRANCH  12  13
ATOM     13  C   UNL d   1      58.776  -1.830  29.637  0.00  0.00     0.211 C 
ATOM     14  O   UNL d   1      59.593  -1.979  29.752  0.00  0.00    -0.644 OA
ATOM     15  O   UNL d   1      58.247  -2.429  29.658  0.00  0.00    -0.644 OA
ENDBRANCH  12  13
ENDBRANCH  11  12
ENDBRANCH   2  11
TORSDOF 4
ENDMDL
MODEL 6
REMARK VINA RESULT:      -2.1      8.825      9.587
REMARK  4 active torsions:
REMARK  status: ('A' for Active; 'I' for Inactive)
REMARK    1  A    between atoms: C_3  and  N_1 
REMARK       I    between atoms: C_4  and  N_1 
REMARK    2  A    between atoms: C_9  and  C_4 
REMARK    3  A    between atoms: C_5  and  C_10 
REMARK    4  A    between atoms: C_10  and  C_9 
ROOT
ATOM      1  N   UNL d   1      58.428  -0.771  28.624  0.00  0.00    -0.189 NA
ATOM      2  C   UNL d   1      58.432  -0.094  29.119  0.00  0.00     0.281 C 
ATOM      3  O   UNL d   1      57.890   0.501  29.000  0.00  0.00    -0.265 OA
ENDROOT
BRANCH   1   4
ATOM      4  C   UNL d   1      58.995  -1.374  28.764  0.00  0.00     0.166 A 
ATOM      5  N   UNL d   1      59.760  -1.311  28.455  0.00  0.00    -0.225 NA
ATOM      6  C   UNL d   1      60.323  -1.883  28.579  0.00  0.00     0.107 A 
ATOM      7  C   UNL d   1      60.144  -2.535  29.013  0.00  0.00     0.054 A 
ATOM      8  C   UNL d   1      59.386  -2.646  29.347  0.00  0.00     0.011 A 
ATOM      9 BR   UNL d   1      60.768  -3.115  29.119  0.00  0.00    -0.048 Br
ATOM     10  C   UNL d   1      58.821  -2.078  29.226  0.00  0.00     0.039 A 
ENDBRANCH   1   4
BRANCH   2  11
ATOM     11  C   UNL d   1      58.996  -0.016  29.748  0.00  0.00     0.069 C 
BRANCH  11  12
ATOM     12  C   UNL d   1      59.002   0.668  30.182  0.00  0.00     0.075 C 
BRANCH  12  13
ATOM     13  C   UNL d   1      59.345   0.671  30.934  0.00  0.00     0.211 C 
ATOM     14  O   UNL d   1      60.180   0.662  31.007  0.00  0.00    -0.644 OA
ATOM     15  O   UNL d   1      58.881   0.682  31.585  0.00  0.00    -0.644 OA
ENDBRANCH  12  13
ENDBRANCH  11  12
ENDBRANCH   2  11
TORSDOF 4
ENDMDL
MODEL 7
REMARK VINA RESULT:      -2.0      8.956      9.746
REMARK  4 active torsions:
REMARK  status: ('A' for Active; 'I' for Inactive)
REMARK    1  A    between atoms: C_3  and  N_1 
REMARK       I    between atoms: C_4  and  N_1 
REMARK    2  A    between atoms: C_9  and  C_4 
REMARK    3  A    between atoms: C_5  and  C_10 
REMARK    4  A    between atoms: C_10  and  C_9 
ROOT
ATOM      1  N   UNL d   1      58.268   0.682  31.690  0.00  0.00    -0.189 NA
ATOM      2  C   UNL d   1      57.679   0.368  32.198  0.00  0.00     0.281 C 
ATOM      3  O   UNL d   1      57.621   0.631  32.965  0.00  0.00    -0.265 OA
ENDROOT
BRANCH   1   4
ATOM      4  C   UNL d   1      58.311   0.397  30.901  0.00  0.00     0.166 A 
ATOM      5  N   UNL d   1      58.870  -0.176  30.691  0.00  0.00    -0.225 NA
ATOM      6  C   UNL d   1      58.927  -0.463  29.934  0.00  0.00     0.107 A 
ATOM      7  C   UNL d   1      58.432  -0.192  29.363  0.00  0.00     0.054 A 
ATOM      8  C   UNL d   1      57.851   0.387  29.524  0.00  0.00     0.011 A 
ATOM      9 BR   UNL d   1      58.527  -0.523  28.576  0.00  0.00    -0.048 Br
ATOM     10  C   UNL d   1      57.790   0.677  30.278  0.00  0.00     0.039 A 
ENDBRANCH   1   4
BRANCH   2  11
ATOM     11  C   UNL d   1      57.137  -0.224  31.924  0.00  0.00     0.069 C 
BRANCH  11  12
ATOM     12  C   UNL d   1      56.492  -0.403  32.383  0.00  0.00     0.075 C 
BRANCH  12  13
ATOM     13  C   UNL d   1      56.243  -1.187  32.448  0.00  0.00     0.211 C 
ATOM     14  O   UNL d   1      56.266  -1.568  33.194  0.00  0.00    -0.644 OA
ATOM     15  O   UNL d   1      55.982  -1.579  31.801  0.00  0.00    -0.644 OA
ENDBRANCH  12  13
ENDBRANCH  11  12
ENDBRANCH   2  11
TORSDOF 4
ENDMDL
