MODEL 1
REMARK VINA RESULT:      -3.6      0.000      0.000
REMARK  4 active torsions:
REMARK  status: ('A' for Active; 'I' for Inactive)
REMARK    1  A    between atoms: S_3  and  N_1 
REMARK    2  A    between atoms: C_7  and  C_4 
REMARK    3  A    between atoms: C_10  and  C_5 
REMARK    4  A    between atoms: C_21  and  C_20 
ROOT
ATOM      1  N   UNL d   1      58.175  -0.168  29.831  0.00  0.00    -0.155 N 
ATOM      2  N   UNL d   1      57.637   0.155  30.380  0.00  0.00    -0.153 NA
ATOM      3  C   UNL d   1      57.461  -0.432  30.926  0.00  0.00     0.126 A 
ATOM      4  C   UNL d   1      58.318  -0.937  30.046  0.00  0.00     0.096 A 
ATOM      5  C   UNL d   1      57.893  -1.109  30.706  0.00  0.00     0.043 A 
ENDROOT
BRANCH   4   6
ATOM      6  C   UNL d   1      58.820  -1.457  29.648  0.00  0.00     0.018 A 
ATOM      7  C   UNL d   1      58.519  -2.083  29.178  0.00  0.00     0.002 A 
ATOM      8  C   UNL d   1      59.022  -2.603  28.781  0.00  0.00     0.000 A 
ATOM      9  C   UNL d   1      59.825  -2.498  28.852  0.00  0.00     0.000 A 
ATOM     10  C   UNL d   1      60.148  -1.908  29.294  0.00  0.00     0.000 A 
ATOM     11  C   UNL d   1      59.646  -1.388  29.692  0.00  0.00     0.002 A 
BRANCH   9  12
ATOM     12  C   UNL d   1      60.327  -3.017  28.455  0.00  0.00     0.000 C 
ATOM     13  C   UNL d   1      60.584  -3.708  28.826  0.00  0.00     0.000 C 
ENDBRANCH   9  12
ENDBRANCH   4   6
BRANCH   1  14
ATOM     14  S   UNL d   1      58.481   0.263  29.195  0.00  0.00     0.266 S 
ATOM     15  O   UNL d   1      57.848   0.011  28.722  0.00  0.00    -0.203 OA
ATOM     16  O   UNL d   1      59.114   0.525  29.641  0.00  0.00    -0.203 OA
ATOM     17  C   UNL d   1      58.761   0.682  28.545  0.00  0.00     0.165 C 
ENDBRANCH   1  14
BRANCH   3  18
ATOM     18  C   UNL d   1      56.952  -0.369  31.576  0.00  0.00     0.119 A 
ATOM     19  O   UNL d   1      56.658  -1.014  31.983  0.00  0.00    -0.304 OA
ATOM     20  C   UNL d   1      56.168  -0.698  32.595  0.00  0.00     0.123 A 
ATOM     21  C   UNL d   1      56.187   0.119  32.529  0.00  0.00     0.029 A 
ATOM     22  C   UNL d   1      56.663   0.326  31.911  0.00  0.00     0.028 A 
ENDBRANCH   3  18
TORSDOF 4
ENDMDL
MODEL 2
REMARK VINA RESULT:      -2.3      2.579      5.386
REMARK  4 active torsions:
REMARK  status: ('A' for Active; 'I' for Inactive)
REMARK    1  A    between atoms: S_3  and  N_1 
REMARK    2  A    between atoms: C_7  and  C_4 
REMARK    3  A    between atoms: C_10  and  C_5 
REMARK    4  A    between atoms: C_21  and  C_20 
ROOT
ATOM      1  N   UNL d   1      56.392  -0.920  32.401  0.00  0.00    -0.155 N 
ATOM      2  N   UNL d   1      56.859  -0.890  31.710  0.00  0.00    -0.153 NA
ATOM      3  C   UNL d   1      57.117  -0.116  31.621  0.00  0.00     0.126 A 
ATOM      4  C   UNL d   1      56.372  -0.173  32.719  0.00  0.00     0.096 A 
ATOM      5  C   UNL d   1      56.806   0.321  32.258  0.00  0.00     0.043 A 
ENDROOT
BRANCH   4   6
ATOM      6  C   UNL d   1      55.970   0.040  33.407  0.00  0.00     0.018 A 
ATOM      7  C   UNL d   1      56.374   0.160  34.132  0.00  0.00     0.002 A 
ATOM      8  C   UNL d   1      55.971   0.373  34.819  0.00  0.00     0.000 A 
ATOM      9  C   UNL d   1      55.164   0.467  34.783  0.00  0.00     0.000 A 
ATOM     10  C   UNL d   1      54.744   0.360  34.105  0.00  0.00     0.000 A 
ATOM     11  C   UNL d   1      55.147   0.147  33.417  0.00  0.00     0.002 A 
BRANCH   9  12
ATOM     12  C   UNL d   1      54.762   0.680  35.470  0.00  0.00     0.000 C 
ATOM     13  C   UNL d   1      55.154   0.674  36.197  0.00  0.00     0.000 C 
ENDBRANCH   9  12
ENDBRANCH   4   6
BRANCH   1  14
ATOM     14  S   UNL d   1      56.033  -1.613  32.671  0.00  0.00     0.266 S 
ATOM     15  O   UNL d   1      55.407  -1.495  32.140  0.00  0.00    -0.203 OA
ATOM     16  O   UNL d   1      56.639  -1.751  33.203  0.00  0.00    -0.203 OA
ATOM     17  C   UNL d   1      55.654  -2.299  32.921  0.00  0.00     0.165 C 
ENDBRANCH   1  14
BRANCH   3  18
ATOM     18  C   UNL d   1      57.597   0.181  31.015  0.00  0.00     0.119 A 
ATOM     19  O   UNL d   1      57.350   0.254  30.240  0.00  0.00    -0.304 OA
ATOM     20  C   UNL d   1      58.007   0.576  29.816  0.00  0.00     0.123 A 
ATOM     21  C   UNL d   1      58.619   0.680  30.353  0.00  0.00     0.029 A 
ATOM     22  C   UNL d   1      58.375   0.442  31.084  0.00  0.00     0.028 A 
ENDBRANCH   3  18
TORSDOF 4
ENDMDL
MODEL 3
REMARK VINA RESULT:      -1.2      1.494      2.210
REMARK  4 active torsions:
REMARK  status: ('A' for Active; 'I' for Inactive)
REMARK    1  A    between atoms: S_3  and  N_1 
REMARK    2  A    between atoms: C_7  and  C_4 
REMARK    3  A    between atoms: C_10  and  C_5 
REMARK    4  A    between atoms: C_21  and  C_20 
ROOT
ATOM      1  N   UNL d   1      57.856  -1.472  30.426  0.00  0.00    -0.155 N 
ATOM      2  N   UNL d   1      57.273  -1.587  31.011  0.00  0.00    -0.153 NA
ATOM      3  C   UNL d   1      57.173  -0.873  31.403  0.00  0.00     0.126 A 
ATOM      4  C   UNL d   1      58.101  -0.699  30.469  0.00  0.00     0.096 A 
ATOM      5  C   UNL d   1      57.696  -0.327  31.055  0.00  0.00     0.043 A 
ENDROOT
BRANCH   4   6
ATOM      6  C   UNL d   1      58.674  -0.354  29.987  0.00  0.00     0.018 A 
ATOM      7  C   UNL d   1      58.486  -0.059  29.225  0.00  0.00     0.002 A 
ATOM      8  C   UNL d   1      59.059   0.286  28.742  0.00  0.00     0.000 A 
ATOM      9  C   UNL d   1      59.822   0.336  29.021  0.00  0.00     0.000 A 
ATOM     10  C   UNL d   1      60.038   0.064  29.747  0.00  0.00     0.000 A 
ATOM     11  C   UNL d   1      59.465  -0.281  30.229  0.00  0.00     0.002 A 
BRANCH   9  12
ATOM     12  C   UNL d   1      60.394   0.681  28.539  0.00  0.00     0.000 C 
ATOM     13  C   UNL d   1      61.133   0.322  28.455  0.00  0.00     0.000 C 
ENDBRANCH   9  12
ENDBRANCH   4   6
BRANCH   1  14
ATOM     14  S   UNL d   1      58.107  -2.072  29.917  0.00  0.00     0.266 S 
ATOM     15  O   UNL d   1      58.691  -2.291  30.464  0.00  0.00    -0.203 OA
ATOM     16  O   UNL d   1      57.540  -1.876  29.362  0.00  0.00    -0.203 OA
ATOM     17  C   UNL d   1      58.377  -2.677  29.430  0.00  0.00     0.165 C 
ENDBRANCH   1  14
BRANCH   3  18
ATOM     18  C   UNL d   1      56.651  -0.718  32.028  0.00  0.00     0.119 A 
ATOM     19  O   UNL d   1      56.388   0.030  32.221  0.00  0.00    -0.304 OA
ATOM     20  C   UNL d   1      55.873  -0.068  32.884  0.00  0.00     0.123 A 
ATOM     21  C   UNL d   1      55.849  -0.870  33.060  0.00  0.00     0.029 A 
ATOM     22  C   UNL d   1      56.321  -1.270  32.543  0.00  0.00     0.028 A 
ENDBRANCH   3  18
TORSDOF 4
ENDMDL
