MODEL 1
REMARK VINA RESULT:      50.4      0.000      0.000
REMARK  2 active torsions:
REMARK  status: ('A' for Active; 'I' for Inactive)
REMARK    1  A    between atoms: N_7  and  C_1 
REMARK       I    between atoms: C_8  and  N_7 
REMARK    2  A    between atoms: C_10  and  C_8 
ROOT
ATOM      1  C   UNL d   1      15.115  14.741  -0.032  0.00  0.00     0.159 A 
ATOM      2  N   UNL d   1      14.329  13.534  -0.023  0.00  0.00    -0.257 N 
ATOM      3  C   UNL d   1      15.030  13.087  -0.031  0.00  0.00     0.150 A 
ATOM      4  C   UNL d   1      14.384  14.362  -0.024  0.00  0.00     0.285 A 
ATOM      5  N   UNL d   1      15.778  13.458  -0.040  0.00  0.00    -0.226 NA
ATOM      6  C   UNL d   1      15.819  14.286  -0.040  0.00  0.00     0.105 A 
ATOM      7  C   UNL d   1      14.998  12.268  -0.030  0.00  0.00     0.035 A 
ATOM      8  C   UNL d   1      13.607  13.168  -0.015  0.00  0.00     0.085 A 
ATOM      9  O   UNL d   1      13.683  14.809  -0.016  0.00  0.00    -0.265 OA
ATOM     10  C   UNL d   1      13.565  12.340  -0.014  0.00  0.00     0.019 A 
ATOM     11  C   UNL d   1      14.245  11.889  -0.022  0.00  0.00     0.004 A 
ATOM     12  C   UNL d   1      16.542  14.662  -0.049  0.00  0.00     0.022 C 
ATOM     13  C   UNL d   1      15.676  11.811  -0.038  0.00  0.00     0.003 C 
ENDROOT
BRANCH   1  14
ATOM     14  N   UNL d   1      15.157  15.568  -0.033  0.00  0.00    -0.202 NA
ATOM     15  C   UNL d   1      15.112  15.978  -0.753  0.00  0.00     0.279 C 
ATOM     16  O   UNL d   1      15.197  16.498  -0.126  0.00  0.00    -0.265 OA
BRANCH  15  17
ATOM     17  C   UNL d   1      15.056  16.266  -1.526  0.00  0.00     0.060 A 
ATOM     18  C   UNL d   1      14.925  15.739  -2.143  0.00  0.00     0.031 A 
ATOM     19  C   UNL d   1      14.869  16.028  -2.917  0.00  0.00     0.119 A 
ATOM     20  O   UNL d   1      14.742  15.645  -3.640  0.00  0.00    -0.300 OA
ATOM     21  C   UNL d   1      14.942  16.832  -3.069  0.00  0.00     0.119 A 
ATOM     22  C   UNL d   1      14.738  16.219  -4.243  0.00  0.00     0.304 A 
ATOM     23  O   UNL d   1      14.864  16.962  -3.873  0.00  0.00    -0.300 OA
ATOM     24  C   UNL d   1      15.074  17.360  -2.439  0.00  0.00     0.026 A 
ATOM     25  C   UNL d   1      15.131  17.076  -1.667  0.00  0.00     0.007 A 
ENDBRANCH  15  17
ENDBRANCH   1  14
TORSDOF 2
ENDMDL
MODEL 2
REMARK VINA RESULT:      51.5      1.923      3.650
REMARK  2 active torsions:
REMARK  status: ('A' for Active; 'I' for Inactive)
REMARK    1  A    between atoms: N_7  and  C_1 
REMARK       I    between atoms: C_8  and  N_7 
REMARK    2  A    between atoms: C_10  and  C_8 
ROOT
ATOM      1  C   UNL d   1      15.171  13.824  -0.129  0.00  0.00     0.159 A 
ATOM      2  N   UNL d   1      14.874  15.220  -0.322  0.00  0.00    -0.257 N 
ATOM      3  C   UNL d   1      15.688  15.388  -0.310  0.00  0.00     0.150 A 
ATOM      4  C   UNL d   1      14.627  14.433  -0.230  0.00  0.00     0.285 A 
ATOM      5  N   UNL d   1      16.251  14.779  -0.208  0.00  0.00    -0.226 NA
ATOM      6  C   UNL d   1      15.992  13.998  -0.118  0.00  0.00     0.105 A 
ATOM      7  C   UNL d   1      15.953  16.158  -0.399  0.00  0.00     0.035 A 
ATOM      8  C   UNL d   1      14.333  15.814  -0.421  0.00  0.00     0.085 A 
ATOM      9  O   UNL d   1      13.813  14.265  -0.242  0.00  0.00    -0.265 OA
ATOM     10  C   UNL d   1      14.591  16.596  -0.512  0.00  0.00     0.019 A 
ATOM     11  C   UNL d   1      15.388  16.775  -0.502  0.00  0.00     0.004 A 
ATOM     12  C   UNL d   1      16.530  13.394  -0.017  0.00  0.00     0.022 C 
ATOM     13  C   UNL d   1      16.749  16.342  -0.390  0.00  0.00     0.003 C 
ENDROOT
BRANCH   1  14
ATOM     14  N   UNL d   1      14.913  13.042  -0.038  0.00  0.00    -0.202 NA
ATOM     15  C   UNL d   1      14.476  12.685  -0.645  0.00  0.00     0.279 C 
ATOM     16  O   UNL d   1      14.584  12.168  -0.020  0.00  0.00    -0.265 OA
BRANCH  15  17
ATOM     17  C   UNL d   1      14.053  12.444  -1.314  0.00  0.00     0.060 A 
ATOM     18  C   UNL d   1      14.361  12.596  -2.060  0.00  0.00     0.031 A 
ATOM     19  C   UNL d   1      13.937  12.355  -2.730  0.00  0.00     0.119 A 
ATOM     20  O   UNL d   1      14.098  12.426  -3.539  0.00  0.00    -0.300 OA
ATOM     21  C   UNL d   1      13.217  11.969  -2.651  0.00  0.00     0.119 A 
ATOM     22  C   UNL d   1      13.470  12.080  -3.962  0.00  0.00     0.304 A 
ATOM     23  O   UNL d   1      12.920  11.796  -3.394  0.00  0.00    -0.300 OA
ATOM     24  C   UNL d   1      12.910  11.819  -1.891  0.00  0.00     0.026 A 
ATOM     25  C   UNL d   1      13.329  12.057  -1.223  0.00  0.00     0.007 A 
ENDBRANCH  15  17
ENDBRANCH   1  14
TORSDOF 2
ENDMDL
