MODEL 1
REMARK VINA RESULT:      -2.2      0.000      0.000
REMARK  7 active torsions:
REMARK  status: ('A' for Active; 'I' for Inactive)
REMARK    1  A    between atoms: C_6  and  C_1 
REMARK    2  A    between atoms: C_8  and  N_3 
REMARK    3  A    between atoms: O_7  and  C_6 
REMARK    4  A    between atoms: C_9  and  O_7 
REMARK    5  A    between atoms: C_19  and  C_8 
REMARK    6  A    between atoms: O_16  and  C_10 
REMARK    7  A    between atoms: O_18  and  C_19 
ROOT
ATOM      1  C   UNL d   1     -41.561-122.980 -52.290  0.00  0.00     0.173 A 
ATOM      2  N   UNL d   1     -41.836-123.629 -52.734  0.00  0.00    -0.225 NA
ATOM      3  N   UNL d   1     -41.411-122.346 -52.818  0.00  0.00    -0.286 N 
ATOM      4  C   UNL d   1     -41.597-122.609 -53.594  0.00  0.00     0.083 A 
ATOM      5  C   UNL d   1     -41.857-123.400 -53.534  0.00  0.00     0.099 A 
ATOM      6  C   UNL d   1     -41.566-122.247 -54.334  0.00  0.00     0.019 A 
ATOM      7  C   UNL d   1     -42.082-123.813 -54.215  0.00  0.00     0.021 A 
ATOM      8  C   UNL d   1     -41.790-122.661 -55.011  0.00  0.00     0.002 A 
ATOM      9  C   UNL d   1     -42.049-123.444 -54.952  0.00  0.00     0.002 A 
ENDROOT
BRANCH   1  10
ATOM     10  C   UNL d   1     -41.521-123.158 -51.489  0.00  0.00     0.160 C 
BRANCH  10  11
ATOM     11  O   UNL d   1     -42.153-123.544 -51.116  0.00  0.00    -0.302 OA
BRANCH  11  12
ATOM     12  C   UNL d   1     -42.174-123.610 -50.295  0.00  0.00     0.100 A 
ATOM     13  C   UNL d   1     -42.901-123.622 -49.910  0.00  0.00     0.027 A 
ATOM     14  C   UNL d   1     -42.923-123.688 -49.088  0.00  0.00     0.026 A 
ATOM     15  C   UNL d   1     -42.219-123.742 -48.654  0.00  0.00     0.094 A 
ATOM     16  C   UNL d   1     -41.497-123.729 -49.045  0.00  0.00     0.026 A 
ATOM     17  C   UNL d   1     -41.475-123.663 -49.867  0.00  0.00     0.027 A 
BRANCH  15  18
ATOM     18  O   UNL d   1     -42.241-123.807 -47.835  0.00  0.00    -0.328 OA
ATOM     19  C   UNL d   1     -42.448-123.157 -47.370  0.00  0.00     0.181 C 
ENDBRANCH  15  18
ENDBRANCH  11  12
ENDBRANCH  10  11
ENDBRANCH   1  10
BRANCH   3  20
ATOM     20  C   UNL d   1     -41.133-121.600 -52.617  0.00  0.00     0.108 C 
BRANCH  20  21
ATOM     21  C   UNL d   1     -41.463-121.189 -51.978  0.00  0.00     0.135 C 
BRANCH  21  22
ATOM     22  O   UNL d   1     -41.139-120.475 -51.740  0.00  0.00    -0.325 OA
ATOM     23  C   UNL d   1     -41.124-120.276 -50.942  0.00  0.00     0.182 C 
ENDBRANCH  21  22
ENDBRANCH  20  21
ENDBRANCH   3  20
TORSDOF 7
ENDMDL
MODEL 2
REMARK VINA RESULT:      -1.6      1.463      4.548
REMARK  7 active torsions:
REMARK  status: ('A' for Active; 'I' for Inactive)
REMARK    1  A    between atoms: C_6  and  C_1 
REMARK    2  A    between atoms: C_8  and  N_3 
REMARK    3  A    between atoms: O_7  and  C_6 
REMARK    4  A    between atoms: C_9  and  O_7 
REMARK    5  A    between atoms: C_19  and  C_8 
REMARK    6  A    between atoms: O_16  and  C_10 
REMARK    7  A    between atoms: O_18  and  C_19 
ROOT
ATOM      1  C   UNL d   1     -41.721-122.682 -51.504  0.00  0.00     0.173 A 
ATOM      2  N   UNL d   1     -42.233-123.315 -51.327  0.00  0.00    -0.225 NA
ATOM      3  N   UNL d   1     -41.602-122.239 -50.801  0.00  0.00    -0.286 N 
ATOM      4  C   UNL d   1     -42.046-122.604 -50.189  0.00  0.00     0.083 A 
ATOM      5  C   UNL d   1     -42.432-123.266 -50.521  0.00  0.00     0.099 A 
ATOM      6  C   UNL d   1     -42.153-122.431 -49.390  0.00  0.00     0.019 A 
ATOM      7  C   UNL d   1     -42.916-123.742 -50.047  0.00  0.00     0.021 A 
ATOM      8  C   UNL d   1     -42.636-122.907 -48.920  0.00  0.00     0.002 A 
ATOM      9  C   UNL d   1     -43.018-123.562 -49.249  0.00  0.00     0.002 A 
ENDROOT
BRANCH   1  10
ATOM     10  C   UNL d   1     -41.495-122.687 -52.293  0.00  0.00     0.160 C 
BRANCH  10  11
ATOM     11  O   UNL d   1     -42.047-122.869 -52.883  0.00  0.00    -0.302 OA
BRANCH  11  12
ATOM     12  C   UNL d   1     -41.901-122.661 -53.668  0.00  0.00     0.100 A 
ATOM     13  C   UNL d   1     -42.398-122.121 -54.040  0.00  0.00     0.027 A 
ATOM     14  C   UNL d   1     -42.253-121.912 -54.825  0.00  0.00     0.026 A 
ATOM     15  C   UNL d   1     -41.614-122.243 -55.234  0.00  0.00     0.094 A 
ATOM     16  C   UNL d   1     -41.123-122.782 -54.856  0.00  0.00     0.026 A 
ATOM     17  C   UNL d   1     -41.267-122.991 -54.071  0.00  0.00     0.027 A 
BRANCH  15  18
ATOM     18  O   UNL d   1     -41.470-122.035 -56.016  0.00  0.00    -0.328 OA
ATOM     19  C   UNL d   1     -42.028-121.598 -56.441  0.00  0.00     0.181 C 
ENDBRANCH  15  18
ENDBRANCH  11  12
ENDBRANCH  10  11
ENDBRANCH   1  10
BRANCH   3  20
ATOM     20  C   UNL d   1     -41.136-121.567 -50.721  0.00  0.00     0.108 C 
BRANCH  20  21
ATOM     21  C   UNL d   1     -41.234-120.927 -51.238  0.00  0.00     0.135 C 
BRANCH  21  22
ATOM     22  O   UNL d   1     -41.125-120.162 -50.966  0.00  0.00    -0.325 OA
ATOM     23  C   UNL d   1     -41.191-119.527 -51.486  0.00  0.00     0.182 C 
ENDBRANCH  21  22
ENDBRANCH  20  21
ENDBRANCH   3  20
TORSDOF 7
ENDMDL
MODEL 3
REMARK VINA RESULT:      -1.2      1.586      4.778
REMARK  7 active torsions:
REMARK  status: ('A' for Active; 'I' for Inactive)
REMARK    1  A    between atoms: C_6  and  C_1 
REMARK    2  A    between atoms: C_8  and  N_3 
REMARK    3  A    between atoms: O_7  and  C_6 
REMARK    4  A    between atoms: C_9  and  O_7 
REMARK    5  A    between atoms: C_19  and  C_8 
REMARK    6  A    between atoms: O_16  and  C_10 
REMARK    7  A    between atoms: O_18  and  C_19 
ROOT
ATOM      1  C   UNL d   1     -41.728-123.084 -50.202  0.00  0.00     0.173 A 
ATOM      2  N   UNL d   1     -41.124-123.228 -49.648  0.00  0.00    -0.225 NA
ATOM      3  N   UNL d   1     -42.466-123.180 -49.814  0.00  0.00    -0.286 N 
ATOM      4  C   UNL d   1     -42.311-123.385 -49.015  0.00  0.00     0.083 A 
ATOM      5  C   UNL d   1     -41.482-123.413 -48.920  0.00  0.00     0.099 A 
ATOM      6  C   UNL d   1     -42.798-123.548 -48.370  0.00  0.00     0.019 A 
ATOM      7  C   UNL d   1     -41.157-123.603 -48.183  0.00  0.00     0.021 A 
ATOM      8  C   UNL d   1     -42.473-123.737 -47.637  0.00  0.00     0.002 A 
ATOM      9  C   UNL d   1     -41.652-123.764 -47.543  0.00  0.00     0.002 A 
ENDROOT
BRANCH   1  10
ATOM     10  C   UNL d   1     -41.423-122.896 -50.941  0.00  0.00     0.160 C 
BRANCH  10  11
ATOM     11  O   UNL d   1     -41.462-123.446 -51.560  0.00  0.00    -0.302 OA
BRANCH  11  12
ATOM     12  C   UNL d   1     -41.377-123.200 -52.342  0.00  0.00     0.100 A 
ATOM     13  C   UNL d   1     -41.414-123.757 -52.946  0.00  0.00     0.027 A 
ATOM     14  C   UNL d   1     -41.329-123.511 -53.729  0.00  0.00     0.026 A 
ATOM     15  C   UNL d   1     -41.207-122.710 -53.904  0.00  0.00     0.094 A 
ATOM     16  C   UNL d   1     -41.171-122.160 -53.296  0.00  0.00     0.026 A 
ATOM     17  C   UNL d   1     -41.256-122.406 -52.513  0.00  0.00     0.027 A 
BRANCH  15  18
ATOM     18  O   UNL d   1     -41.123-122.466 -54.685  0.00  0.00    -0.328 OA
ATOM     19  C   UNL d   1     -41.783-122.400 -55.176  0.00  0.00     0.181 C 
ENDBRANCH  15  18
ENDBRANCH  11  12
ENDBRANCH  10  11
ENDBRANCH   1  10
BRANCH   3  20
ATOM     20  C   UNL d   1     -43.210-123.090 -50.152  0.00  0.00     0.108 C 
BRANCH  20  21
ATOM     21  C   UNL d   1     -43.669-122.422 -49.981  0.00  0.00     0.135 C 
BRANCH  21  22
ATOM     22  O   UNL d   1     -44.465-122.413 -50.175  0.00  0.00    -0.325 OA
ATOM     23  C   UNL d   1     -44.837-121.700 -50.348  0.00  0.00     0.182 C 
ENDBRANCH  21  22
ENDBRANCH  20  21
ENDBRANCH   3  20
TORSDOF 7
ENDMDL
