MODEL 1
REMARK VINA RESULT:     -10.4      0.000      0.000
REMARK  5 active torsions:
REMARK  status: ('A' for Active; 'I' for Inactive)
REMARK    1  A    between atoms: N_9  and  S_1 
REMARK    2  A    between atoms: C_12  and  S_1 
REMARK    3  A    between atoms: C_6  and  C_15 
REMARK    4  A    between atoms: C_18  and  N_9 
REMARK       I    between atoms: C_16  and  N_17 
REMARK    5  A    between atoms: N_17  and  C_23 
ROOT
ATOM      1  C   UNL d   1      53.697  32.037  53.697  0.00  0.00     0.021 A 
ATOM      2  C   UNL d   1      53.303  33.409  53.875  0.00  0.00     0.094 A 
ATOM      3  C   UNL d   1      53.108  32.608  53.842  0.00  0.00     0.021 A 
ATOM      4  C   UNL d   1      54.475  32.278  53.586  0.00  0.00     0.002 A 
ATOM      5  C   UNL d   1      54.679  33.070  53.616  0.00  0.00     0.002 A 
ATOM      6  C   UNL d   1      54.090  33.641  53.761  0.00  0.00     0.020 A 
ENDROOT
BRANCH   2   7
ATOM      7  N   UNL d   1      52.723  33.971  54.018  0.00  0.00    -0.158 NA
BRANCH   7   8
ATOM      8  S   UNL d   1      52.088  34.043  53.502  0.00  0.00     0.285 S 
ATOM      9  O   UNL d   1      51.613  33.638  54.042  0.00  0.00    -0.198 OA
ATOM     10  O   UNL d   1      52.556  34.448  52.956  0.00  0.00    -0.198 OA
BRANCH   8  11
ATOM     11  C   UNL d   1      51.447  34.116  52.980  0.00  0.00     0.105 A 
ATOM     12  C   UNL d   1      50.690  33.929  53.251  0.00  0.00     0.015 A 
ATOM     13  C   UNL d   1      50.032  33.996  52.743  0.00  0.00     0.020 A 
ATOM     14  C   UNL d   1      50.146  34.252  51.960  0.00  0.00     0.085 A 
ATOM     15  C   UNL d   1      50.903  34.439  51.690  0.00  0.00     0.020 A 
ATOM     16  C   UNL d   1      51.556  34.368  52.208  0.00  0.00     0.015 A 
BRANCH  14  17
ATOM     17  N   UNL d   1      49.514  34.320  51.461  0.00  0.00    -0.208 NA
ATOM     18  C   UNL d   1      48.911  34.845  51.633  0.00  0.00     0.279 C 
ATOM     19  O   UNL d   1      48.947  35.307  52.315  0.00  0.00    -0.265 OA
ATOM     20  C   UNL d   1      48.276  34.913  51.133  0.00  0.00     0.068 C 
ENDBRANCH  14  17
ENDBRANCH   8  11
ENDBRANCH   7   8
ENDBRANCH   2   7
BRANCH   1  21
ATOM     21  C   UNL d   1      53.487  31.238  53.668  0.00  0.00     0.102 A 
ATOM     22  N   UNL d   1      53.567  30.782  54.360  0.00  0.00    -0.162 NA
ATOM     23  N   UNL d   1      53.357  29.973  54.338  0.00  0.00    -0.189 N 
ATOM     24  C   UNL d   1      53.375  29.396  54.916  0.00  0.00     0.224 A 
ATOM     25  C   UNL d   1      53.071  29.629  53.636  0.00  0.00     0.187 A 
ATOM     26  N   UNL d   1      53.107  28.701  54.589  0.00  0.00    -0.124 NA
ATOM     27  N   UNL d   1      52.922  28.853  53.802  0.00  0.00    -0.127 NA
ATOM     28  C   UNL d   1      52.999  30.107  52.953  0.00  0.00     0.042 A 
ATOM     29  C   UNL d   1      53.208  30.910  52.975  0.00  0.00     0.024 A 
ENDBRANCH   1  21
TORSDOF 5
ENDMDL
MODEL 2
REMARK VINA RESULT:      -9.5      1.471      5.335
REMARK  5 active torsions:
REMARK  status: ('A' for Active; 'I' for Inactive)
REMARK    1  A    between atoms: N_9  and  S_1 
REMARK    2  A    between atoms: C_12  and  S_1 
REMARK    3  A    between atoms: C_6  and  C_15 
REMARK    4  A    between atoms: C_18  and  N_9 
REMARK       I    between atoms: C_16  and  N_17 
REMARK    5  A    between atoms: N_17  and  C_23 
ROOT
ATOM      1  C   UNL d   1      51.265  34.309  52.920  0.00  0.00     0.021 A 
ATOM      2  C   UNL d   1      52.502  33.581  52.835  0.00  0.00     0.094 A 
ATOM      3  C   UNL d   1      51.745  33.740  52.548  0.00  0.00     0.021 A 
ATOM      4  C   UNL d   1      51.551  34.712  53.577  0.00  0.00     0.002 A 
ATOM      5  C   UNL d   1      52.300  34.562  53.870  0.00  0.00     0.002 A 
ATOM      6  C   UNL d   1      52.781  33.993  53.498  0.00  0.00     0.020 A 
ENDROOT
BRANCH   2   7
ATOM      7  N   UNL d   1      52.976  33.020  52.468  0.00  0.00    -0.158 NA
BRANCH   7   8
ATOM      8  S   UNL d   1      53.020  32.261  52.775  0.00  0.00     0.285 S 
ATOM      9  O   UNL d   1      53.595  32.517  53.308  0.00  0.00    -0.198 OA
ATOM     10  O   UNL d   1      52.445  31.995  52.246  0.00  0.00    -0.198 OA
BRANCH   8  11
ATOM     11  C   UNL d   1      53.065  31.491  53.085  0.00  0.00     0.105 A 
ATOM     12  C   UNL d   1      53.750  31.262  53.483  0.00  0.00     0.015 A 
ATOM     13  C   UNL d   1      53.815  30.494  53.802  0.00  0.00     0.020 A 
ATOM     14  C   UNL d   1      53.183  29.961  53.714  0.00  0.00     0.085 A 
ATOM     15  C   UNL d   1      52.498  30.192  53.315  0.00  0.00     0.020 A 
ATOM     16  C   UNL d   1      52.443  30.964  53.000  0.00  0.00     0.015 A 
BRANCH  14  17
ATOM     17  N   UNL d   1      53.238  29.216  54.020  0.00  0.00    -0.208 NA
ATOM     18  C   UNL d   1      53.257  29.105  54.829  0.00  0.00     0.279 C 
ATOM     19  O   UNL d   1      53.219  29.754  55.336  0.00  0.00    -0.265 OA
ATOM     20  C   UNL d   1      53.312  28.356  55.138  0.00  0.00     0.068 C 
ENDBRANCH  14  17
ENDBRANCH   8  11
ENDBRANCH   7   8
ENDBRANCH   2   7
BRANCH   1  21
ATOM     21  C   UNL d   1      50.509  34.457  52.621  0.00  0.00     0.102 A 
ATOM     22  N   UNL d   1      50.363  34.299  51.816  0.00  0.00    -0.162 NA
ATOM     23  N   UNL d   1      49.601  34.446  51.506  0.00  0.00    -0.189 N 
ATOM     24  C   UNL d   1      49.297  34.348  50.755  0.00  0.00     0.224 A 
ATOM     25  C   UNL d   1      48.997  34.747  51.994  0.00  0.00     0.187 A 
ATOM     26  N   UNL d   1      48.518  34.580  50.763  0.00  0.00    -0.124 NA
ATOM     27  N   UNL d   1      48.341  34.824  51.529  0.00  0.00    -0.127 NA
ATOM     28  C   UNL d   1      49.167  34.899  52.799  0.00  0.00     0.042 A 
ATOM     29  C   UNL d   1      49.923  34.752  53.106  0.00  0.00     0.024 A 
ENDBRANCH   1  21
TORSDOF 5
ENDMDL
MODEL 3
REMARK VINA RESULT:      -8.6      2.282      3.422
REMARK  5 active torsions:
REMARK  status: ('A' for Active; 'I' for Inactive)
REMARK    1  A    between atoms: N_9  and  S_1 
REMARK    2  A    between atoms: C_12  and  S_1 
REMARK    3  A    between atoms: C_6  and  C_15 
REMARK    4  A    between atoms: C_18  and  N_9 
REMARK       I    between atoms: C_16  and  N_17 
REMARK    5  A    between atoms: N_17  and  C_23 
ROOT
ATOM      1  C   UNL d   1      52.239  34.240  53.089  0.00  0.00     0.021 A 
ATOM      2  C   UNL d   1      50.864  34.070  52.701  0.00  0.00     0.094 A 
ATOM      3  C   UNL d   1      51.452  34.045  53.279  0.00  0.00     0.021 A 
ATOM      4  C   UNL d   1      52.425  34.459  52.319  0.00  0.00     0.002 A 
ATOM      5  C   UNL d   1      51.850  34.487  51.737  0.00  0.00     0.002 A 
ATOM      6  C   UNL d   1      51.063  34.292  51.928  0.00  0.00     0.020 A 
ENDROOT
BRANCH   2   7
ATOM      7  N   UNL d   1      50.089  33.878  52.889  0.00  0.00    -0.158 NA
BRANCH   7   8
ATOM      8  S   UNL d   1      49.480  34.386  52.677  0.00  0.00     0.285 S 
ATOM      9  O   UNL d   1      49.617  34.824  53.362  0.00  0.00    -0.198 OA
ATOM     10  O   UNL d   1      49.336  33.953  51.989  0.00  0.00    -0.198 OA
BRANCH   8  11
ATOM     11  C   UNL d   1      48.863  34.899  52.462  0.00  0.00     0.105 A 
ATOM     12  C   UNL d   1      48.597  35.453  53.012  0.00  0.00     0.015 A 
ATOM     13  C   UNL d   1      47.979  35.977  52.817  0.00  0.00     0.020 A 
ATOM     14  C   UNL d   1      47.634  35.937  52.062  0.00  0.00     0.085 A 
ATOM     15  C   UNL d   1      47.901  35.382  51.512  0.00  0.00     0.020 A 
ATOM     16  C   UNL d   1      48.521  34.861  51.719  0.00  0.00     0.015 A 
BRANCH  14  17
ATOM     17  N   UNL d   1      47.034  36.441  51.864  0.00  0.00    -0.208 NA
ATOM     18  C   UNL d   1      46.256  36.203  51.942  0.00  0.00     0.279 C 
ATOM     19  O   UNL d   1      46.081  35.448  52.221  0.00  0.00    -0.265 OA
ATOM     20  C   UNL d   1      45.653  36.709  51.743  0.00  0.00     0.068 C 
ENDBRANCH  14  17
ENDBRANCH   8  11
ENDBRANCH   7   8
ENDBRANCH   2   7
BRANCH   1  21
ATOM     21  C   UNL d   1      52.817  34.210  53.679  0.00  0.00     0.102 A 
ATOM     22  N   UNL d   1      53.140  33.469  53.878  0.00  0.00    -0.162 NA
ATOM     23  N   UNL d   1      53.726  33.430  54.474  0.00  0.00    -0.189 N 
ATOM     24  C   UNL d   1      54.138  32.797  54.784  0.00  0.00     0.224 A 
ATOM     25  C   UNL d   1      53.981  34.121  54.862  0.00  0.00     0.187 A 
ATOM     26  N   UNL d   1      54.643  33.078  55.356  0.00  0.00    -0.124 NA
ATOM     27  N   UNL d   1      54.541  33.893  55.397  0.00  0.00    -0.127 NA
ATOM     28  C   UNL d   1      53.641  34.855  54.644  0.00  0.00     0.042 A 
ATOM     29  C   UNL d   1      53.060  34.893  54.053  0.00  0.00     0.024 A 
ENDBRANCH   1  21
TORSDOF 5
ENDMDL
MODEL 4
REMARK VINA RESULT:      -8.4      1.399      2.243
REMARK  5 active torsions:
REMARK  status: ('A' for Active; 'I' for Inactive)
REMARK    1  A    between atoms: N_9  and  S_1 
REMARK    2  A    between atoms: C_12  and  S_1 
REMARK    3  A    between atoms: C_6  and  C_15 
REMARK    4  A    between atoms: C_18  and  N_9 
REMARK       I    between atoms: C_16  and  N_17 
REMARK    5  A    between atoms: N_17  and  C_23 
ROOT
ATOM      1  C   UNL d   1      52.422  33.227  53.034  0.00  0.00     0.021 A 
ATOM      2  C   UNL d   1      51.291  34.099  53.207  0.00  0.00     0.094 A 
ATOM      3  C   UNL d   1      51.670  33.382  53.358  0.00  0.00     0.021 A 
ATOM      4  C   UNL d   1      52.783  33.795  52.562  0.00  0.00     0.002 A 
ATOM      5  C   UNL d   1      52.416  34.509  52.406  0.00  0.00     0.002 A 
ATOM      6  C   UNL d   1      51.665  34.665  52.730  0.00  0.00     0.020 A 
ENDROOT
BRANCH   2   7
ATOM      7  N   UNL d   1      50.552  34.252  53.526  0.00  0.00    -0.158 NA
BRANCH   7   8
ATOM      8  S   UNL d   1      49.946  34.520  53.042  0.00  0.00     0.285 S 
ATOM      9  O   UNL d   1      50.089  35.290  53.300  0.00  0.00    -0.198 OA
ATOM     10  O   UNL d   1      49.795  33.752  52.777  0.00  0.00    -0.198 OA
BRANCH   8  11
ATOM     11  C   UNL d   1      49.333  34.790  52.552  0.00  0.00     0.105 A 
ATOM     12  C   UNL d   1      48.848  35.402  52.820  0.00  0.00     0.015 A 
ATOM     13  C   UNL d   1      48.227  35.688  52.344  0.00  0.00     0.020 A 
ATOM     14  C   UNL d   1      48.100  35.351  51.594  0.00  0.00     0.085 A 
ATOM     15  C   UNL d   1      48.585  34.739  51.326  0.00  0.00     0.020 A 
ATOM     16  C   UNL d   1      49.205  34.460  51.812  0.00  0.00     0.015 A 
BRANCH  14  17
ATOM     17  N   UNL d   1      47.500  35.622  51.126  0.00  0.00    -0.208 NA
ATOM     18  C   UNL d   1      46.724  35.444  51.312  0.00  0.00     0.279 C 
ATOM     19  O   UNL d   1      46.551  34.988  51.976  0.00  0.00    -0.265 OA
ATOM     20  C   UNL d   1      46.120  35.717  50.842  0.00  0.00     0.068 C 
ENDBRANCH  14  17
ENDBRANCH   8  11
ENDBRANCH   7   8
ENDBRANCH   2   7
BRANCH   1  21
ATOM     21  C   UNL d   1      52.789  32.504  53.193  0.00  0.00     0.102 A 
ATOM     22  N   UNL d   1      52.465  31.813  52.860  0.00  0.00    -0.162 NA
ATOM     23  N   UNL d   1      52.830  31.078  53.016  0.00  0.00    -0.189 N 
ATOM     24  C   UNL d   1      52.645  30.321  52.773  0.00  0.00     0.224 A 
ATOM     25  C   UNL d   1      53.509  31.037  53.498  0.00  0.00     0.187 A 
ATOM     26  N   UNL d   1      53.191  29.810  53.093  0.00  0.00    -0.124 NA
ATOM     27  N   UNL d   1      53.719  30.258  53.537  0.00  0.00    -0.127 NA
ATOM     28  C   UNL d   1      53.816  31.745  53.822  0.00  0.00     0.042 A 
ATOM     29  C   UNL d   1      53.453  32.474  53.666  0.00  0.00     0.024 A 
ENDBRANCH   1  21
TORSDOF 5
ENDMDL
MODEL 5
REMARK VINA RESULT:      -7.8      2.125      6.473
REMARK  5 active torsions:
REMARK  status: ('A' for Active; 'I' for Inactive)
REMARK    1  A    between atoms: N_9  and  S_1 
REMARK    2  A    between atoms: C_12  and  S_1 
REMARK    3  A    between atoms: C_6  and  C_15 
REMARK    4  A    between atoms: C_18  and  N_9 
REMARK       I    between atoms: C_16  and  N_17 
REMARK    5  A    between atoms: N_17  and  C_23 
ROOT
ATOM      1  C   UNL d   1      48.279  35.095  51.660  0.00  0.00     0.021 A 
ATOM      2  C   UNL d   1      49.419  34.626  52.402  0.00  0.00     0.094 A 
ATOM      3  C   UNL d   1      48.684  35.000  52.382  0.00  0.00     0.021 A 
ATOM      4  C   UNL d   1      48.618  34.813  50.967  0.00  0.00     0.002 A 
ATOM      5  C   UNL d   1      49.347  34.440  50.975  0.00  0.00     0.002 A 
ATOM      6  C   UNL d   1      49.752  34.345  51.697  0.00  0.00     0.020 A 
ENDROOT
BRANCH   2   7
ATOM      7  N   UNL d   1      49.817  34.533  53.112  0.00  0.00    -0.158 NA
BRANCH   7   8
ATOM      8  S   UNL d   1      50.595  34.272  53.113  0.00  0.00     0.285 S 
ATOM      9  O   UNL d   1      50.849  35.054  53.041  0.00  0.00    -0.198 OA
ATOM     10  O   UNL d   1      50.350  33.487  53.185  0.00  0.00    -0.198 OA
BRANCH   8  11
ATOM     11  C   UNL d   1      51.383  34.008  53.113  0.00  0.00     0.105 A 
ATOM     12  C   UNL d   1      51.530  33.197  53.152  0.00  0.00     0.015 A 
ATOM     13  C   UNL d   1      52.313  32.911  53.153  0.00  0.00     0.020 A 
ATOM     14  C   UNL d   1      52.944  33.450  53.115  0.00  0.00     0.085 A 
ATOM     15  C   UNL d   1      52.796  34.261  53.077  0.00  0.00     0.020 A 
ATOM     16  C   UNL d   1      52.007  34.537  53.076  0.00  0.00     0.015 A 
BRANCH  14  17
ATOM     17  N   UNL d   1      53.706  33.181  53.116  0.00  0.00    -0.208 NA
ATOM     18  C   UNL d   1      54.088  33.036  53.825  0.00  0.00     0.279 C 
ATOM     19  O   UNL d   1      53.697  33.163  54.539  0.00  0.00    -0.265 OA
ATOM     20  C   UNL d   1      54.853  32.765  53.827  0.00  0.00     0.068 C 
ENDBRANCH  14  17
ENDBRANCH   8  11
ENDBRANCH   7   8
ENDBRANCH   2   7
BRANCH   1  21
ATOM     21  C   UNL d   1      47.543  35.472  51.656  0.00  0.00     0.102 A 
ATOM     22  N   UNL d   1      46.925  35.128  51.216  0.00  0.00    -0.162 NA
ATOM     23  N   UNL d   1      46.178  35.503  51.206  0.00  0.00    -0.189 N 
ATOM     24  C   UNL d   1      45.480  35.304  50.833  0.00  0.00     0.224 A 
ATOM     25  C   UNL d   1      46.054  36.209  51.631  0.00  0.00     0.187 A 
ATOM     26  N   UNL d   1      44.924  35.869  51.016  0.00  0.00    -0.124 NA
ATOM     27  N   UNL d   1      45.284  36.422  51.506  0.00  0.00    -0.127 NA
ATOM     28  C   UNL d   1      46.690  36.535  52.066  0.00  0.00     0.042 A 
ATOM     29  C   UNL d   1      47.431  36.163  52.075  0.00  0.00     0.024 A 
ENDBRANCH   1  21
TORSDOF 5
ENDMDL
MODEL 6
REMARK VINA RESULT:      -7.5      1.787      5.792
REMARK  5 active torsions:
REMARK  status: ('A' for Active; 'I' for Inactive)
REMARK    1  A    between atoms: N_9  and  S_1 
REMARK    2  A    between atoms: C_12  and  S_1 
REMARK    3  A    between atoms: C_6  and  C_15 
REMARK    4  A    between atoms: C_18  and  N_9 
REMARK       I    between atoms: C_16  and  N_17 
REMARK    5  A    between atoms: N_17  and  C_23 
ROOT
ATOM      1  C   UNL d   1      49.563  34.873  52.321  0.00  0.00     0.021 A 
ATOM      2  C   UNL d   1      50.888  34.429  52.664  0.00  0.00     0.094 A 
ATOM      3  C   UNL d   1      50.187  34.813  52.870  0.00  0.00     0.021 A 
ATOM      4  C   UNL d   1      49.651  34.547  51.572  0.00  0.00     0.002 A 
ATOM      5  C   UNL d   1      50.342  34.165  51.357  0.00  0.00     0.002 A 
ATOM      6  C   UNL d   1      50.966  34.104  51.905  0.00  0.00     0.020 A 
ENDROOT
BRANCH   2   7
ATOM      7  N   UNL d   1      51.502  34.370  53.203  0.00  0.00    -0.158 NA
BRANCH   7   8
ATOM      8  S   UNL d   1      51.931  33.672  53.258  0.00  0.00     0.285 S 
ATOM      9  O   UNL d   1      51.321  33.340  53.702  0.00  0.00    -0.198 OA
ATOM     10  O   UNL d   1      52.547  33.997  52.814  0.00  0.00    -0.198 OA
BRANCH   8  11
ATOM     11  C   UNL d   1      52.366  32.967  53.312  0.00  0.00     0.105 A 
ATOM     12  C   UNL d   1      52.973  32.916  53.869  0.00  0.00     0.015 A 
ATOM     13  C   UNL d   1      53.422  32.218  53.940  0.00  0.00     0.020 A 
ATOM     14  C   UNL d   1      53.252  31.572  53.444  0.00  0.00     0.085 A 
ATOM     15  C   UNL d   1      52.645  31.624  52.888  0.00  0.00     0.020 A 
ATOM     16  C   UNL d   1      52.201  32.329  52.825  0.00  0.00     0.015 A 
BRANCH  14  17
ATOM     17  N   UNL d   1      53.683  30.891  53.507  0.00  0.00    -0.208 NA
ATOM     18  C   UNL d   1      53.304  30.178  53.637  0.00  0.00     0.279 C 
ATOM     19  O   UNL d   1      52.483  30.152  53.705  0.00  0.00    -0.265 OA
ATOM     20  C   UNL d   1      53.736  29.493  53.700  0.00  0.00     0.068 C 
ENDBRANCH  14  17
ENDBRANCH   8  11
ENDBRANCH   7   8
ENDBRANCH   2   7
BRANCH   1  21
ATOM     21  C   UNL d   1      48.867  35.260  52.542  0.00  0.00     0.102 A 
ATOM     22  N   UNL d   1      48.841  35.635  53.286  0.00  0.00    -0.162 NA
ATOM     23  N   UNL d   1      48.141  36.029  53.517  0.00  0.00    -0.189 N 
ATOM     24  C   UNL d   1      47.952  36.438  54.197  0.00  0.00     0.224 A 
ATOM     25  C   UNL d   1      47.479  36.045  53.011  0.00  0.00     0.187 A 
ATOM     26  N   UNL d   1      47.189  36.709  54.128  0.00  0.00    -0.124 NA
ATOM     27  N   UNL d   1      46.905  36.464  53.396  0.00  0.00    -0.127 NA
ATOM     28  C   UNL d   1      47.528  35.662  52.269  0.00  0.00     0.042 A 
ATOM     29  C   UNL d   1      48.224  35.271  52.041  0.00  0.00     0.024 A 
ENDBRANCH   1  21
TORSDOF 5
ENDMDL
