MODEL 1
REMARK VINA RESULT:      74.9      0.000      0.000
REMARK  10 active torsions:
REMARK  status: ('A' for Active; 'I' for Inactive)
REMARK    1  A    between atoms: C_10  and  N_1 
REMARK    2  A    between atoms: S_7  and  C_2 
REMARK    3  A    between atoms: C_9  and  C_3 
REMARK       I    between atoms: C_6  and  N_8 
REMARK    4  A    between atoms: C_11  and  C_6 
REMARK    5  A    between atoms: C_15  and  S_7 
REMARK    6  A    between atoms: N_8  and  C_9 
REMARK    7  A    between atoms: C_12  and  C_15 
REMARK    8  A    between atoms: O_21  and  C_12 
REMARK    9  A    between atoms: O_22  and  C_18 
REMARK   10  A    between atoms: C_25  and  O_21 
ROOT
ATOM      1  N   UNL d   1     -55.716-101.016 -43.601  0.00  0.00    -0.268 N 
ATOM      2  C   UNL d   1     -56.405-101.402 -43.842  0.00  0.00     0.201 A 
ATOM      3  C   UNL d   1     -55.401-101.454 -42.966  0.00  0.00     0.190 A 
ATOM      4  N   UNL d   1     -56.513-102.069 -43.362  0.00  0.00    -0.121 NA
ATOM      5  N   UNL d   1     -55.900-102.104 -42.826  0.00  0.00    -0.126 NA
ENDROOT
BRANCH   3   6
ATOM      6  C   UNL d   1     -54.711-101.275 -42.548  0.00  0.00     0.141 C 
BRANCH   6   7
ATOM      7  N   UNL d   1     -54.815-101.677 -41.830  0.00  0.00    -0.203 NA
ATOM      8  C   UNL d   1     -54.860-101.250 -41.124  0.00  0.00     0.279 C 
ATOM      9  O   UNL d   1     -54.803-100.431 -41.129  0.00  0.00    -0.265 OA
BRANCH   8  10
ATOM     10  C   UNL d   1     -54.963-101.656 -40.413  0.00  0.00     0.058 A 
ATOM     11  C   UNL d   1     -54.836-102.464 -40.373  0.00  0.00     0.007 A 
ATOM     12  C   UNL d   1     -54.939-102.871 -39.662  0.00  0.00     0.024 A 
ATOM     13  C   UNL d   1     -55.173-102.453 -38.988  0.00  0.00     0.094 A 
ATOM     14  C   UNL d   1     -55.301-101.645 -39.029  0.00  0.00     0.024 A 
ATOM     15  C   UNL d   1     -55.198-101.238 -39.739  0.00  0.00     0.007 A 
BRANCH  13  16
ATOM     16  O   UNL d   1     -55.276-102.859 -38.278  0.00  0.00    -0.328 OA
ATOM     17  C   UNL d   1     -55.800-102.572 -37.718  0.00  0.00     0.181 C 
ENDBRANCH  13  16
ENDBRANCH   8  10
ENDBRANCH   6   7
ENDBRANCH   3   6
BRANCH   1  18
ATOM     18  C   UNL d   1     -55.406-100.336 -43.923  0.00  0.00     0.067 A 
ATOM     19  C   UNL d   1     -55.059-100.358 -44.668  0.00  0.00     0.018 A 
ATOM     20  C   UNL d   1     -54.744 -99.667 -44.996  0.00  0.00     0.002 A 
ATOM     21  C   UNL d   1     -54.777 -98.958 -44.577  0.00  0.00     0.000 A 
ATOM     22  C   UNL d   1     -55.125 -98.941 -43.833  0.00  0.00     0.002 A 
ATOM     23  C   UNL d   1     -55.436 -99.625 -43.508  0.00  0.00     0.018 A 
ENDBRANCH   1  18
BRANCH   2  24
ATOM     24  S   UNL d   1     -56.905-101.165 -44.458  0.00  0.00    -0.042 SA
BRANCH  24  25
ATOM     25  C   UNL d   1     -57.659-100.873 -44.295  0.00  0.00     0.107 C 
BRANCH  25  26
ATOM     26  C   UNL d   1     -57.790-100.063 -44.304  0.00  0.00     0.307 C 
ATOM     27  O   UNL d   1     -57.312 -99.573 -44.749  0.00  0.00    -0.258 OA
BRANCH  26  28
ATOM     28  O   UNL d   1     -58.409 -99.746 -43.860  0.00  0.00    -0.271 OA
BRANCH  28  29
ATOM     29  C   UNL d   1     -58.952 -99.246 -44.220  0.00  0.00     0.126 C 
ATOM     30  C   UNL d   1     -59.615 -98.994 -43.800  0.00  0.00     0.029 C 
ENDBRANCH  28  29
ENDBRANCH  26  28
ENDBRANCH  25  26
ENDBRANCH  24  25
ENDBRANCH   2  24
TORSDOF 10
ENDMDL
