MODEL 1
REMARK VINA RESULT:      -2.8      0.000      0.000
REMARK  6 active torsions:
REMARK  status: ('A' for Active; 'I' for Inactive)
REMARK    1  A    between atoms: C_11  and  N_3 
REMARK    2  A    between atoms: C_10  and  C_7 
REMARK       I    between atoms: N_19  and  C_10 
REMARK    3  A    between atoms: C_21  and  C_11 
REMARK    4  A    between atoms: N_15  and  C_23 
REMARK    5  A    between atoms: C_22  and  N_19 
REMARK    6  A    between atoms: C_23  and  C_22 
ROOT
ATOM      1  C   UNL d   1      58.913  -1.267  29.510  0.00  0.00     0.154 A 
ATOM      2  C   UNL d   1      58.338  -1.812  29.742  0.00  0.00     0.093 A 
ATOM      3  N   UNL d   1      58.649  -0.516  29.731  0.00  0.00    -0.286 N 
ATOM      4  N   UNL d   1      59.596  -1.525  29.131  0.00  0.00    -0.210 NA
ATOM      5  C   UNL d   1      58.447  -2.614  29.595  0.00  0.00     0.269 A 
ATOM      6  N   UNL d   1      59.131  -2.873  29.216  0.00  0.00    -0.258 N 
ATOM      7  C   UNL d   1      57.919  -0.593  30.096  0.00  0.00     0.124 A 
ATOM      8  C   UNL d   1      59.705  -2.328  28.984  0.00  0.00     0.152 A 
ATOM      9  C   UNL d   1      57.723  -1.393  30.105  0.00  0.00     0.030 A 
ATOM     10  C   UNL d   1      59.240  -3.675  29.069  0.00  0.00     0.084 A 
ATOM     11  O   UNL d   1      57.873  -3.158  29.828  0.00  0.00    -0.266 OA
ATOM     12  C   UNL d   1      60.389  -2.586  28.604  0.00  0.00     0.038 A 
ATOM     13  C   UNL d   1      59.925  -3.937  28.688  0.00  0.00     0.019 A 
ATOM     14  C   UNL d   1      60.500  -3.392  28.456  0.00  0.00     0.005 A 
ENDROOT
BRANCH   7  15
ATOM     15  C   UNL d   1      57.466   0.026  30.398  0.00  0.00     0.295 C 
ATOM     16  O   UNL d   1      57.225   0.645  29.913  0.00  0.00    -0.264 OA
ATOM     17  N   UNL d   1      57.254   0.019  31.201  0.00  0.00    -0.204 NA
BRANCH  17  18
ATOM     18  C   UNL d   1      56.799   0.638  31.513  0.00  0.00     0.121 C 
BRANCH  18  19
ATOM     19  C   UNL d   1      56.106   0.474  31.924  0.00  0.00     0.101 C 
BRANCH  19  20
ATOM     20  N   UNL d   1      56.092   0.523  32.748  0.00  0.00    -0.298 N 
ATOM     21  C   UNL d   1      55.370   0.465  33.153  0.00  0.00     0.107 A 
ATOM     22  C   UNL d   1      55.357   0.515  33.985  0.00  0.00     0.142 A 
ATOM     23  O   UNL d   1      56.065   0.623  34.403  0.00  0.00    -0.300 OA
ATOM     24  C   UNL d   1      56.780   0.680  33.998  0.00  0.00     0.142 A 
ATOM     25  C   UNL d   1      56.794   0.630  33.167  0.00  0.00     0.107 A 
ENDBRANCH  19  20
ENDBRANCH  18  19
ENDBRANCH  17  18
ENDBRANCH   7  15
BRANCH   3  26
ATOM     26  C   UNL d   1      59.059   0.190  29.601  0.00  0.00     0.082 C 
BRANCH  26  27
ATOM     27  C   UNL d   1      59.749   0.354  30.018  0.00  0.00     0.018 A 
ATOM     28  C   UNL d   1      60.447   0.519  29.615  0.00  0.00     0.002 A 
ATOM     29  C   UNL d   1      61.130   0.681  30.025  0.00  0.00     0.000 A 
ATOM     30  C   UNL d   1      61.131   0.682  30.851  0.00  0.00     0.000 A 
ATOM     31  C   UNL d   1      60.441   0.519  31.260  0.00  0.00     0.000 A 
ATOM     32  C   UNL d   1      59.750   0.355  30.844  0.00  0.00     0.002 A 
ENDBRANCH  26  27
ENDBRANCH   3  26
TORSDOF 6
ENDMDL
