MODEL 1
REMARK VINA RESULT:       9.8      0.000      0.000
REMARK  1 active torsions:
REMARK  status: ('A' for Active; 'I' for Inactive)
REMARK    1  A    between atoms: C_12  and  C_1 
ROOT
ATOM      1  C   UNL d   1     -51.008  25.738  33.350  0.00  0.00     0.019 A 
ATOM      2  C   UNL d   1     -51.270  24.331  33.323  0.00  0.00     0.103 A 
ATOM      3  C   UNL d   1     -51.539  25.109  33.340  0.00  0.00     0.024 A 
ATOM      4  O   UNL d   1     -50.461  24.173  33.315  0.00  0.00    -0.273 OA
ATOM      5  C   UNL d   1     -49.926  24.804  33.324  0.00  0.00     0.300 A 
ATOM      6  C   UNL d   1     -50.196  25.583  33.342  0.00  0.00     0.070 A 
ATOM      7  C   UNL d   1     -52.351  25.261  33.348  0.00  0.00     0.002 A 
ATOM      8  C   UNL d   1     -51.812  23.702  33.313  0.00  0.00     0.025 A 
ATOM      9  C   UNL d   1     -52.890  24.642  33.339  0.00  0.00     0.000 A 
ATOM     10  O   UNL d   1     -49.110  24.649  33.316  0.00  0.00    -0.259 OA
ATOM     11  C   UNL d   1     -52.619  23.859  33.321  0.00  0.00     0.002 A 
ATOM     12  C   UNL d   1     -52.628  26.038  33.366  0.00  0.00     0.000 C 
ATOM     13  C   UNL d   1     -53.166  23.234  33.311  0.00  0.00     0.000 C 
ENDROOT
BRANCH   1  14
ATOM     14  C   UNL d   1     -51.285  26.515  33.367  0.00  0.00     0.069 C 
ATOM     15 CL   UNL d   1     -50.749  27.139  33.315  0.00  0.00    -0.082 Cl
ENDBRANCH   1  14
TORSDOF 1
ENDMDL
MODEL 2
REMARK VINA RESULT:      10.2      1.670      2.885
REMARK  1 active torsions:
REMARK  status: ('A' for Active; 'I' for Inactive)
REMARK    1  A    between atoms: C_12  and  C_1 
ROOT
ATOM      1  C   UNL d   1     -51.629  23.880  33.309  0.00  0.00     0.019 A 
ATOM      2  C   UNL d   1     -52.433  25.066  33.309  0.00  0.00     0.103 A 
ATOM      3  C   UNL d   1     -51.694  24.701  33.308  0.00  0.00     0.024 A 
ATOM      4  O   UNL d   1     -53.118  24.609  33.311  0.00  0.00    -0.273 OA
ATOM      5  C   UNL d   1     -53.056  23.784  33.311  0.00  0.00     0.300 A 
ATOM      6  C   UNL d   1     -52.316  23.419  33.310  0.00  0.00     0.070 A 
ATOM      7  C   UNL d   1     -51.010  25.164  33.307  0.00  0.00     0.002 A 
ATOM      8  C   UNL d   1     -52.490  25.893  33.309  0.00  0.00     0.025 A 
ATOM      9  C   UNL d   1     -51.062  25.983  33.306  0.00  0.00     0.000 A 
ATOM     10  O   UNL d   1     -53.745  23.320  33.313  0.00  0.00    -0.259 OA
ATOM     11  C   UNL d   1     -51.805  26.350  33.307  0.00  0.00     0.002 A 
ATOM     12  C   UNL d   1     -50.266  24.806  33.306  0.00  0.00     0.000 C 
ATOM     13  C   UNL d   1     -51.856  27.178  33.306  0.00  0.00     0.000 C 
ENDROOT
BRANCH   1  14
ATOM     14  C   UNL d   1     -50.886  23.522  33.308  0.00  0.00     0.069 C 
ATOM     15 CL   UNL d   1     -50.580  23.219  34.010  0.00  0.00    -0.082 Cl
ENDBRANCH   1  14
TORSDOF 1
ENDMDL
