MODEL 1
REMARK VINA RESULT:      51.8      0.000      0.000
REMARK  9 active torsions:
REMARK  status: ('A' for Active; 'I' for Inactive)
REMARK    1  A    between atoms: N_2  and  C_1 
REMARK    2  A    between atoms: N_3  and  C_5 
REMARK    3  A    between atoms: N_16  and  C_6 
REMARK    4  A    between atoms: C_11  and  C_18 
REMARK    5  A    between atoms: O_14  and  C_11 
REMARK    6  A    between atoms: C_17  and  O_14 
REMARK    7  A    between atoms: C_19  and  N_16 
REMARK    8  A    between atoms: C_18  and  C_20 
REMARK    9  A    between atoms: C_20  and  C_19 
ROOT
ATOM      1  C   UNL d   1      60.742  49.126  50.624  0.00  0.00     0.146 A 
ATOM      2  C   UNL d   1      60.589  49.495  51.345  0.00  0.00     0.049 A 
ATOM      3  C   UNL d   1      60.788  49.139  52.043  0.00  0.00     0.128 A 
ATOM      4  C   UNL d   1      61.095  48.399  50.597  0.00  0.00     0.103 A 
ATOM      5  C   UNL d   1      61.158  48.377  52.038  0.00  0.00     0.025 A 
ATOM      6  C   UNL d   1      61.303  48.025  51.306  0.00  0.00     0.022 A 
ENDROOT
BRANCH   4   7
ATOM      7  N   UNL d   1      61.250  48.023  49.862  0.00  0.00    -0.242 NA
BRANCH   7   8
ATOM      8  C   UNL d   1      61.749  47.388  49.820  0.00  0.00     0.099 C 
BRANCH   8   9
ATOM      9  C   UNL d   1      61.714  46.868  49.185  0.00  0.00     0.026 C 
BRANCH   9  10
ATOM     10  C   UNL d   1      61.714  46.052  49.318  0.00  0.00     0.070 C 
BRANCH  10  11
ATOM     11  C   UNL d   1      62.356  45.594  49.076  0.00  0.00     0.300 C 
ATOM     12  O   UNL d   1      63.100  45.941  49.005  0.00  0.00    -0.259 OA
BRANCH  11  13
ATOM     13  O   UNL d   1      62.245  44.794  48.909  0.00  0.00    -0.273 OA
BRANCH  13  14
ATOM     14  C   UNL d   1      61.514  44.428  49.036  0.00  0.00     0.103 C 
ATOM     15  C   UNL d   1      60.906  44.872  49.376  0.00  0.00     0.027 C 
ATOM     16  C   UNL d   1      61.387  43.637  48.831  0.00  0.00     0.027 C 
ENDBRANCH  13  14
ENDBRANCH  11  13
ENDBRANCH  10  11
ENDBRANCH   9  10
ENDBRANCH   8   9
ENDBRANCH   7   8
ENDBRANCH   4   7
BRANCH   1  17
ATOM     17  N   UNL d   1      60.528  49.510  49.891  0.00  0.00    -0.112 N 
ATOM     18  O   UNL d   1      59.724  49.687  49.727  0.00  0.00    -0.532 OA
ATOM     19  O   UNL d   1      61.116  49.708  49.344  0.00  0.00    -0.532 OA
ENDBRANCH   1  17
BRANCH   3  20
ATOM     20  N   UNL d   1      60.629  49.521  52.753  0.00  0.00    -0.114 N 
ATOM     21  O   UNL d   1      59.858  49.706  52.951  0.00  0.00    -0.532 OA
ATOM     22  O   UNL d   1      61.260  49.708  53.251  0.00  0.00    -0.532 OA
ENDBRANCH   3  20
TORSDOF 9
ENDMDL
MODEL 2
REMARK VINA RESULT:      52.2      2.093      4.435
REMARK  9 active torsions:
REMARK  status: ('A' for Active; 'I' for Inactive)
REMARK    1  A    between atoms: N_2  and  C_1 
REMARK    2  A    between atoms: N_3  and  C_5 
REMARK    3  A    between atoms: N_16  and  C_6 
REMARK    4  A    between atoms: C_11  and  C_18 
REMARK    5  A    between atoms: O_14  and  C_11 
REMARK    6  A    between atoms: C_17  and  O_14 
REMARK    7  A    between atoms: C_19  and  N_16 
REMARK    8  A    between atoms: C_18  and  C_20 
REMARK    9  A    between atoms: C_20  and  C_19 
ROOT
ATOM      1  C   UNL d   1      61.438  46.692  50.302  0.00  0.00     0.146 A 
ATOM      2  C   UNL d   1      61.329  45.899  50.500  0.00  0.00     0.049 A 
ATOM      3  C   UNL d   1      60.865  45.689  51.128  0.00  0.00     0.128 A 
ATOM      4  C   UNL d   1      61.084  47.279  50.731  0.00  0.00     0.103 A 
ATOM      5  C   UNL d   1      60.485  46.287  51.591  0.00  0.00     0.025 A 
ATOM      6  C   UNL d   1      60.607  47.075  51.376  0.00  0.00     0.022 A 
ENDROOT
BRANCH   4   7
ATOM      7  N   UNL d   1      61.195  48.086  50.529  0.00  0.00    -0.242 NA
BRANCH   7   8
ATOM      8  C   UNL d   1      60.806  48.670  50.930  0.00  0.00     0.099 C 
BRANCH   8   9
ATOM      9  C   UNL d   1      60.300  49.184  50.538  0.00  0.00     0.026 C 
BRANCH   9  10
ATOM     10  C   UNL d   1      59.622  49.467  50.917  0.00  0.00     0.070 C 
BRANCH  10  11
ATOM     11  C   UNL d   1      58.922  49.567  50.492  0.00  0.00     0.300 C 
ATOM     12  O   UNL d   1      58.954  49.699  49.680  0.00  0.00    -0.259 OA
BRANCH  11  13
ATOM     13  O   UNL d   1      58.198  49.532  50.886  0.00  0.00    -0.273 OA
BRANCH  13  14
ATOM     14  C   UNL d   1      57.483  49.563  50.469  0.00  0.00     0.103 C 
ATOM     15  C   UNL d   1      56.785  49.677  50.896  0.00  0.00     0.027 C 
ATOM     16  C   UNL d   1      57.460  49.482  49.647  0.00  0.00     0.027 C 
ENDBRANCH  13  14
ENDBRANCH  11  13
ENDBRANCH  10  11
ENDBRANCH   9  10
ENDBRANCH   8   9
ENDBRANCH   7   8
ENDBRANCH   4   7
BRANCH   1  17
ATOM     17  N   UNL d   1      61.929  46.904  49.636  0.00  0.00    -0.112 N 
ATOM     18  O   UNL d   1      61.975  46.399  48.967  0.00  0.00    -0.532 OA
ATOM     19  O   UNL d   1      62.361  47.610  49.651  0.00  0.00    -0.532 OA
ENDBRANCH   1  17
BRANCH   3  20
ATOM     20  N   UNL d   1      60.767  44.894  51.311  0.00  0.00    -0.114 N 
ATOM     21  O   UNL d   1      61.076  44.596  52.006  0.00  0.00    -0.532 OA
ATOM     22  O   UNL d   1      60.355  44.414  50.781  0.00  0.00    -0.532 OA
ENDBRANCH   3  20
TORSDOF 9
ENDMDL
