MODEL 1
REMARK VINA RESULT:      -8.0      0.000      0.000
REMARK  3 active torsions:
REMARK  status: ('A' for Active; 'I' for Inactive)
REMARK    1  A    between atoms: C_7  and  C_3 
REMARK    2  A    between atoms: N_5  and  C_8 
REMARK    3  A    between atoms: C_13  and  C_7 
ROOT
ATOM      1  C   UNL d   1     -49.677  12.258  22.852  0.00  0.00     0.127 A 
ATOM      2  C   UNL d   1     -48.603  13.200  22.629  0.00  0.00     0.002 A 
ATOM      3  C   UNL d   1     -49.125  12.787  23.164  0.00  0.00     0.024 A 
ATOM      4  C   UNL d   1     -49.723  12.132  22.049  0.00  0.00     0.024 A 
ATOM      5  C   UNL d   1     -49.200  12.548  21.533  0.00  0.00     0.002 A 
ATOM      6  C   UNL d   1     -48.646  13.079  21.844  0.00  0.00     0.000 A 
ENDROOT
BRANCH   2   7
ATOM      7  C   UNL d   1     -48.056  13.725  22.948  0.00  0.00     0.011 C 
BRANCH   7   8
ATOM      8  C   UNL d   1     -47.258  13.475  23.022  0.00  0.00     0.092 A 
ATOM      9  C   UNL d   1     -46.675  13.988  22.948  0.00  0.00     0.288 A 
ATOM     10  N   UNL d   1     -45.967  13.577  23.049  0.00  0.00    -0.163 NA
ATOM     11  O   UNL d   1     -46.753  14.813  22.792  0.00  0.00    -0.265 OA
ATOM     12  C   UNL d   1     -46.146  12.799  23.187  0.00  0.00     0.313 A 
ATOM     13  S   UNL d   1     -46.942  12.707  23.176  0.00  0.00    -0.021 SA
ATOM     14  O   UNL d   1     -45.597  12.169  23.324  0.00  0.00    -0.258 OA
ENDBRANCH   7   8
ENDBRANCH   2   7
BRANCH   1  15
ATOM     15  N   UNL d   1     -50.187  11.851  23.348  0.00  0.00    -0.114 N 
ATOM     16  O   UNL d   1     -49.955  11.138  23.692  0.00  0.00    -0.532 OA
ATOM     17  O   UNL d   1     -50.927  12.154  23.501  0.00  0.00    -0.532 OA
ENDBRANCH   1  15
TORSDOF 3
ENDMDL
MODEL 2
REMARK VINA RESULT:      -7.9      1.079      3.578
REMARK  3 active torsions:
REMARK  status: ('A' for Active; 'I' for Inactive)
REMARK    1  A    between atoms: C_7  and  C_3 
REMARK    2  A    between atoms: N_5  and  C_8 
REMARK    3  A    between atoms: C_13  and  C_7 
ROOT
ATOM      1  C   UNL d   1     -46.464  13.340  22.602  0.00  0.00     0.127 A 
ATOM      2  C   UNL d   1     -47.832  13.281  22.137  0.00  0.00     0.002 A 
ATOM      3  C   UNL d   1     -47.051  12.938  22.184  0.00  0.00     0.024 A 
ATOM      4  C   UNL d   1     -46.625  14.051  22.964  0.00  0.00     0.024 A 
ATOM      5  C   UNL d   1     -47.401  14.378  22.909  0.00  0.00     0.002 A 
ATOM      6  C   UNL d   1     -47.992  13.976  22.489  0.00  0.00     0.000 A 
ENDROOT
BRANCH   2   7
ATOM      7  C   UNL d   1     -48.411  12.874  21.718  0.00  0.00     0.011 C 
BRANCH   7   8
ATOM      8  C   UNL d   1     -49.000  12.461  22.149  0.00  0.00     0.092 A 
ATOM      9  C   UNL d   1     -49.735  12.435  21.890  0.00  0.00     0.288 A 
ATOM     10  N   UNL d   1     -50.175  11.993  22.429  0.00  0.00    -0.163 NA
ATOM     11  O   UNL d   1     -50.028  12.794  21.185  0.00  0.00    -0.265 OA
ATOM     12  C   UNL d   1     -49.677  11.754  23.022  0.00  0.00     0.313 A 
ATOM     13  S   UNL d   1     -48.940  12.030  22.874  0.00  0.00    -0.021 SA
ATOM     14  O   UNL d   1     -49.883  11.287  23.698  0.00  0.00    -0.258 OA
ENDBRANCH   7   8
ENDBRANCH   2   7
BRANCH   1  15
ATOM     15  N   UNL d   1     -45.708  13.028  22.659  0.00  0.00    -0.114 N 
ATOM     16  O   UNL d   1     -45.523  12.488  23.254  0.00  0.00    -0.532 OA
ATOM     17  O   UNL d   1     -45.137  13.252  22.124  0.00  0.00    -0.532 OA
ENDBRANCH   1  15
TORSDOF 3
ENDMDL
MODEL 3
REMARK VINA RESULT:      -7.5      1.740      3.396
REMARK  3 active torsions:
REMARK  status: ('A' for Active; 'I' for Inactive)
REMARK    1  A    between atoms: C_7  and  C_3 
REMARK    2  A    between atoms: N_5  and  C_8 
REMARK    3  A    between atoms: C_13  and  C_7 
ROOT
ATOM      1  C   UNL d   1     -46.963  12.492  23.245  0.00  0.00     0.127 A 
ATOM      2  C   UNL d   1     -48.199  12.800  22.561  0.00  0.00     0.002 A 
ATOM      3  C   UNL d   1     -47.363  12.931  22.671  0.00  0.00     0.024 A 
ATOM      4  C   UNL d   1     -47.359  11.944  23.698  0.00  0.00     0.024 A 
ATOM      5  C   UNL d   1     -48.186  11.825  23.578  0.00  0.00     0.002 A 
ATOM      6  C   UNL d   1     -48.589  12.265  23.002  0.00  0.00     0.000 A 
ENDROOT
BRANCH   2   7
ATOM      7  C   UNL d   1     -48.590  13.241  21.987  0.00  0.00     0.011 C 
BRANCH   7   8
ATOM      8  C   UNL d   1     -49.081  13.874  22.235  0.00  0.00     0.092 A 
ATOM      9  C   UNL d   1     -49.739  14.039  21.849  0.00  0.00     0.288 A 
ATOM     10  N   UNL d   1     -50.094  14.682  22.224  0.00  0.00    -0.163 NA
ATOM     11  O   UNL d   1     -50.034  13.634  21.170  0.00  0.00    -0.265 OA
ATOM     12  C   UNL d   1     -49.627  14.897  22.849  0.00  0.00     0.313 A 
ATOM     13  S   UNL d   1     -48.990  14.412  22.881  0.00  0.00    -0.021 SA
ATOM     14  O   UNL d   1     -49.770  15.529  23.394  0.00  0.00    -0.258 OA
ENDBRANCH   7   8
ENDBRANCH   2   7
BRANCH   1  15
ATOM     15  N   UNL d   1     -46.160  12.603  23.367  0.00  0.00    -0.114 N 
ATOM     16  O   UNL d   1     -45.864  13.353  23.541  0.00  0.00    -0.532 OA
ATOM     17  O   UNL d   1     -45.653  11.969  23.315  0.00  0.00    -0.532 OA
ENDBRANCH   1  15
TORSDOF 3
ENDMDL
MODEL 4
REMARK VINA RESULT:      -7.5      1.538      1.986
REMARK  3 active torsions:
REMARK  status: ('A' for Active; 'I' for Inactive)
REMARK    1  A    between atoms: C_7  and  C_3 
REMARK    2  A    between atoms: N_5  and  C_8 
REMARK    3  A    between atoms: C_13  and  C_7 
ROOT
ATOM      1  C   UNL d   1     -49.570  14.151  22.464  0.00  0.00     0.127 A 
ATOM      2  C   UNL d   1     -48.612  13.097  22.712  0.00  0.00     0.002 A 
ATOM      3  C   UNL d   1     -49.053  13.775  22.985  0.00  0.00     0.024 A 
ATOM      4  C   UNL d   1     -49.659  13.880  21.701  0.00  0.00     0.024 A 
ATOM      5  C   UNL d   1     -49.216  13.208  21.444  0.00  0.00     0.002 A 
ATOM      6  C   UNL d   1     -48.697  12.830  21.968  0.00  0.00     0.000 A 
ENDROOT
BRANCH   2   7
ATOM      7  C   UNL d   1     -48.099  12.729  23.239  0.00  0.00     0.011 C 
BRANCH   7   8
ATOM      8  C   UNL d   1     -47.274  12.837  23.135  0.00  0.00     0.092 A 
ATOM      9  C   UNL d   1     -46.771  12.281  23.351  0.00  0.00     0.288 A 
ATOM     10  N   UNL d   1     -46.011  12.551  23.180  0.00  0.00    -0.163 NA
ATOM     11  O   UNL d   1     -46.969  11.538  23.698  0.00  0.00    -0.265 OA
ATOM     12  C   UNL d   1     -46.075  13.289  22.853  0.00  0.00     0.313 A 
ATOM     13  S   UNL d   1     -46.849  13.493  22.813  0.00  0.00    -0.021 SA
ATOM     14  O   UNL d   1     -45.440  13.783  22.590  0.00  0.00    -0.258 OA
ENDBRANCH   7   8
ENDBRANCH   2   7
BRANCH   1  15
ATOM     15  N   UNL d   1     -50.003  14.803  22.706  0.00  0.00    -0.114 N 
ATOM     16  O   UNL d   1     -49.835  15.552  22.402  0.00  0.00    -0.532 OA
ATOM     17  O   UNL d   1     -50.601  14.712  23.250  0.00  0.00    -0.532 OA
ENDBRANCH   1  15
TORSDOF 3
ENDMDL
