MODEL 1
REMARK VINA RESULT:      19.8      0.000      0.000
REMARK  3 active torsions:
REMARK  status: ('A' for Active; 'I' for Inactive)
REMARK    1  A    between atoms: N_2  and  C_1 
REMARK    2  A    between atoms: C_5  and  C_1 
REMARK    3  A    between atoms: C_3  and  N_2 
ROOT
ATOM      1  N   UNL d   1      59.003  49.587  50.383  0.00  0.00    -0.233 NA
ENDROOT
BRANCH   1   2
ATOM      2  C   UNL d   1      58.271  49.612  50.742  0.00  0.00     0.153 C 
ATOM      3  S   UNL d   1      58.206  49.615  51.567  0.00  0.00    -0.056 SA
BRANCH   2   4
ATOM      4  C   UNL d   1      57.586  49.634  50.284  0.00  0.00     0.109 A 
ATOM      5  N   UNL d   1      56.845  49.678  50.649  0.00  0.00    -0.242 NA
ATOM      6  C   UNL d   1      56.162  49.700  50.191  0.00  0.00     0.099 A 
ATOM      7  C   UNL d   1      56.214  49.678  49.368  0.00  0.00     0.021 A 
ATOM      8  C   UNL d   1      56.951  49.634  48.994  0.00  0.00     0.003 A 
ATOM      9  C   UNL d   1      57.639  49.612  49.453  0.00  0.00     0.021 A 
ENDBRANCH   2   4
ENDBRANCH   1   2
BRANCH   1  10
ATOM     10  C   UNL d   1      59.692  49.627  50.845  0.00  0.00     0.082 A 
ATOM     11  C   UNL d   1      60.427  49.651  50.471  0.00  0.00     0.018 A 
ATOM     12  C   UNL d   1      61.115  49.691  50.935  0.00  0.00     0.002 A 
ATOM     13  C   UNL d   1      60.481  49.636  49.651  0.00  0.00     0.002 C 
ATOM     14  C   UNL d   1      61.061  49.707  51.755  0.00  0.00     0.000 A 
ATOM     15  C   UNL d   1      60.314  49.682  52.116  0.00  0.00     0.002 A 
ATOM     16  C   UNL d   1      59.633  49.642  51.659  0.00  0.00     0.019 A 
ATOM     17  C   UNL d   1      60.253  49.697  52.941  0.00  0.00     0.000 C 
ENDBRANCH   1  10
TORSDOF 3
ENDMDL
