MODEL 1
REMARK VINA RESULT:      -7.0      0.000      0.000
REMARK  5 active torsions:
REMARK  status: ('A' for Active; 'I' for Inactive)
REMARK    1  A    between atoms: C_3  and  C_1 
REMARK       I    between atoms: N_4  and  C_1 
REMARK    2  A    between atoms: C_9  and  N_4 
REMARK    3  A    between atoms: C_5  and  O_6 
REMARK    4  A    between atoms: O_6  and  C_10 
REMARK    5  A    between atoms: C_10  and  C_9 
ROOT
ATOM      1  C   UNL d   1      53.078  32.909  53.552  0.00  0.00     0.279 C 
ATOM      2  O   UNL d   1      52.982  32.165  53.210  0.00  0.00    -0.265 OA
ATOM      3  N   UNL d   1      52.524  33.503  53.408  0.00  0.00    -0.204 NA
ENDROOT
BRANCH   3   4
ATOM      4  C   UNL d   1      51.873  33.354  52.923  0.00  0.00     0.129 C 
BRANCH   4   5
ATOM      5  C   UNL d   1      51.245  33.889  52.896  0.00  0.00     0.143 C 
BRANCH   5   6
ATOM      6  O   UNL d   1      50.836  34.010  52.190  0.00  0.00    -0.303 OA
BRANCH   6   7
ATOM      7  C   UNL d   1      50.090  34.388  52.191  0.00  0.00     0.100 A 
ATOM      8  C   UNL d   1      49.624  34.370  51.511  0.00  0.00     0.025 A 
ATOM      9  C   UNL d   1      48.892  34.736  51.501  0.00  0.00     0.002 A 
ATOM     10  C   UNL d   1      48.624  35.124  52.174  0.00  0.00     0.000 A 
ATOM     11  C   UNL d   1      49.090  35.143  52.855  0.00  0.00     0.002 A 
ATOM     12  C   UNL d   1      49.824  34.773  52.862  0.00  0.00     0.025 A 
ENDBRANCH   6   7
ENDBRANCH   5   6
ENDBRANCH   4   5
ENDBRANCH   3   4
BRANCH   1  13
ATOM     13  C   UNL d   1      53.725  33.060  54.036  0.00  0.00     0.058 A 
ATOM     14  C   UNL d   1      53.631  33.062  54.848  0.00  0.00     0.005 A 
ATOM     15  C   UNL d   1      54.280  33.213  55.335  0.00  0.00     0.000 A 
ATOM     16  C   UNL d   1      55.020  33.362  55.001  0.00  0.00     0.000 A 
ATOM     17  C   UNL d   1      55.111  33.360  54.181  0.00  0.00     0.000 A 
ATOM     18  C   UNL d   1      54.465  33.210  53.702  0.00  0.00     0.005 A 
ENDBRANCH   1  13
TORSDOF 5
ENDMDL
MODEL 2
REMARK VINA RESULT:      -6.9      1.745      4.839
REMARK  5 active torsions:
REMARK  status: ('A' for Active; 'I' for Inactive)
REMARK    1  A    between atoms: C_3  and  C_1 
REMARK       I    between atoms: N_4  and  C_1 
REMARK    2  A    between atoms: C_9  and  N_4 
REMARK    3  A    between atoms: C_5  and  O_6 
REMARK    4  A    between atoms: O_6  and  C_10 
REMARK    5  A    between atoms: C_10  and  C_9 
ROOT
ATOM      1  C   UNL d   1      51.521  34.077  52.609  0.00  0.00     0.279 C 
ATOM      2  O   UNL d   1      52.131  34.632  52.595  0.00  0.00    -0.265 OA
ATOM      3  N   UNL d   1      51.688  33.284  52.765  0.00  0.00    -0.204 NA
ENDROOT
BRANCH   3   4
ATOM      4  C   UNL d   1      52.465  33.046  52.907  0.00  0.00     0.129 C 
BRANCH   4   5
ATOM      5  C   UNL d   1      52.616  32.314  53.256  0.00  0.00     0.143 C 
BRANCH   5   6
ATOM      6  O   UNL d   1      52.978  31.714  52.821  0.00  0.00    -0.303 OA
BRANCH   6   7
ATOM      7  C   UNL d   1      53.087  30.954  53.152  0.00  0.00     0.100 A 
ATOM      8  C   UNL d   1      52.575  30.342  52.943  0.00  0.00     0.025 A 
ATOM      9  C   UNL d   1      52.673  29.595  53.262  0.00  0.00     0.002 A 
ATOM     10  C   UNL d   1      53.285  29.457  53.792  0.00  0.00     0.000 A 
ATOM     11  C   UNL d   1      53.798  30.069  54.002  0.00  0.00     0.002 A 
ATOM     12  C   UNL d   1      53.697  30.819  53.680  0.00  0.00     0.025 A 
ENDBRANCH   6   7
ENDBRANCH   5   6
ENDBRANCH   4   5
ENDBRANCH   3   4
BRANCH   1  13
ATOM     13  C   UNL d   1      50.746  34.313  52.467  0.00  0.00     0.058 A 
ATOM     14  C   UNL d   1      50.305  34.637  53.074  0.00  0.00     0.005 A 
ATOM     15  C   UNL d   1      49.527  34.874  52.934  0.00  0.00     0.000 A 
ATOM     16  C   UNL d   1      49.198  34.784  52.183  0.00  0.00     0.000 A 
ATOM     17  C   UNL d   1      49.647  34.457  51.572  0.00  0.00     0.000 A 
ATOM     18  C   UNL d   1      50.417  34.223  51.716  0.00  0.00     0.005 A 
ENDBRANCH   1  13
TORSDOF 5
ENDMDL
MODEL 3
REMARK VINA RESULT:      -6.8      1.485      1.955
REMARK  5 active torsions:
REMARK  status: ('A' for Active; 'I' for Inactive)
REMARK    1  A    between atoms: C_3  and  C_1 
REMARK       I    between atoms: N_4  and  C_1 
REMARK    2  A    between atoms: C_9  and  N_4 
REMARK    3  A    between atoms: C_5  and  O_6 
REMARK    4  A    between atoms: O_6  and  C_10 
REMARK    5  A    between atoms: C_10  and  C_9 
ROOT
ATOM      1  C   UNL d   1      52.914  32.183  53.092  0.00  0.00     0.279 C 
ATOM      2  O   UNL d   1      53.547  32.684  52.923  0.00  0.00    -0.265 OA
ATOM      3  N   UNL d   1      52.144  32.481  53.102  0.00  0.00    -0.204 NA
ENDROOT
BRANCH   3   4
ATOM      4  C   UNL d   1      52.007  33.279  52.943  0.00  0.00     0.129 C 
BRANCH   4   5
ATOM      5  C   UNL d   1      51.235  33.570  52.922  0.00  0.00     0.143 C 
BRANCH   5   6
ATOM      6  O   UNL d   1      51.056  34.236  52.469  0.00  0.00    -0.303 OA
BRANCH   6   7
ATOM      7  C   UNL d   1      50.265  34.492  52.383  0.00  0.00     0.100 A 
ATOM      8  C   UNL d   1      49.866  34.350  51.675  0.00  0.00     0.025 A 
ATOM      9  C   UNL d   1      49.092  34.595  51.580  0.00  0.00     0.002 A 
ATOM     10  C   UNL d   1      48.712  34.985  52.197  0.00  0.00     0.000 A 
ATOM     11  C   UNL d   1      49.111  35.128  52.905  0.00  0.00     0.002 A 
ATOM     12  C   UNL d   1      49.889  34.880  52.997  0.00  0.00     0.025 A 
ENDBRANCH   6   7
ENDBRANCH   5   6
ENDBRANCH   4   5
ENDBRANCH   3   4
BRANCH   1  13
ATOM     13  C   UNL d   1      53.048  31.388  53.250  0.00  0.00     0.058 A 
ATOM     14  C   UNL d   1      52.650  30.817  52.821  0.00  0.00     0.005 A 
ATOM     15  C   UNL d   1      52.783  30.018  52.979  0.00  0.00     0.000 A 
ATOM     16  C   UNL d   1      53.318  29.799  53.568  0.00  0.00     0.000 A 
ATOM     17  C   UNL d   1      53.718  30.378  53.999  0.00  0.00     0.000 A 
ATOM     18  C   UNL d   1      53.582  31.168  53.839  0.00  0.00     0.005 A 
ENDBRANCH   1  13
TORSDOF 5
ENDMDL
MODEL 4
REMARK VINA RESULT:      -6.7      1.439      2.342
REMARK  5 active torsions:
REMARK  status: ('A' for Active; 'I' for Inactive)
REMARK    1  A    between atoms: C_3  and  C_1 
REMARK       I    between atoms: N_4  and  C_1 
REMARK    2  A    between atoms: C_9  and  N_4 
REMARK    3  A    between atoms: C_5  and  O_6 
REMARK    4  A    between atoms: O_6  and  C_10 
REMARK    5  A    between atoms: C_10  and  C_9 
ROOT
ATOM      1  C   UNL d   1      51.396  34.212  52.616  0.00  0.00     0.279 C 
ATOM      2  O   UNL d   1      51.471  34.210  51.795  0.00  0.00    -0.265 OA
ATOM      3  N   UNL d   1      50.670  34.398  52.963  0.00  0.00    -0.204 NA
ENDROOT
BRANCH   3   4
ATOM      4  C   UNL d   1      50.020  34.583  52.490  0.00  0.00     0.129 C 
BRANCH   4   5
ATOM      5  C   UNL d   1      49.378  34.991  52.809  0.00  0.00     0.143 C 
BRANCH   5   6
ATOM      6  O   UNL d   1      48.739  35.197  52.330  0.00  0.00    -0.303 OA
BRANCH   6   7
ATOM      7  C   UNL d   1      48.141  35.708  52.614  0.00  0.00     0.100 A 
ATOM      8  C   UNL d   1      47.515  35.916  52.120  0.00  0.00     0.025 A 
ATOM      9  C   UNL d   1      46.925  36.416  52.388  0.00  0.00     0.002 A 
ATOM     10  C   UNL d   1      46.961  36.709  53.155  0.00  0.00     0.000 A 
ATOM     11  C   UNL d   1      47.587  36.501  53.650  0.00  0.00     0.002 A 
ATOM     12  C   UNL d   1      48.178  35.999  53.378  0.00  0.00     0.025 A 
ENDBRANCH   6   7
ENDBRANCH   5   6
ENDBRANCH   4   5
ENDBRANCH   3   4
BRANCH   1  13
ATOM     13  C   UNL d   1      52.042  34.028  53.089  0.00  0.00     0.058 A 
ATOM     14  C   UNL d   1      52.226  33.246  53.237  0.00  0.00     0.005 A 
ATOM     15  C   UNL d   1      52.875  33.060  53.712  0.00  0.00     0.000 A 
ATOM     16  C   UNL d   1      53.334  33.663  54.036  0.00  0.00     0.000 A 
ATOM     17  C   UNL d   1      53.146  34.453  53.885  0.00  0.00     0.000 A 
ATOM     18  C   UNL d   1      52.502  34.632  53.414  0.00  0.00     0.005 A 
ENDBRANCH   1  13
TORSDOF 5
ENDMDL
MODEL 5
REMARK VINA RESULT:      -6.6      0.535      4.933
REMARK  5 active torsions:
REMARK  status: ('A' for Active; 'I' for Inactive)
REMARK    1  A    between atoms: C_3  and  C_1 
REMARK       I    between atoms: N_4  and  C_1 
REMARK    2  A    between atoms: C_9  and  N_4 
REMARK    3  A    between atoms: C_5  and  O_6 
REMARK    4  A    between atoms: O_6  and  C_10 
REMARK    5  A    between atoms: C_10  and  C_9 
ROOT
ATOM      1  C   UNL d   1      50.857  34.131  52.333  0.00  0.00     0.279 C 
ATOM      2  O   UNL d   1      51.301  34.146  51.638  0.00  0.00    -0.265 OA
ATOM      3  N   UNL d   1      51.163  33.769  53.010  0.00  0.00    -0.204 NA
ENDROOT
BRANCH   3   4
ATOM      4  C   UNL d   1      51.912  33.424  52.991  0.00  0.00     0.129 C 
BRANCH   4   5
ATOM      5  C   UNL d   1      52.389  33.435  53.664  0.00  0.00     0.143 C 
BRANCH   5   6
ATOM      6  O   UNL d   1      52.995  32.882  53.751  0.00  0.00    -0.303 OA
BRANCH   6   7
ATOM      7  C   UNL d   1      53.688  33.073  54.179  0.00  0.00     0.100 A 
ATOM      8  C   UNL d   1      54.415  33.090  53.788  0.00  0.00     0.025 A 
ATOM      9  C   UNL d   1      55.099  33.276  54.197  0.00  0.00     0.002 A 
ATOM     10  C   UNL d   1      55.057  33.447  55.000  0.00  0.00     0.000 A 
ATOM     11  C   UNL d   1      54.330  33.431  55.390  0.00  0.00     0.002 A 
ATOM     12  C   UNL d   1      53.645  33.244  54.977  0.00  0.00     0.025 A 
ENDBRANCH   6   7
ENDBRANCH   5   6
ENDBRANCH   4   5
ENDBRANCH   3   4
BRANCH   1  13
ATOM     13  C   UNL d   1      50.111  34.474  52.354  0.00  0.00     0.058 A 
ATOM     14  C   UNL d   1      49.870  34.879  53.022  0.00  0.00     0.005 A 
ATOM     15  C   UNL d   1      49.121  35.225  53.044  0.00  0.00     0.000 A 
ATOM     16  C   UNL d   1      48.619  35.162  52.393  0.00  0.00     0.000 A 
ATOM     17  C   UNL d   1      48.865  34.752  51.719  0.00  0.00     0.000 A 
ATOM     18  C   UNL d   1      49.608  34.411  51.703  0.00  0.00     0.005 A 
ENDBRANCH   1  13
TORSDOF 5
ENDMDL
MODEL 6
REMARK VINA RESULT:      -6.6      2.561      3.688
REMARK  5 active torsions:
REMARK  status: ('A' for Active; 'I' for Inactive)
REMARK    1  A    between atoms: C_3  and  C_1 
REMARK       I    between atoms: N_4  and  C_1 
REMARK    2  A    between atoms: C_9  and  N_4 
REMARK    3  A    between atoms: C_5  and  O_6 
REMARK    4  A    between atoms: O_6  and  C_10 
REMARK    5  A    between atoms: C_10  and  C_9 
ROOT
ATOM      1  C   UNL d   1      52.931  30.893  52.945  0.00  0.00     0.279 C 
ATOM      2  O   UNL d   1      52.856  30.854  52.125  0.00  0.00    -0.265 OA
ATOM      3  N   UNL d   1      52.929  31.626  53.324  0.00  0.00    -0.204 NA
ENDROOT
BRANCH   3   4
ATOM      4  C   UNL d   1      52.851  32.320  52.884  0.00  0.00     0.129 C 
BRANCH   4   5
ATOM      5  C   UNL d   1      52.699  33.036  53.263  0.00  0.00     0.143 C 
BRANCH   5   6
ATOM      6  O   UNL d   1      53.284  33.618  53.300  0.00  0.00    -0.303 OA
BRANCH   6   7
ATOM      7  C   UNL d   1      53.192  34.282  53.800  0.00  0.00     0.100 A 
ATOM      8  C   UNL d   1      53.516  34.268  54.559  0.00  0.00     0.025 A 
ATOM      9  C   UNL d   1      53.432  34.912  55.056  0.00  0.00     0.002 A 
ATOM     10  C   UNL d   1      53.021  35.575  54.794  0.00  0.00     0.000 A 
ATOM     11  C   UNL d   1      52.697  35.589  54.036  0.00  0.00     0.002 A 
ATOM     12  C   UNL d   1      52.783  34.940  53.539  0.00  0.00     0.025 A 
ENDBRANCH   6   7
ENDBRANCH   5   6
ENDBRANCH   4   5
ENDBRANCH   3   4
BRANCH   1  13
ATOM     13  C   UNL d   1      53.008  30.204  53.386  0.00  0.00     0.058 A 
ATOM     14  C   UNL d   1      52.455  29.608  53.304  0.00  0.00     0.005 A 
ATOM     15  C   UNL d   1      52.531  28.915  53.746  0.00  0.00     0.000 A 
ATOM     16  C   UNL d   1      53.164  28.826  54.267  0.00  0.00     0.000 A 
ATOM     17  C   UNL d   1      53.721  29.430  54.348  0.00  0.00     0.000 A 
ATOM     18  C   UNL d   1      53.641  30.115  53.908  0.00  0.00     0.005 A 
ENDBRANCH   1  13
TORSDOF 5
ENDMDL
