MODEL 1
REMARK VINA RESULT:      18.8      0.000      0.000
REMARK  4 active torsions:
REMARK  status: ('A' for Active; 'I' for Inactive)
REMARK    1  A    between atoms: N_4  and  C_1 
REMARK    2  A    between atoms: N_9  and  N_4 
REMARK    3  A    between atoms: C_8  and  C_7 
REMARK    4  A    between atoms: C_10  and  N_9 
ROOT
ATOM      1  N   UNL d   1      45.861 -16.621  43.497  0.00  0.00    -0.146 NA
ENDROOT
BRANCH   1   2
ATOM      2  C   UNL d   1      45.576 -16.017  43.981  0.00  0.00     0.122 A 
ATOM      3  C   UNL d   1      45.067 -16.085  44.637  0.00  0.00     0.101 A 
ATOM      4  N   UNL d   1      44.927 -15.365  44.953  0.00  0.00    -0.244 NA
ATOM      5  C   UNL d   1      44.758 -16.761  44.918  0.00  0.00     0.022 C 
ATOM      6  C   UNL d   1      45.332 -14.813  44.523  0.00  0.00     0.083 A 
ATOM      7  C   UNL d   1      45.751 -15.215  43.899  0.00  0.00     0.039 A 
ATOM      8  C   UNL d   1      45.409 -14.005  44.570  0.00  0.00     0.019 A 
ATOM      9  C   UNL d   1      46.225 -14.779  43.357  0.00  0.00     0.003 A 
ATOM     10  C   UNL d   1      46.283 -13.949  43.434  0.00  0.00     0.000 A 
ATOM     11  C   UNL d   1      45.868 -13.583  44.045  0.00  0.00     0.002 A 
ENDBRANCH   1   2
BRANCH   1  12
ATOM     12  N   UNL d   1      45.905 -17.403  43.788  0.00  0.00    -0.148 NA
BRANCH  12  13
ATOM     13  C   UNL d   1      46.140 -18.051  43.312  0.00  0.00     0.109 A 
ATOM     14  C   UNL d   1      46.400 -18.744  43.643  0.00  0.00     0.084 A 
ATOM     15  C   UNL d   1      46.629 -19.375  43.161  0.00  0.00     0.008 A 
ATOM     16  C   UNL d   1      46.586 -19.282  42.316  0.00  0.00     0.000 A 
ATOM     17  C   UNL d   1      46.313 -18.554  41.993  0.00  0.00     0.002 A 
ATOM     18  C   UNL d   1      46.094 -17.950  42.518  0.00  0.00     0.021 A 
BRANCH  14  19
ATOM     19  C   UNL d   1      46.437 -18.820  44.456  0.00  0.00     0.212 C 
ATOM     20  O   UNL d   1      46.296 -19.538  44.823  0.00  0.00    -0.644 OA
ATOM     21  O   UNL d   1      46.618 -18.176  44.946  0.00  0.00    -0.644 OA
ENDBRANCH  14  19
ENDBRANCH  12  13
ENDBRANCH   1  12
TORSDOF 4
ENDMDL
MODEL 2
REMARK VINA RESULT:      19.2      1.259      3.952
REMARK  4 active torsions:
REMARK  status: ('A' for Active; 'I' for Inactive)
REMARK    1  A    between atoms: N_4  and  C_1 
REMARK    2  A    between atoms: N_9  and  N_4 
REMARK    3  A    between atoms: C_8  and  C_7 
REMARK    4  A    between atoms: C_10  and  N_9 
ROOT
ATOM      1  N   UNL d   1      46.463 -16.839  43.689  0.00  0.00    -0.146 NA
ENDROOT
BRANCH   1   2
ATOM      2  C   UNL d   1      46.426 -17.657  43.585  0.00  0.00     0.122 A 
ATOM      3  C   UNL d   1      46.347 -18.243  44.172  0.00  0.00     0.101 A 
ATOM      4  N   UNL d   1      46.334 -18.968  43.837  0.00  0.00    -0.244 NA
ATOM      5  C   UNL d   1      46.290 -18.114  44.954  0.00  0.00     0.022 C 
ATOM      6  C   UNL d   1      46.404 -18.882  43.036  0.00  0.00     0.083 A 
ATOM      7  C   UNL d   1      46.464 -18.050  42.861  0.00  0.00     0.039 A 
ATOM      8  C   UNL d   1      46.427 -19.402  42.411  0.00  0.00     0.019 A 
ATOM      9  C   UNL d   1      46.543 -17.788  42.064  0.00  0.00     0.003 A 
ATOM     10  C   UNL d   1      46.563 -18.351  41.446  0.00  0.00     0.000 A 
ATOM     11  C   UNL d   1      46.503 -19.149  41.641  0.00  0.00     0.002 A 
ENDBRANCH   1   2
BRANCH   1  12
ATOM     12  N   UNL d   1      45.836 -16.439  44.069  0.00  0.00    -0.148 NA
BRANCH  12  13
ATOM     13  C   UNL d   1      45.871 -15.624  44.263  0.00  0.00     0.109 A 
ATOM     14  C   UNL d   1      45.243 -15.249  44.615  0.00  0.00     0.084 A 
ATOM     15  C   UNL d   1      45.292 -14.446  44.801  0.00  0.00     0.008 A 
ATOM     16  C   UNL d   1      46.008 -14.024  44.617  0.00  0.00     0.000 A 
ATOM     17  C   UNL d   1      46.647 -14.433  44.252  0.00  0.00     0.002 A 
ATOM     18  C   UNL d   1      46.550 -15.240  44.085  0.00  0.00     0.021 A 
BRANCH  14  19
ATOM     19  C   UNL d   1      44.562 -15.666  44.786  0.00  0.00     0.212 C 
ATOM     20  O   UNL d   1      43.830 -15.298  44.799  0.00  0.00    -0.644 OA
ATOM     21  O   UNL d   1      44.577 -16.477  44.954  0.00  0.00    -0.644 OA
ENDBRANCH  14  19
ENDBRANCH  12  13
ENDBRANCH   1  12
TORSDOF 4
ENDMDL
