MODEL 1
REMARK VINA RESULT:      75.3      0.000      0.000
REMARK  6 active torsions:
REMARK  status: ('A' for Active; 'I' for Inactive)
REMARK    1  A    between atoms: C_2  and  S_1 
REMARK    2  A    between atoms: N_3  and  S_1 
REMARK    3  A    between atoms: C_5  and  C_6 
REMARK    4  A    between atoms: O_13  and  C_5 
REMARK    5  A    between atoms: C_22  and  O_13 
REMARK    6  A    between atoms: C_21  and  C_22 
ROOT
ATOM      1  C   UNL d   1     -54.974-100.255 -43.751  0.00  0.00     0.104 A 
ATOM      2  C   UNL d   1     -54.947-100.497 -42.963  0.00  0.00     0.018 A 
ATOM      3  C   UNL d   1     -54.827 -99.941 -42.363  0.00  0.00     0.064 A 
ATOM      4  C   UNL d   1     -54.882 -99.464 -43.935  0.00  0.00     0.012 A 
ATOM      5  C   UNL d   1     -54.735 -99.143 -42.552  0.00  0.00     0.005 A 
ATOM      6  C   UNL d   1     -54.764 -98.913 -43.340  0.00  0.00     0.001 A 
ATOM      7  C   UNL d   1     -54.909 -99.222 -44.723  0.00  0.00     0.001 C 
ENDROOT
BRANCH   3   8
ATOM      8  C   UNL d   1     -54.800-100.182 -41.575  0.00  0.00     0.300 C 
ATOM      9  O   UNL d   1     -54.856 -99.620 -40.971  0.00  0.00    -0.259 OA
BRANCH   8  10
ATOM     10  O   UNL d   1     -54.718-100.980 -41.390  0.00  0.00    -0.271 OA
BRANCH  10  11
ATOM     11  C   UNL d   1     -55.321-101.373 -40.994  0.00  0.00     0.126 C 
BRANCH  11  12
ATOM     12  C   UNL d   1     -55.181-101.711 -40.254  0.00  0.00     0.027 A 
ATOM     13  C   UNL d   1     -55.088-101.235 -39.600  0.00  0.00     0.028 A 
ATOM     14  C   UNL d   1     -54.948-101.568 -38.857  0.00  0.00     0.119 A 
ATOM     15  O   UNL d   1     -54.832-101.235 -38.104  0.00  0.00    -0.300 OA
ATOM     16  C   UNL d   1     -54.903-102.391 -38.783  0.00  0.00     0.119 A 
ATOM     17  C   UNL d   1     -54.716-101.859 -37.568  0.00  0.00     0.304 A 
ATOM     18  O   UNL d   1     -54.760-102.568 -37.988  0.00  0.00    -0.300 OA
ATOM     19  C   UNL d   1     -54.997-102.879 -39.449  0.00  0.00     0.026 A 
ATOM     20  C   UNL d   1     -55.137-102.533 -40.185  0.00  0.00     0.004 A 
ENDBRANCH  11  12
ENDBRANCH  10  11
ENDBRANCH   8  10
ENDBRANCH   3   8
BRANCH   1  21
ATOM     21  S   UNL d   1     -55.094-100.809 -44.348  0.00  0.00     0.271 S 
ATOM     22  O   UNL d   1     -55.430-100.216 -44.831  0.00  0.00    -0.200 OA
ATOM     23  O   UNL d   1     -54.714-101.479 -43.802  0.00  0.00    -0.200 OA
BRANCH  21  24
ATOM     24  N   UNL d   1     -55.190-101.399 -44.910  0.00  0.00    -0.229 N 
ATOM     25  C   UNL d   1     -55.557-101.233 -45.628  0.00  0.00     0.092 A 
ATOM     26  C   UNL d   1     -55.651-101.832 -46.189  0.00  0.00     0.020 A 
ATOM     27  C   UNL d   1     -55.379-102.589 -46.030  0.00  0.00     0.003 A 
ATOM     28  C   UNL d   1     -55.014-102.750 -45.314  0.00  0.00     0.020 A 
ATOM     29  C   UNL d   1     -54.920-102.161 -44.757  0.00  0.00     0.092 A 
ENDBRANCH  21  24
ENDBRANCH   1  21
TORSDOF 6
ENDMDL
