MODEL 1
REMARK VINA RESULT:      62.0      0.000      0.000
REMARK  8 active torsions:
REMARK  status: ('A' for Active; 'I' for Inactive)
REMARK    1  A    between atoms: C_5  and  C_1 
REMARK    2  A    between atoms: C_9  and  N_2 
REMARK    3  A    between atoms: C_8  and  C_5 
REMARK    4  A    between atoms: C_7  and  C_9 
REMARK       I    between atoms: N_12  and  C_7 
REMARK       I    between atoms: N_10  and  C_8 
REMARK    5  A    between atoms: C_20  and  N_10 
REMARK    6  A    between atoms: C_11  and  C_20 
REMARK    7  A    between atoms: C_23  and  N_12 
REMARK    8  A    between atoms: C_24  and  N_12 
ROOT
ATOM      1  C   UNL d   1     -50.289  25.683  33.465  0.00  0.00     0.063 A 
ATOM      2  N   UNL d   1     -51.225  24.725  33.434  0.00  0.00    -0.300 N 
ATOM      3  C   UNL d   1     -51.113  25.541  33.479  0.00  0.00     0.084 A 
ATOM      4  C   UNL d   1     -49.905  24.955  33.412  0.00  0.00     0.021 A 
ATOM      5  C   UNL d   1     -50.491  24.360  33.393  0.00  0.00     0.064 A 
ATOM      6  C   UNL d   1     -49.115  24.751  33.379  0.00  0.00     0.002 A 
ATOM      7  C   UNL d   1     -50.263  23.569  33.341  0.00  0.00     0.018 A 
ATOM      8  C   UNL d   1     -48.885  23.956  33.326  0.00  0.00     0.000 A 
ATOM      9  C   UNL d   1     -49.465  23.369  33.307  0.00  0.00     0.002 A 
ENDROOT
BRANCH   1  10
ATOM     10  C   UNL d   1     -49.930  26.423  33.499  0.00  0.00     0.254 C 
ATOM     11  O   UNL d   1     -49.129  26.496  33.306  0.00  0.00    -0.281 OA
BRANCH  10  12
ATOM     12  C   UNL d   1     -50.361  27.089  33.722  0.00  0.00     0.318 C 
ATOM     13  N   UNL d   1     -50.015  27.655  34.212  0.00  0.00    -0.202 NA
ATOM     14  O   UNL d   1     -51.133  27.179  33.452  0.00  0.00    -0.262 OA
BRANCH  13  15
ATOM     15  C   UNL d   1     -49.250  27.555  34.473  0.00  0.00     0.127 C 
BRANCH  15  16
ATOM     16  C   UNL d   1     -48.896  28.130  34.935  0.00  0.00     0.119 A 
ATOM     17  O   UNL d   1     -49.277  28.748  35.332  0.00  0.00    -0.304 OA
ATOM     18  C   UNL d   1     -48.712  29.200  35.732  0.00  0.00     0.123 A 
ATOM     19  C   UNL d   1     -47.964  28.860  35.585  0.00  0.00     0.029 A 
ATOM     20  C   UNL d   1     -48.078  28.211  35.100  0.00  0.00     0.028 A 
ENDBRANCH  15  16
ENDBRANCH  13  15
ENDBRANCH  10  12
ENDBRANCH   1  10
BRANCH   2  21
ATOM     21  C   UNL d   1     -51.955  24.341  33.431  0.00  0.00     0.142 C 
BRANCH  21  22
ATOM     22  C   UNL d   1     -52.347  24.194  34.136  0.00  0.00     0.282 C 
ATOM     23  N   UNL d   1     -53.166  24.097  34.143  0.00  0.00    -0.271 N 
ATOM     24  O   UNL d   1     -51.919  24.143  34.842  0.00  0.00    -0.265 OA
BRANCH  23  25
ATOM     25  C   UNL d   1     -53.557  23.949  34.857  0.00  0.00     0.083 C 
ATOM     26  C   UNL d   1     -53.842  23.192  35.020  0.00  0.00     0.021 C 
ENDBRANCH  23  25
BRANCH  23  27
ATOM     27  C   UNL d   1     -53.594  24.148  33.441  0.00  0.00     0.083 C 
ATOM     28  C   UNL d   1     -54.122  24.765  33.326  0.00  0.00     0.021 C 
ENDBRANCH  23  27
ENDBRANCH  21  22
ENDBRANCH   2  21
TORSDOF 8
ENDMDL
