MODEL 1
REMARK VINA RESULT:      -4.0      0.000      0.000
REMARK  8 active torsions:
REMARK  status: ('A' for Active; 'I' for Inactive)
REMARK    1  A    between atoms: C_7  and  C_2 
REMARK    2  A    between atoms: C_12  and  N_3 
REMARK    3  A    between atoms: O_9  and  C_6 
REMARK    4  A    between atoms: O_22  and  C_7 
REMARK    5  A    between atoms: C_8  and  N_11 
REMARK    6  A    between atoms: C_20  and  O_9 
REMARK    7  A    between atoms: C_10  and  C_20 
REMARK       I    between atoms: N_11  and  C_10 
REMARK    8  A    between atoms: C_27  and  O_22 
ROOT
ATOM      1  N   UNL d   1     -40.064  15.336  19.330  0.00  0.00    -0.155 NA
ATOM      2  C   UNL d   1     -40.493  15.049  19.968  0.00  0.00     0.187 A 
ATOM      3  N   UNL d   1     -40.097  14.940  18.605  0.00  0.00    -0.194 N 
ATOM      4  C   UNL d   1     -40.559  14.261  18.526  0.00  0.00     0.282 A 
ATOM      5  C   UNL d   1     -40.988  13.978  19.171  0.00  0.00     0.089 A 
ATOM      6  C   UNL d   1     -40.955  14.370  19.889  0.00  0.00     0.130 A 
ATOM      7  O   UNL d   1     -40.592  13.865  17.801  0.00  0.00    -0.265 OA
ENDROOT
BRANCH   6   8
ATOM      8  O   UNL d   1     -41.383  14.087  20.535  0.00  0.00    -0.298 OA
BRANCH   8   9
ATOM      9  C   UNL d   1     -41.811  13.390  20.475  0.00  0.00     0.185 C 
BRANCH   9  10
ATOM     10  C   UNL d   1     -42.349  13.189  21.070  0.00  0.00     0.304 C 
ATOM     11  N   UNL d   1     -43.080  12.867  20.870  0.00  0.00    -0.206 NA
ATOM     12  O   UNL d   1     -42.151  13.312  21.859  0.00  0.00    -0.263 OA
BRANCH  11  13
ATOM     13  C   UNL d   1     -43.618  12.666  21.465  0.00  0.00     0.085 A 
ATOM     14  C   UNL d   1     -44.291  13.108  21.579  0.00  0.00     0.019 A 
ATOM     15  C   UNL d   1     -44.831  12.920  22.164  0.00  0.00     0.002 A 
ATOM     16  C   UNL d   1     -45.499  13.368  22.269  0.00  0.00     0.000 C 
ATOM     17  C   UNL d   1     -44.683  12.260  22.651  0.00  0.00     0.000 A 
ATOM     18  C   UNL d   1     -44.006  11.815  22.537  0.00  0.00     0.002 A 
ATOM     19  C   UNL d   1     -43.474  12.014  21.949  0.00  0.00     0.019 A 
ATOM     20  C   UNL d   1     -43.863  11.162  23.022  0.00  0.00     0.000 C 
ENDBRANCH  11  13
ENDBRANCH   9  10
ENDBRANCH   8   9
ENDBRANCH   6   8
BRANCH   2  21
ATOM     21  C   UNL d   1     -40.460  15.441  20.685  0.00  0.00     0.322 C 
ATOM     22  O   UNL d   1     -41.094  15.908  20.931  0.00  0.00    -0.257 OA
BRANCH  21  23
ATOM     23  O   UNL d   1     -39.792  15.375  21.172  0.00  0.00    -0.270 OA
BRANCH  23  24
ATOM     24  C   UNL d   1     -39.652  15.922  21.766  0.00  0.00     0.126 C 
ATOM     25  C   UNL d   1     -39.044  15.796  22.309  0.00  0.00     0.029 C 
ENDBRANCH  23  24
ENDBRANCH  21  23
ENDBRANCH   2  21
BRANCH   3  26
ATOM     26  C   UNL d   1     -39.669  15.225  17.963  0.00  0.00     0.086 A 
ATOM     27  C   UNL d   1     -40.058  15.598  17.347  0.00  0.00     0.019 A 
ATOM     28  C   UNL d   1     -39.631  15.886  16.702  0.00  0.00     0.002 A 
ATOM     29  C   UNL d   1     -38.804  15.796  16.675  0.00  0.00     0.000 A 
ATOM     30  C   UNL d   1     -38.419  15.418  17.300  0.00  0.00     0.002 A 
ATOM     31  C   UNL d   1     -38.842  15.136  17.936  0.00  0.00     0.019 A 
ENDBRANCH   3  26
TORSDOF 8
ENDMDL
MODEL 2
REMARK VINA RESULT:      -3.4      1.999      6.715
REMARK  8 active torsions:
REMARK  status: ('A' for Active; 'I' for Inactive)
REMARK    1  A    between atoms: C_7  and  C_2 
REMARK    2  A    between atoms: C_12  and  N_3 
REMARK    3  A    between atoms: O_9  and  C_6 
REMARK    4  A    between atoms: O_22  and  C_7 
REMARK    5  A    between atoms: C_8  and  N_11 
REMARK    6  A    between atoms: C_20  and  O_9 
REMARK    7  A    between atoms: C_10  and  C_20 
REMARK       I    between atoms: N_11  and  C_10 
REMARK    8  A    between atoms: C_27  and  O_22 
ROOT
ATOM      1  N   UNL d   1     -45.392  11.943  23.030  0.00  0.00    -0.155 NA
ATOM      2  C   UNL d   1     -44.634  11.979  22.717  0.00  0.00     0.187 A 
ATOM      3  N   UNL d   1     -45.971  12.466  22.756  0.00  0.00    -0.194 N 
ATOM      4  C   UNL d   1     -45.787  13.019  22.173  0.00  0.00     0.282 A 
ATOM      5  C   UNL d   1     -45.023  13.050  21.863  0.00  0.00     0.089 A 
ATOM      6  C   UNL d   1     -44.449  12.533  22.134  0.00  0.00     0.130 A 
ATOM      7  O   UNL d   1     -46.366  13.542  21.900  0.00  0.00    -0.265 OA
ENDROOT
BRANCH   6   8
ATOM      8  O   UNL d   1     -43.685  12.564  21.823  0.00  0.00    -0.298 OA
BRANCH   8   9
ATOM      9  C   UNL d   1     -43.484  13.137  21.271  0.00  0.00     0.185 C 
BRANCH   9  10
ATOM     10  C   UNL d   1     -42.693  13.233  21.052  0.00  0.00     0.304 C 
ATOM     11  N   UNL d   1     -42.331  13.967  21.139  0.00  0.00    -0.206 NA
ATOM     12  O   UNL d   1     -42.271  12.595  20.749  0.00  0.00    -0.263 OA
BRANCH  11  13
ATOM     13  C   UNL d   1     -41.539  14.064  20.921  0.00  0.00     0.085 A 
ATOM     14  C   UNL d   1     -41.342  14.251  20.154  0.00  0.00     0.019 A 
ATOM     15  C   UNL d   1     -40.563  14.349  19.926  0.00  0.00     0.002 A 
ATOM     16  C   UNL d   1     -40.379  14.537  19.158  0.00  0.00     0.000 C 
ATOM     17  C   UNL d   1     -39.962  14.254  20.495  0.00  0.00     0.000 A 
ATOM     18  C   UNL d   1     -40.158  14.065  21.265  0.00  0.00     0.002 A 
ATOM     19  C   UNL d   1     -40.941  13.969  21.482  0.00  0.00     0.019 A 
ATOM     20  C   UNL d   1     -39.560  13.971  21.826  0.00  0.00     0.000 C 
ENDBRANCH  11  13
ENDBRANCH   9  10
ENDBRANCH   8   9
ENDBRANCH   6   8
BRANCH   2  21
ATOM     21  C   UNL d   1     -44.060  11.462  22.987  0.00  0.00     0.322 C 
ATOM     22  O   UNL d   1     -43.343  11.753  23.274  0.00  0.00    -0.257 OA
BRANCH  21  23
ATOM     23  O   UNL d   1     -44.192  10.643  22.977  0.00  0.00    -0.270 OA
BRANCH  23  24
ATOM     24  C   UNL d   1     -43.798  10.151  23.500  0.00  0.00     0.126 C 
ATOM     25  C   UNL d   1     -44.030   9.364  23.581  0.00  0.00     0.029 C 
ENDBRANCH  23  24
ENDBRANCH  21  23
ENDBRANCH   2  21
BRANCH   3  26
ATOM     26  C   UNL d   1     -46.732  12.432  23.068  0.00  0.00     0.086 A 
ATOM     27  C   UNL d   1     -47.072  13.105  23.385  0.00  0.00     0.019 A 
ATOM     28  C   UNL d   1     -47.835  13.076  23.698  0.00  0.00     0.002 A 
ATOM     29  C   UNL d   1     -48.261  12.360  23.692  0.00  0.00     0.000 A 
ATOM     30  C   UNL d   1     -47.911  11.685  23.371  0.00  0.00     0.002 A 
ATOM     31  C   UNL d   1     -47.158  11.717  23.062  0.00  0.00     0.019 A 
ENDBRANCH   3  26
TORSDOF 8
ENDMDL
MODEL 3
REMARK VINA RESULT:      -1.6      2.264      6.960
REMARK  8 active torsions:
REMARK  status: ('A' for Active; 'I' for Inactive)
REMARK    1  A    between atoms: C_7  and  C_2 
REMARK    2  A    between atoms: C_12  and  N_3 
REMARK    3  A    between atoms: O_9  and  C_6 
REMARK    4  A    between atoms: O_22  and  C_7 
REMARK    5  A    between atoms: C_8  and  N_11 
REMARK    6  A    between atoms: C_20  and  O_9 
REMARK    7  A    between atoms: C_10  and  C_20 
REMARK       I    between atoms: N_11  and  C_10 
REMARK    8  A    between atoms: C_27  and  O_22 
ROOT
ATOM      1  N   UNL d   1     -45.988  11.974  23.108  0.00  0.00    -0.155 NA
ATOM      2  C   UNL d   1     -45.197  12.039  22.899  0.00  0.00     0.187 A 
ATOM      3  N   UNL d   1     -46.541  12.494  22.779  0.00  0.00    -0.194 N 
ATOM      4  C   UNL d   1     -46.297  13.074  22.245  0.00  0.00     0.282 A 
ATOM      5  C   UNL d   1     -45.500  13.134  22.040  0.00  0.00     0.089 A 
ATOM      6  C   UNL d   1     -44.952  12.619  22.365  0.00  0.00     0.130 A 
ATOM      7  O   UNL d   1     -46.849  13.594  21.917  0.00  0.00    -0.265 OA
ENDROOT
BRANCH   6   8
ATOM      8  O   UNL d   1     -44.156  12.679  22.160  0.00  0.00    -0.298 OA
BRANCH   8   9
ATOM      9  C   UNL d   1     -43.938  12.969  21.423  0.00  0.00     0.185 C 
BRANCH   9  10
ATOM     10  C   UNL d   1     -43.237  13.401  21.346  0.00  0.00     0.304 C 
ATOM     11  N   UNL d   1     -42.569  13.044  21.025  0.00  0.00    -0.206 NA
ATOM     12  O   UNL d   1     -43.212  14.187  21.591  0.00  0.00    -0.263 OA
BRANCH  11  13
ATOM     13  C   UNL d   1     -41.868  13.477  20.948  0.00  0.00     0.085 A 
ATOM     14  C   UNL d   1     -41.274  13.402  21.500  0.00  0.00     0.019 A 
ATOM     15  C   UNL d   1     -40.577  13.825  21.434  0.00  0.00     0.002 A 
ATOM     16  C   UNL d   1     -39.992  13.743  21.990  0.00  0.00     0.000 C 
ATOM     17  C   UNL d   1     -40.478  14.341  20.788  0.00  0.00     0.000 A 
ATOM     18  C   UNL d   1     -41.074  14.416  20.233  0.00  0.00     0.002 A 
ATOM     19  C   UNL d   1     -41.767  13.988  20.309  0.00  0.00     0.019 A 
ATOM     20  C   UNL d   1     -40.972  14.928  19.594  0.00  0.00     0.000 C 
ENDBRANCH  11  13
ENDBRANCH   9  10
ENDBRANCH   8   9
ENDBRANCH   6   8
BRANCH   2  21
ATOM     21  C   UNL d   1     -44.650  11.525  23.224  0.00  0.00     0.322 C 
ATOM     22  O   UNL d   1     -44.019  11.818  23.667  0.00  0.00    -0.257 OA
BRANCH  21  23
ATOM     23  O   UNL d   1     -44.723  10.706  23.113  0.00  0.00    -0.270 OA
BRANCH  23  24
ATOM     24  C   UNL d   1     -44.431  10.183  23.671  0.00  0.00     0.126 C 
ATOM     25  C   UNL d   1     -44.313   9.391  23.472  0.00  0.00     0.029 C 
ENDBRANCH  23  24
ENDBRANCH  21  23
ENDBRANCH   2  21
BRANCH   3  26
ATOM     26  C   UNL d   1     -47.335  12.432  22.986  0.00  0.00     0.086 A 
ATOM     27  C   UNL d   1     -47.669  12.985  23.487  0.00  0.00     0.019 A 
ATOM     28  C   UNL d   1     -48.465  12.926  23.697  0.00  0.00     0.002 A 
ATOM     29  C   UNL d   1     -48.930  12.302  23.400  0.00  0.00     0.000 A 
ATOM     30  C   UNL d   1     -48.585  11.747  22.894  0.00  0.00     0.002 A 
ATOM     31  C   UNL d   1     -47.799  11.808  22.688  0.00  0.00     0.019 A 
ENDBRANCH   3  26
TORSDOF 8
ENDMDL
MODEL 4
REMARK VINA RESULT:      -1.4      3.970      8.138
REMARK  8 active torsions:
REMARK  status: ('A' for Active; 'I' for Inactive)
REMARK    1  A    between atoms: C_7  and  C_2 
REMARK    2  A    between atoms: C_12  and  N_3 
REMARK    3  A    between atoms: O_9  and  C_6 
REMARK    4  A    between atoms: O_22  and  C_7 
REMARK    5  A    between atoms: C_8  and  N_11 
REMARK    6  A    between atoms: C_20  and  O_9 
REMARK    7  A    between atoms: C_10  and  C_20 
REMARK       I    between atoms: N_11  and  C_10 
REMARK    8  A    between atoms: C_27  and  O_22 
ROOT
ATOM      1  N   UNL d   1     -48.843  13.735  23.244  0.00  0.00    -0.155 NA
ATOM      2  C   UNL d   1     -48.131  13.333  23.163  0.00  0.00     0.187 A 
ATOM      3  N   UNL d   1     -48.922  14.492  22.920  0.00  0.00    -0.194 N 
ATOM      4  C   UNL d   1     -48.289  14.838  22.520  0.00  0.00     0.282 A 
ATOM      5  C   UNL d   1     -47.577  14.429  22.443  0.00  0.00     0.089 A 
ATOM      6  C   UNL d   1     -47.499  13.679  22.763  0.00  0.00     0.130 A 
ATOM      7  O   UNL d   1     -48.369  15.595  22.196  0.00  0.00    -0.265 OA
ENDROOT
BRANCH   6   8
ATOM      8  O   UNL d   1     -46.787  13.270  22.686  0.00  0.00    -0.298 OA
BRANCH   8   9
ATOM      9  C   UNL d   1     -46.185  13.569  22.216  0.00  0.00     0.185 C 
BRANCH   9  10
ATOM     10  C   UNL d   1     -45.413  13.290  22.315  0.00  0.00     0.304 C 
ATOM     11  N   UNL d   1     -45.008  12.969  21.674  0.00  0.00    -0.206 NA
ATOM     12  O   UNL d   1     -45.053  13.334  23.054  0.00  0.00    -0.263 OA
BRANCH  11  13
ATOM     13  C   UNL d   1     -44.236  12.690  21.773  0.00  0.00     0.085 A 
ATOM     14  C   UNL d   1     -43.614  13.051  21.394  0.00  0.00     0.019 A 
ATOM     15  C   UNL d   1     -42.846  12.785  21.484  0.00  0.00     0.002 A 
ATOM     16  C   UNL d   1     -42.234  13.153  21.100  0.00  0.00     0.000 C 
ATOM     17  C   UNL d   1     -42.703  12.128  21.976  0.00  0.00     0.000 A 
ATOM     18  C   UNL d   1     -43.327  11.764  22.359  0.00  0.00     0.002 A 
ATOM     19  C   UNL d   1     -44.091  12.040  22.260  0.00  0.00     0.019 A 
ATOM     20  C   UNL d   1     -43.182  11.114  22.846  0.00  0.00     0.000 C 
ENDBRANCH  11  13
ENDBRANCH   9  10
ENDBRANCH   8   9
ENDBRANCH   6   8
BRANCH   2  21
ATOM     21  C   UNL d   1     -48.053  12.584  23.484  0.00  0.00     0.322 C 
ATOM     22  O   UNL d   1     -47.303  12.273  23.630  0.00  0.00    -0.257 OA
BRANCH  21  23
ATOM     23  O   UNL d   1     -48.723  12.130  23.664  0.00  0.00    -0.270 OA
BRANCH  23  24
ATOM     24  C   UNL d   1     -48.783  11.355  23.406  0.00  0.00     0.126 C 
ATOM     25  C   UNL d   1     -49.514  11.054  23.171  0.00  0.00     0.029 C 
ENDBRANCH  23  24
ENDBRANCH  21  23
ENDBRANCH   2  21
BRANCH   3  26
ATOM     26  C   UNL d   1     -49.633  14.898  22.998  0.00  0.00     0.086 A 
ATOM     27  C   UNL d   1     -49.735  15.425  23.616  0.00  0.00     0.019 A 
ATOM     28  C   UNL d   1     -50.447  15.834  23.698  0.00  0.00     0.002 A 
ATOM     29  C   UNL d   1     -51.064  15.711  23.153  0.00  0.00     0.000 A 
ATOM     30  C   UNL d   1     -50.954  15.178  22.532  0.00  0.00     0.002 A 
ATOM     31  C   UNL d   1     -50.250  14.775  22.453  0.00  0.00     0.019 A 
ENDBRANCH   3  26
TORSDOF 8
ENDMDL
