MODEL 1
REMARK VINA RESULT:      23.5      0.000      0.000
REMARK  5 active torsions:
REMARK  status: ('A' for Active; 'I' for Inactive)
REMARK    1  A    between atoms: N_4  and  C_1 
REMARK    2  A    between atoms: C_10  and  C_3 
REMARK       I    between atoms: C_7  and  N_4 
REMARK    3  A    between atoms: C_8  and  C_7 
REMARK    4  A    between atoms: C_9  and  C_8 
REMARK    5  A    between atoms: C_12  and  C_9 
ROOT
ATOM      1  C   UNL d   1      14.696  12.288  -1.196  0.00  0.00     0.197 A 
ATOM      2  N   UNL d   1      14.900  13.083  -1.229  0.00  0.00    -0.221 NA
ATOM      3  C   UNL d   1      15.205  13.305  -0.505  0.00  0.00     0.090 A 
ATOM      4  S   UNL d   1      14.872  12.007  -0.455  0.00  0.00    -0.046 SA
ATOM      5  C   UNL d   1      15.188  12.634  -0.022  0.00  0.00     0.058 A 
ENDROOT
BRANCH   1   6
ATOM      6  N   UNL d   1      14.362  11.846  -1.830  0.00  0.00    -0.183 NA
ATOM      7  C   UNL d   1      13.917  12.233  -2.405  0.00  0.00     0.281 C 
ATOM      8  O   UNL d   1      13.798  13.030  -2.368  0.00  0.00    -0.265 OA
BRANCH   7   9
ATOM      9  C   UNL d   1      13.586  11.804  -3.030  0.00  0.00     0.063 C 
BRANCH   9  10
ATOM     10  C   UNL d   1      12.947  12.103  -3.448  0.00  0.00     0.005 C 
BRANCH  10  11
ATOM     11  C   UNL d   1      13.028  12.319  -4.241  0.00  0.00     0.000 A 
ATOM     12  C   UNL d   1      12.801  13.058  -4.474  0.00  0.00     0.000 A 
ATOM     13  C   UNL d   1      12.877  13.275  -5.242  0.00  0.00     0.000 A 
ATOM     14  C   UNL d   1      13.192  12.743  -5.811  0.00  0.00     0.000 A 
ATOM     15  C   UNL d   1      13.422  11.996  -5.579  0.00  0.00     0.000 A 
ATOM     16  C   UNL d   1      13.341  11.779  -4.786  0.00  0.00     0.000 A 
ENDBRANCH  10  11
ENDBRANCH   9  10
ENDBRANCH   7   9
ENDBRANCH   1   6
BRANCH   3  17
ATOM     17  C   UNL d   1      15.468  14.072  -0.341  0.00  0.00     0.018 A 
ATOM     18  C   UNL d   1      16.255  14.232  -0.313  0.00  0.00     0.002 A 
ATOM     19  C   UNL d   1      16.502  15.006  -0.148  0.00  0.00     0.000 A 
ATOM     20  C   UNL d   1      15.954  15.599  -0.014  0.00  0.00     0.000 A 
ATOM     21  C   UNL d   1      15.149  15.429  -0.044  0.00  0.00     0.000 A 
ATOM     22  C   UNL d   1      14.910  14.677  -0.205  0.00  0.00     0.002 A 
ENDBRANCH   3  17
TORSDOF 5
ENDMDL
