MODEL 1
REMARK VINA RESULT:      67.6      0.000      0.000
REMARK  4 active torsions:
REMARK  status: ('A' for Active; 'I' for Inactive)
REMARK    1  A    between atoms: C_5  and  C_1 
REMARK    2  A    between atoms: C_2  and  C_5 
REMARK    3  A    between atoms: C_12  and  N_3 
REMARK    4  A    between atoms: C_13  and  N_4 
ROOT
ATOM      1  C   UNL d   1     -51.710  25.252  34.340  0.00  0.00     0.133 C 
ATOM      2 CL   UNL d   1     -51.918  25.162  35.144  0.00  0.00    -0.076 Cl
ENDROOT
BRANCH   1   3
ATOM      3  C   UNL d   1     -51.295  24.664  33.940  0.00  0.00     0.202 A 
ATOM      4  N   UNL d   1     -51.665  23.970  33.751  0.00  0.00    -0.191 N 
ATOM      5  N   UNL d   1     -51.126  23.489  33.359  0.00  0.00    -0.039 NA
ATOM      6  N   UNL d   1     -50.422  23.888  33.306  0.00  0.00    -0.022 NA
ATOM      7  N   UNL d   1     -50.523  24.619  33.667  0.00  0.00    -0.107 NA
BRANCH   4   8
ATOM      8  C   UNL d   1     -52.441  23.777  33.920  0.00  0.00     0.086 A 
ATOM      9  C   UNL d   1     -52.683  23.680  34.702  0.00  0.00     0.019 A 
ATOM     10  C   UNL d   1     -53.466  23.485  34.871  0.00  0.00     0.002 A 
ATOM     11  C   UNL d   1     -54.005  23.389  34.256  0.00  0.00     0.000 A 
ATOM     12  C   UNL d   1     -53.767  23.486  33.469  0.00  0.00     0.002 A 
ATOM     13  C   UNL d   1     -54.806  23.190  34.421  0.00  0.00     0.000 C 
ATOM     14  C   UNL d   1     -52.984  23.680  33.306  0.00  0.00     0.019 A 
ENDBRANCH   4   8
ENDBRANCH   1   3
BRANCH   1  15
ATOM     15  C   UNL d   1     -51.925  25.946  33.938  0.00  0.00     0.202 A 
ATOM     16  N   UNL d   1     -51.428  26.565  33.743  0.00  0.00    -0.191 N 
ATOM     17  N   UNL d   1     -51.872  27.132  33.350  0.00  0.00    -0.039 NA
ATOM     18  N   UNL d   1     -52.643  26.857  33.306  0.00  0.00    -0.022 NA
ATOM     19  N   UNL d   1     -52.680  26.135  33.663  0.00  0.00    -0.107 NA
BRANCH  16  20
ATOM     20  C   UNL d   1     -50.619  26.642  33.895  0.00  0.00     0.086 A 
ATOM     21  C   UNL d   1     -50.355  26.897  34.640  0.00  0.00     0.019 A 
ATOM     22  C   UNL d   1     -49.547  26.975  34.793  0.00  0.00     0.002 A 
ATOM     23  C   UNL d   1     -49.002  26.797  34.201  0.00  0.00     0.000 A 
ATOM     24  C   UNL d   1     -49.255  26.546  33.466  0.00  0.00     0.002 A 
ATOM     25  C   UNL d   1     -48.179  26.873  34.348  0.00  0.00     0.000 C 
ATOM     26  C   UNL d   1     -50.064  26.468  33.314  0.00  0.00     0.019 A 
ENDBRANCH  16  20
ENDBRANCH   1  15
TORSDOF 4
ENDMDL
