MODEL 1
REMARK VINA RESULT:      -3.2      0.000      0.000
REMARK  4 active torsions:
REMARK  status: ('A' for Active; 'I' for Inactive)
REMARK    1  A    between atoms: C_5  and  C_3 
REMARK    2  A    between atoms: S_8  and  C_4 
REMARK    3  A    between atoms: C_12  and  S_8 
REMARK    4  A    between atoms: C_10  and  C_12 
ROOT
ATOM      1  N   UNL d   1      32.597  20.767 -20.963  0.00  0.00    -0.146 NA
ATOM      2  N   UNL d   1      32.753  20.079 -21.390  0.00  0.00    -0.141 NA
ATOM      3  C   UNL d   1      32.763  21.508 -21.294  0.00  0.00     0.121 A 
ATOM      4  C   UNL d   1      33.073  20.119 -22.142  0.00  0.00     0.133 A 
ATOM      5  C   UNL d   1      33.086  21.552 -22.054  0.00  0.00     0.025 A 
ATOM      6  C   UNL d   1      33.241  20.864 -22.477  0.00  0.00     0.029 A 
ENDROOT
BRANCH   4   7
ATOM      7  S   UNL d   1      33.229  19.431 -22.570  0.00  0.00    -0.064 SA
BRANCH   7   8
ATOM      8  C   UNL d   1      32.618  18.926 -22.782  0.00  0.00     0.056 C 
BRANCH   8   9
ATOM      9  C   UNL d   1      32.785  18.244 -23.219  0.00  0.00     0.088 A 
ATOM     10  N   UNL d   1      33.077  17.572 -22.841  0.00  0.00    -0.243 NA
ATOM     11  C   UNL d   1      33.241  16.898 -23.283  0.00  0.00     0.099 A 
ATOM     12  C   UNL d   1      33.114  16.895 -24.094  0.00  0.00     0.021 A 
ATOM     13  C   UNL d   1      32.826  17.556 -24.469  0.00  0.00     0.003 A 
ATOM     14  C   UNL d   1      32.660  18.235 -24.034  0.00  0.00     0.020 A 
ENDBRANCH   8   9
ENDBRANCH   7   8
ENDBRANCH   4   7
BRANCH   3  15
ATOM     15  C   UNL d   1      32.607  22.197 -20.867  0.00  0.00     0.101 A 
ATOM     16  N   UNL d   1      31.915  22.605 -20.999  0.00  0.00    -0.242 NA
ATOM     17  C   UNL d   1      31.755  23.288 -20.577  0.00  0.00     0.099 A 
ATOM     18  C   UNL d   1      32.303  23.563 -20.014  0.00  0.00     0.021 A 
ATOM     19  C   UNL d   1      32.997  23.150 -19.885  0.00  0.00     0.003 A 
ATOM     20  C   UNL d   1      33.162  22.460 -20.308  0.00  0.00     0.021 A 
ENDBRANCH   3  15
TORSDOF 4
ENDMDL
MODEL 2
REMARK VINA RESULT:      -2.9      0.897      5.174
REMARK  4 active torsions:
REMARK  status: ('A' for Active; 'I' for Inactive)
REMARK    1  A    between atoms: C_5  and  C_3 
REMARK    2  A    between atoms: S_8  and  C_4 
REMARK    3  A    between atoms: C_12  and  S_8 
REMARK    4  A    between atoms: C_10  and  C_12 
ROOT
ATOM      1  N   UNL d   1      32.932  18.453 -22.536  0.00  0.00    -0.146 NA
ATOM      2  N   UNL d   1      33.014  19.129 -22.071  0.00  0.00    -0.141 NA
ATOM      3  C   UNL d   1      32.896  18.519 -23.362  0.00  0.00     0.121 A 
ATOM      4  C   UNL d   1      33.061  19.870 -22.416  0.00  0.00     0.133 A 
ATOM      5  C   UNL d   1      32.943  19.266 -23.714  0.00  0.00     0.025 A 
ATOM      6  C   UNL d   1      33.025  19.938 -23.246  0.00  0.00     0.029 A 
ENDROOT
BRANCH   4   7
ATOM      7  S   UNL d   1      33.143  20.546 -21.951  0.00  0.00    -0.064 SA
BRANCH   7   8
ATOM      8  C   UNL d   1      32.647  20.671 -21.309  0.00  0.00     0.056 C 
BRANCH   8   9
ATOM      9  C   UNL d   1      32.625  21.415 -20.949  0.00  0.00     0.088 A 
ATOM     10  N   UNL d   1      32.102  21.991 -21.223  0.00  0.00    -0.243 NA
ATOM     11  C   UNL d   1      32.087  22.729 -20.859  0.00  0.00     0.099 A 
ATOM     12  C   UNL d   1      32.588  22.890 -20.230  0.00  0.00     0.021 A 
ATOM     13  C   UNL d   1      33.105  22.324 -19.958  0.00  0.00     0.003 A 
ATOM     14  C   UNL d   1      33.127  21.583 -20.316  0.00  0.00     0.020 A 
ENDBRANCH   8   9
ENDBRANCH   7   8
ENDBRANCH   4   7
BRANCH   3  15
ATOM     15  C   UNL d   1      32.813  17.843 -23.828  0.00  0.00     0.101 A 
ATOM     16  N   UNL d   1      33.240  17.774 -24.517  0.00  0.00    -0.242 NA
ATOM     17  C   UNL d   1      33.162  17.105 -24.982  0.00  0.00     0.099 A 
ATOM     18  C   UNL d   1      32.644  16.497 -24.748  0.00  0.00     0.021 A 
ATOM     19  C   UNL d   1      32.218  16.571 -24.054  0.00  0.00     0.003 A 
ATOM     20  C   UNL d   1      32.294  17.244 -23.581  0.00  0.00     0.021 A 
ENDBRANCH   3  15
TORSDOF 4
ENDMDL
MODEL 3
REMARK VINA RESULT:      -2.7      0.845      1.121
REMARK  4 active torsions:
REMARK  status: ('A' for Active; 'I' for Inactive)
REMARK    1  A    between atoms: C_5  and  C_3 
REMARK    2  A    between atoms: S_8  and  C_4 
REMARK    3  A    between atoms: C_12  and  S_8 
REMARK    4  A    between atoms: C_10  and  C_12 
ROOT
ATOM      1  N   UNL d   1      32.735  21.734 -21.883  0.00  0.00    -0.146 NA
ATOM      2  N   UNL d   1      32.865  21.066 -22.349  0.00  0.00    -0.141 NA
ATOM      3  C   UNL d   1      32.840  21.694 -21.062  0.00  0.00     0.121 A 
ATOM      4  C   UNL d   1      33.097  20.358 -22.008  0.00  0.00     0.133 A 
ATOM      5  C   UNL d   1      33.074  20.981 -20.715  0.00  0.00     0.025 A 
ATOM      6  C   UNL d   1      33.203  20.317 -21.182  0.00  0.00     0.029 A 
ENDROOT
BRANCH   4   7
ATOM      7  S   UNL d   1      33.227  19.690 -22.474  0.00  0.00    -0.064 SA
BRANCH   7   8
ATOM      8  C   UNL d   1      32.595  19.292 -22.815  0.00  0.00     0.056 C 
BRANCH   8   9
ATOM      9  C   UNL d   1      32.739  18.671 -23.342  0.00  0.00     0.088 A 
ATOM     10  N   UNL d   1      33.101  18.821 -24.068  0.00  0.00    -0.243 NA
ATOM     11  C   UNL d   1      33.241  18.198 -24.586  0.00  0.00     0.099 A 
ATOM     12  C   UNL d   1      33.023  17.433 -24.381  0.00  0.00     0.021 A 
ATOM     13  C   UNL d   1      32.666  17.283 -23.666  0.00  0.00     0.003 A 
ATOM     14  C   UNL d   1      32.522  17.901 -23.141  0.00  0.00     0.020 A 
ENDBRANCH   8   9
ENDBRANCH   7   8
ENDBRANCH   4   7
BRANCH   3  15
ATOM     15  C   UNL d   1      32.710  22.362 -20.596  0.00  0.00     0.101 A 
ATOM     16  N   UNL d   1      32.978  22.376 -19.827  0.00  0.00    -0.242 NA
ATOM     17  C   UNL d   1      32.852  23.037 -19.361  0.00  0.00     0.099 A 
ATOM     18  C   UNL d   1      32.449  23.694 -19.676  0.00  0.00     0.021 A 
ATOM     19  C   UNL d   1      32.181  23.675 -20.448  0.00  0.00     0.003 A 
ATOM     20  C   UNL d   1      32.306  23.011 -20.922  0.00  0.00     0.021 A 
ENDBRANCH   3  15
TORSDOF 4
ENDMDL
MODEL 4
REMARK VINA RESULT:      -0.5      1.606      2.323
REMARK  4 active torsions:
REMARK  status: ('A' for Active; 'I' for Inactive)
REMARK    1  A    between atoms: C_5  and  C_3 
REMARK    2  A    between atoms: S_8  and  C_4 
REMARK    3  A    between atoms: C_12  and  S_8 
REMARK    4  A    between atoms: C_10  and  C_12 
ROOT
ATOM      1  N   UNL d   1      31.918  19.773 -22.698  0.00  0.00    -0.146 NA
ATOM      2  N   UNL d   1      31.769  19.098 -23.147  0.00  0.00    -0.141 NA
ATOM      3  C   UNL d   1      32.627  19.844 -22.275  0.00  0.00     0.121 A 
ATOM      4  C   UNL d   1      32.318  18.490 -23.180  0.00  0.00     0.133 A 
ATOM      5  C   UNL d   1      33.183  19.232 -22.307  0.00  0.00     0.025 A 
ATOM      6  C   UNL d   1      33.032  18.560 -22.755  0.00  0.00     0.029 A 
ENDROOT
BRANCH   4   7
ATOM      7  S   UNL d   1      32.170  17.815 -23.629  0.00  0.00    -0.064 SA
BRANCH   7   8
ATOM      8  C   UNL d   1      31.485  17.755 -24.077  0.00  0.00     0.056 C 
BRANCH   8   9
ATOM      9  C   UNL d   1      31.278  17.029 -24.413  0.00  0.00     0.088 A 
ATOM     10  N   UNL d   1      31.866  16.496 -24.640  0.00  0.00    -0.243 NA
ATOM     11  C   UNL d   1      31.652  15.775 -24.973  0.00  0.00     0.099 A 
ATOM     12  C   UNL d   1      30.860  15.588 -25.079  0.00  0.00     0.021 A 
ATOM     13  C   UNL d   1      30.278  16.111 -24.857  0.00  0.00     0.003 A 
ATOM     14  C   UNL d   1      30.484  16.835 -24.522  0.00  0.00     0.020 A 
ENDBRANCH   8   9
ENDBRANCH   7   8
ENDBRANCH   4   7
BRANCH   3  15
ATOM     15  C   UNL d   1      32.775  20.520 -21.826  0.00  0.00     0.101 A 
ATOM     16  N   UNL d   1      32.706  20.488 -21.015  0.00  0.00    -0.242 NA
ATOM     17  C   UNL d   1      32.852  21.157 -20.566  0.00  0.00     0.099 A 
ATOM     18  C   UNL d   1      33.071  21.867 -20.940  0.00  0.00     0.021 A 
ATOM     19  C   UNL d   1      33.139  21.893 -21.755  0.00  0.00     0.003 A 
ATOM     20  C   UNL d   1      32.993  21.222 -22.212  0.00  0.00     0.021 A 
ENDBRANCH   3  15
TORSDOF 4
ENDMDL
MODEL 5
REMARK VINA RESULT:      -0.5      1.742      5.425
REMARK  4 active torsions:
REMARK  status: ('A' for Active; 'I' for Inactive)
REMARK    1  A    between atoms: C_5  and  C_3 
REMARK    2  A    between atoms: S_8  and  C_4 
REMARK    3  A    between atoms: C_12  and  S_8 
REMARK    4  A    between atoms: C_10  and  C_12 
ROOT
ATOM      1  N   UNL d   1      32.105  17.215 -23.607  0.00  0.00    -0.146 NA
ATOM      2  N   UNL d   1      32.585  17.809 -23.297  0.00  0.00    -0.141 NA
ATOM      3  C   UNL d   1      31.431  17.412 -24.048  0.00  0.00     0.121 A 
ATOM      4  C   UNL d   1      32.403  18.598 -23.420  0.00  0.00     0.133 A 
ATOM      5  C   UNL d   1      31.245  18.208 -24.174  0.00  0.00     0.025 A 
ATOM      6  C   UNL d   1      31.725  18.799 -23.864  0.00  0.00     0.029 A 
ENDROOT
BRANCH   4   7
ATOM      7  S   UNL d   1      32.883  19.193 -23.110  0.00  0.00    -0.064 SA
BRANCH   7   8
ATOM      8  C   UNL d   1      32.841  19.388 -22.314  0.00  0.00     0.056 C 
BRANCH   8   9
ATOM      9  C   UNL d   1      32.974  20.169 -22.077  0.00  0.00     0.088 A 
ATOM     10  N   UNL d   1      32.972  20.363 -21.275  0.00  0.00    -0.243 NA
ATOM     11  C   UNL d   1      33.105  21.143 -21.048  0.00  0.00     0.099 A 
ATOM     12  C   UNL d   1      33.238  21.721 -21.615  0.00  0.00     0.021 A 
ATOM     13  C   UNL d   1      33.241  21.532 -22.406  0.00  0.00     0.003 A 
ATOM     14  C   UNL d   1      33.109  20.754 -22.642  0.00  0.00     0.020 A 
ENDBRANCH   8   9
ENDBRANCH   7   8
ENDBRANCH   4   7
BRANCH   3  15
ATOM     15  C   UNL d   1      30.951  16.817 -24.358  0.00  0.00     0.101 A 
ATOM     16  N   UNL d   1      30.141  16.880 -24.298  0.00  0.00    -0.242 NA
ATOM     17  C   UNL d   1      29.661  16.292 -24.605  0.00  0.00     0.099 A 
ATOM     18  C   UNL d   1      30.003  15.631 -24.977  0.00  0.00     0.021 A 
ATOM     19  C   UNL d   1      30.817  15.572 -25.034  0.00  0.00     0.003 A 
ATOM     20  C   UNL d   1      31.306  16.163 -24.727  0.00  0.00     0.021 A 
ENDBRANCH   3  15
TORSDOF 4
ENDMDL
MODEL 6
REMARK VINA RESULT:      -0.3      3.483      4.334
REMARK  4 active torsions:
REMARK  status: ('A' for Active; 'I' for Inactive)
REMARK    1  A    between atoms: C_5  and  C_3 
REMARK    2  A    between atoms: S_8  and  C_4 
REMARK    3  A    between atoms: C_12  and  S_8 
REMARK    4  A    between atoms: C_10  and  C_12 
ROOT
ATOM      1  N   UNL d   1      32.807  23.687 -18.999  0.00  0.00    -0.146 NA
ATOM      2  N   UNL d   1      32.865  23.669 -19.822  0.00  0.00    -0.141 NA
ATOM      3  C   UNL d   1      32.793  22.980 -18.567  0.00  0.00     0.121 A 
ATOM      4  C   UNL d   1      32.910  22.955 -20.220  0.00  0.00     0.133 A 
ATOM      5  C   UNL d   1      32.838  22.257 -18.967  0.00  0.00     0.025 A 
ATOM      6  C   UNL d   1      32.896  22.242 -19.788  0.00  0.00     0.029 A 
ENDROOT
BRANCH   4   7
ATOM      7  S   UNL d   1      32.968  22.936 -21.043  0.00  0.00    -0.064 SA
BRANCH   7   8
ATOM      8  C   UNL d   1      32.291  22.903 -21.507  0.00  0.00     0.056 C 
BRANCH   8   9
ATOM      9  C   UNL d   1      32.346  23.043 -22.320  0.00  0.00     0.088 A 
ATOM     10  N   UNL d   1      32.962  22.709 -22.755  0.00  0.00    -0.243 NA
ATOM     11  C   UNL d   1      33.010  22.854 -23.564  0.00  0.00     0.099 A 
ATOM     12  C   UNL d   1      32.449  23.326 -23.933  0.00  0.00     0.021 A 
ATOM     13  C   UNL d   1      31.841  23.656 -23.506  0.00  0.00     0.003 A 
ATOM     14  C   UNL d   1      31.786  23.517 -22.696  0.00  0.00     0.020 A 
ENDBRANCH   8   9
ENDBRANCH   7   8
ENDBRANCH   4   7
BRANCH   3  15
ATOM     15  C   UNL d   1      32.735  22.998 -17.745  0.00  0.00     0.101 A 
ATOM     16  N   UNL d   1      32.219  23.518 -17.389  0.00  0.00    -0.242 NA
ATOM     17  C   UNL d   1      32.158  23.540 -16.573  0.00  0.00     0.099 A 
ATOM     18  C   UNL d   1      32.625  23.030 -16.109  0.00  0.00     0.021 A 
ATOM     19  C   UNL d   1      33.142  22.510 -16.472  0.00  0.00     0.003 A 
ATOM     20  C   UNL d   1      33.207  22.484 -17.295  0.00  0.00     0.021 A 
ENDBRANCH   3  15
TORSDOF 4
ENDMDL
