MODEL 1
REMARK VINA RESULT:      -3.7      0.000      0.000
REMARK  5 active torsions:
REMARK  status: ('A' for Active; 'I' for Inactive)
REMARK    1  A    between atoms: N_6  and  S_1 
REMARK    2  A    between atoms: C_11  and  S_1 
REMARK    3  A    between atoms: C_2  and  N_5 
REMARK    4  A    between atoms: C_9  and  C_4 
REMARK       I    between atoms: N_5  and  C_7 
REMARK    5  A    between atoms: C_7  and  C_15 
ROOT
ATOM      1  C   UNL d   1     -41.917-123.268 -49.622  0.00  0.00     0.104 A 
ATOM      2  C   UNL d   1     -41.679-123.006 -51.302  0.00  0.00     0.058 A 
ATOM      3  C   UNL d   1     -42.183-122.556 -50.015  0.00  0.00     0.013 A 
ATOM      4  C   UNL d   1     -41.541-123.814 -50.108  0.00  0.00     0.013 A 
ATOM      5  C   UNL d   1     -41.423-123.693 -50.925  0.00  0.00     0.005 A 
ATOM      6  C   UNL d   1     -42.081-122.410 -50.811  0.00  0.00     0.005 A 
ENDROOT
BRANCH   2   7
ATOM      7  C   UNL d   1     -41.574-122.873 -52.086  0.00  0.00     0.281 C 
ATOM      8  N   UNL d   1     -41.777-123.447 -52.651  0.00  0.00    -0.183 NA
ATOM      9  O   UNL d   1     -41.245-122.124 -52.341  0.00  0.00    -0.265 OA
BRANCH   8  10
ATOM     10  C   UNL d   1     -41.665-123.309 -53.504  0.00  0.00     0.197 A 
ATOM     11  N   UNL d   1     -42.053-122.695 -53.959  0.00  0.00    -0.220 NA
ATOM     12  C   UNL d   1     -41.790-122.754 -54.760  0.00  0.00     0.096 A 
ATOM     13  C   UNL d   1     -41.234-123.418 -54.782  0.00  0.00     0.058 A 
ATOM     14  S   UNL d   1     -41.174-123.736 -54.012  0.00  0.00    -0.046 SA
BRANCH  12  15
ATOM     15  C   UNL d   1     -41.995-122.299 -55.409  0.00  0.00     0.048 A 
ATOM     16  S   UNL d   1     -41.541-121.760 -55.819  0.00  0.00    -0.085 SA
ATOM     17  C   UNL d   1     -41.977-121.436 -56.432  0.00  0.00     0.035 A 
ATOM     18  C   UNL d   1     -42.716-121.791 -56.390  0.00  0.00     0.007 A 
ATOM     19  C   UNL d   1     -42.729-122.321 -55.763  0.00  0.00     0.009 A 
ENDBRANCH  12  15
ENDBRANCH   8  10
ENDBRANCH   2   7
BRANCH   1  20
ATOM     20  S   UNL d   1     -42.041-123.379 -48.803  0.00  0.00     0.271 S 
ATOM     21  O   UNL d   1     -41.270-123.083 -48.647  0.00  0.00    -0.200 OA
ATOM     22  O   UNL d   1     -42.826-123.681 -48.943  0.00  0.00    -0.200 OA
BRANCH  20  23
ATOM     23  N   UNL d   1     -42.179-123.496 -47.962  0.00  0.00    -0.229 N 
ATOM     24  C   UNL d   1     -42.849-123.460 -47.475  0.00  0.00     0.092 A 
ATOM     25  C   UNL d   1     -42.631-123.628 -46.707  0.00  0.00     0.021 A 
ATOM     26  C   UNL d   1     -41.816-123.776 -46.676  0.00  0.00     0.021 A 
ATOM     27  C   UNL d   1     -41.547-123.692 -47.462  0.00  0.00     0.092 A 
ENDBRANCH  20  23
ENDBRANCH   1  20
TORSDOF 5
ENDMDL
MODEL 2
REMARK VINA RESULT:      -0.9      1.299      6.349
REMARK  5 active torsions:
REMARK  status: ('A' for Active; 'I' for Inactive)
REMARK    1  A    between atoms: N_6  and  S_1 
REMARK    2  A    between atoms: C_11  and  S_1 
REMARK    3  A    between atoms: C_2  and  N_5 
REMARK    4  A    between atoms: C_9  and  C_4 
REMARK       I    between atoms: N_5  and  C_7 
REMARK    5  A    between atoms: C_7  and  C_15 
ROOT
ATOM      1  C   UNL d   1     -42.007-122.197 -53.621  0.00  0.00     0.104 A 
ATOM      2  C   UNL d   1     -41.792-122.436 -51.934  0.00  0.00     0.058 A 
ATOM      3  C   UNL d   1     -42.667-122.233 -53.077  0.00  0.00     0.013 A 
ATOM      4  C   UNL d   1     -41.266-122.285 -53.276  0.00  0.00     0.013 A 
ATOM      5  C   UNL d   1     -41.155-122.401 -52.457  0.00  0.00     0.005 A 
ATOM      6  C   UNL d   1     -42.589-122.346 -52.274  0.00  0.00     0.005 A 
ENDROOT
BRANCH   2   7
ATOM      7  C   UNL d   1     -41.703-122.547 -51.145  0.00  0.00     0.281 C 
ATOM      8  N   UNL d   1     -41.836-123.289 -50.797  0.00  0.00    -0.183 NA
ATOM      9  O   UNL d   1     -41.466-121.885 -50.655  0.00  0.00    -0.265 OA
BRANCH   8  10
ATOM     10  C   UNL d   1     -41.742-123.416 -49.940  0.00  0.00     0.197 A 
ATOM     11  N   UNL d   1     -42.285-123.140 -49.338  0.00  0.00    -0.220 NA
ATOM     12  C   UNL d   1     -41.988-123.379 -48.585  0.00  0.00     0.096 A 
ATOM     13  C   UNL d   1     -41.252-123.807 -48.742  0.00  0.00     0.058 A 
ATOM     14  S   UNL d   1     -41.123-123.817 -49.567  0.00  0.00    -0.046 SA
BRANCH  12  15
ATOM     15  C   UNL d   1     -42.301-123.253 -47.838  0.00  0.00     0.048 A 
ATOM     16  S   UNL d   1     -42.794-123.735 -47.403  0.00  0.00    -0.085 SA
ATOM     17  C   UNL d   1     -42.966-123.382 -46.683  0.00  0.00     0.035 A 
ATOM     18  C   UNL d   1     -42.563-122.667 -46.686  0.00  0.00     0.007 A 
ATOM     19  C   UNL d   1     -42.154-122.586 -47.394  0.00  0.00     0.009 A 
ENDBRANCH  12  15
ENDBRANCH   8  10
ENDBRANCH   2   7
BRANCH   1  20
ATOM     20  S   UNL d   1     -42.130-122.080 -54.439  0.00  0.00     0.271 S 
ATOM     21  O   UNL d   1     -41.641-122.743 -54.607  0.00  0.00    -0.200 OA
ATOM     22  O   UNL d   1     -42.629-121.406 -54.287  0.00  0.00    -0.200 OA
BRANCH  20  23
ATOM     23  N   UNL d   1     -42.264-121.951 -55.279  0.00  0.00    -0.229 N 
ATOM     24  C   UNL d   1     -42.874-122.148 -55.804  0.00  0.00     0.092 A 
ATOM     25  C   UNL d   1     -42.685-121.872 -56.549  0.00  0.00     0.021 A 
ATOM     26  C   UNL d   1     -41.950-121.490 -56.526  0.00  0.00     0.021 A 
ATOM     27  C   UNL d   1     -41.699-121.546 -55.731  0.00  0.00     0.092 A 
ENDBRANCH  20  23
ENDBRANCH   1  20
TORSDOF 5
ENDMDL
