MODEL 1
REMARK VINA RESULT:      -2.9      0.000      0.000
REMARK  3 active torsions:
REMARK  status: ('A' for Active; 'I' for Inactive)
REMARK       I    between atoms: C_2  and  N_1 
REMARK    1  A    between atoms: C_3  and  C_2 
REMARK    2  A    between atoms: S_5  and  C_3 
REMARK    3  A    between atoms: C_7  and  S_5 
ROOT
ATOM      1  C   UNL d   1      32.925  19.656 -22.588  0.00  0.00     0.125 C 
ENDROOT
BRANCH   1   2
ATOM      2  C   UNL d   1      33.027  18.847 -22.710  0.00  0.00     0.259 C 
ATOM      3  N   UNL d   1      32.917  18.522 -23.469  0.00  0.00    -0.268 N 
ATOM      4  C   UNL d   1      32.705  19.019 -24.093  0.00  0.00     0.110 A 
ATOM      5  C   UNL d   1      33.017  17.715 -23.600  0.00  0.00     0.110 A 
ATOM      6  C   UNL d   1      32.594  18.707 -24.848  0.00  0.00     0.142 A 
ATOM      7  O   UNL d   1      32.693  17.900 -24.980  0.00  0.00    -0.300 OA
ATOM      8  C   UNL d   1      32.905  17.403 -24.356  0.00  0.00     0.142 A 
ATOM      9  O   UNL d   1      33.239  18.350 -22.082  0.00  0.00    -0.267 OA
ENDBRANCH   1   2
BRANCH   1  10
ATOM     10  S   UNL d   1      33.175  19.987 -21.882  0.00  0.00    -0.095 SA
BRANCH  10  11
ATOM     11  C   UNL d   1      32.935  20.750 -21.680  0.00  0.00     0.029 A 
ATOM     12  C   UNL d   1      33.239  21.399 -22.088  0.00  0.00     0.007 A 
ATOM     13  C   UNL d   1      33.000  22.162 -21.886  0.00  0.00     0.012 A 
ATOM     14  C   UNL d   1      32.457  22.276 -21.275  0.00  0.00     0.058 A 
ATOM     15  C   UNL d   1      32.154  21.627 -20.866  0.00  0.00     0.012 A 
ATOM     16 CL   UNL d   1      32.210  23.034 -21.063  0.00  0.00    -0.082 Cl
ATOM     17  C   UNL d   1      32.393  20.863 -21.069  0.00  0.00     0.007 A 
ENDBRANCH  10  11
ENDBRANCH   1  10
TORSDOF 3
ENDMDL
MODEL 2
REMARK VINA RESULT:      -2.9      3.395      4.445
REMARK  3 active torsions:
REMARK  status: ('A' for Active; 'I' for Inactive)
REMARK       I    between atoms: C_2  and  N_1 
REMARK    1  A    between atoms: C_3  and  C_2 
REMARK    2  A    between atoms: S_5  and  C_3 
REMARK    3  A    between atoms: C_7  and  S_5 
ROOT
ATOM      1  C   UNL d   1      30.793  16.823 -23.855  0.00  0.00     0.125 C 
ENDROOT
BRANCH   1   2
ATOM      2  C   UNL d   1      30.395  16.142 -23.614  0.00  0.00     0.259 C 
ATOM      3  N   UNL d   1      29.563  16.130 -23.592  0.00  0.00    -0.268 N 
ATOM      4  C   UNL d   1      29.145  16.806 -23.815  0.00  0.00     0.110 A 
ATOM      5  C   UNL d   1      29.157  15.454 -23.352  0.00  0.00     0.110 A 
ATOM      6  C   UNL d   1      28.320  16.804 -23.797  0.00  0.00     0.142 A 
ATOM      7  O   UNL d   1      27.914  16.129 -23.557  0.00  0.00    -0.300 OA
ATOM      8  C   UNL d   1      28.331  15.453 -23.335  0.00  0.00     0.142 A 
ATOM      9  O   UNL d   1      30.817  15.465 -23.391  0.00  0.00    -0.267 OA
ENDBRANCH   1   2
BRANCH   1  10
ATOM     10  S   UNL d   1      31.611  16.821 -23.876  0.00  0.00    -0.095 SA
BRANCH  10  11
ATOM     11  C   UNL d   1      32.019  17.518 -24.040  0.00  0.00     0.029 A 
ATOM     12  C   UNL d   1      32.449  17.894 -23.445  0.00  0.00     0.007 A 
ATOM     13  C   UNL d   1      32.858  18.591 -23.609  0.00  0.00     0.012 A 
ATOM     14  C   UNL d   1      32.836  18.913 -24.367  0.00  0.00     0.058 A 
ATOM     15  C   UNL d   1      32.406  18.538 -24.963  0.00  0.00     0.012 A 
ATOM     16 CL   UNL d   1      33.240  19.610 -24.545  0.00  0.00    -0.082 Cl
ATOM     17  C   UNL d   1      31.997  17.840 -24.799  0.00  0.00     0.007 A 
ENDBRANCH  10  11
ENDBRANCH   1  10
TORSDOF 3
ENDMDL
MODEL 3
REMARK VINA RESULT:      -2.8      2.386      4.258
REMARK  3 active torsions:
REMARK  status: ('A' for Active; 'I' for Inactive)
REMARK       I    between atoms: C_2  and  N_1 
REMARK    1  A    between atoms: C_3  and  C_2 
REMARK    2  A    between atoms: S_5  and  C_3 
REMARK    3  A    between atoms: C_7  and  S_5 
ROOT
ATOM      1  C   UNL d   1      32.858  20.601 -21.704  0.00  0.00     0.125 C 
ENDROOT
BRANCH   1   2
ATOM      2  C   UNL d   1      32.918  20.969 -20.968  0.00  0.00     0.259 C 
ATOM      3  N   UNL d   1      32.682  21.762 -20.878  0.00  0.00    -0.268 N 
ATOM      4  C   UNL d   1      32.389  22.172 -21.531  0.00  0.00     0.110 A 
ATOM      5  C   UNL d   1      32.739  22.138 -20.147  0.00  0.00     0.110 A 
ATOM      6  C   UNL d   1      32.153  22.958 -21.452  0.00  0.00     0.142 A 
ATOM      7  O   UNL d   1      32.210  23.334 -20.721  0.00  0.00    -0.300 OA
ATOM      8  C   UNL d   1      32.503  22.925 -20.068  0.00  0.00     0.142 A 
ATOM      9  O   UNL d   1      33.213  20.554 -20.314  0.00  0.00    -0.267 OA
ENDBRANCH   1   2
BRANCH   1  10
ATOM     10  S   UNL d   1      33.241  19.888 -21.826  0.00  0.00    -0.095 SA
BRANCH  10  11
ATOM     11  C   UNL d   1      33.116  19.469 -22.526  0.00  0.00     0.029 A 
ATOM     12  C   UNL d   1      33.241  19.835 -23.253  0.00  0.00     0.007 A 
ATOM     13  C   UNL d   1      33.115  19.416 -23.953  0.00  0.00     0.012 A 
ATOM     14  C   UNL d   1      32.865  18.631 -23.924  0.00  0.00     0.058 A 
ATOM     15  C   UNL d   1      32.740  18.264 -23.195  0.00  0.00     0.012 A 
ATOM     16 CL   UNL d   1      32.736  18.201 -24.616  0.00  0.00    -0.082 Cl
ATOM     17  C   UNL d   1      32.865  18.683 -22.496  0.00  0.00     0.007 A 
ENDBRANCH  10  11
ENDBRANCH   1  10
TORSDOF 3
ENDMDL
MODEL 4
REMARK VINA RESULT:      -2.6      2.405      4.376
REMARK  3 active torsions:
REMARK  status: ('A' for Active; 'I' for Inactive)
REMARK       I    between atoms: C_2  and  N_1 
REMARK    1  A    between atoms: C_3  and  C_2 
REMARK    2  A    between atoms: S_5  and  C_3 
REMARK    3  A    between atoms: C_7  and  S_5 
ROOT
ATOM      1  C   UNL d   1      32.856  19.154 -22.996  0.00  0.00     0.125 C 
ENDROOT
BRANCH   1   2
ATOM      2  C   UNL d   1      33.046  19.953 -23.076  0.00  0.00     0.259 C 
ATOM      3  N   UNL d   1      33.051  20.449 -22.407  0.00  0.00    -0.268 N 
ATOM      4  C   UNL d   1      32.862  20.132 -21.669  0.00  0.00     0.110 A 
ATOM      5  C   UNL d   1      33.240  21.248 -22.477  0.00  0.00     0.110 A 
ATOM      6  C   UNL d   1      32.864  20.615 -21.000  0.00  0.00     0.142 A 
ATOM      7  O   UNL d   1      33.053  21.414 -21.070  0.00  0.00    -0.300 OA
ATOM      8  C   UNL d   1      33.241  21.731 -21.807  0.00  0.00     0.142 A 
ATOM      9  O   UNL d   1      33.235  20.269 -23.818  0.00  0.00    -0.267 OA
ENDBRANCH   1   2
BRANCH   1  10
ATOM     10  S   UNL d   1      32.887  18.670 -23.655  0.00  0.00    -0.095 SA
BRANCH  10  11
ATOM     11  C   UNL d   1      32.580  17.905 -23.618  0.00  0.00     0.029 A 
ATOM     12  C   UNL d   1      33.016  17.303 -23.259  0.00  0.00     0.007 A 
ATOM     13  C   UNL d   1      32.709  16.538 -23.221  0.00  0.00     0.012 A 
ATOM     14  C   UNL d   1      31.967  16.376 -23.542  0.00  0.00     0.058 A 
ATOM     15  C   UNL d   1      31.531  16.978 -23.901  0.00  0.00     0.012 A 
ATOM     16 CL   UNL d   1      31.649  15.615 -23.511  0.00  0.00    -0.082 Cl
ATOM     17  C   UNL d   1      31.838  17.742 -23.939  0.00  0.00     0.007 A 
ENDBRANCH  10  11
ENDBRANCH   1  10
TORSDOF 3
ENDMDL
MODEL 5
REMARK VINA RESULT:      -2.2      3.936      5.413
REMARK  3 active torsions:
REMARK  status: ('A' for Active; 'I' for Inactive)
REMARK       I    between atoms: C_2  and  N_1 
REMARK    1  A    between atoms: C_3  and  C_2 
REMARK    2  A    between atoms: S_5  and  C_3 
REMARK    3  A    between atoms: C_7  and  S_5 
ROOT
ATOM      1  C   UNL d   1      30.866  16.395 -23.909  0.00  0.00     0.125 C 
ENDROOT
BRANCH   1   2
ATOM      2  C   UNL d   1      31.689  16.455 -23.880  0.00  0.00     0.259 C 
ATOM      3  N   UNL d   1      32.061  17.177 -24.061  0.00  0.00    -0.268 N 
ATOM      4  C   UNL d   1      31.597  17.829 -24.268  0.00  0.00     0.110 A 
ATOM      5  C   UNL d   1      32.881  17.247 -24.035  0.00  0.00     0.110 A 
ATOM      6  C   UNL d   1      31.957  18.549 -24.448  0.00  0.00     0.142 A 
ATOM      7  O   UNL d   1      32.777  18.618 -24.423  0.00  0.00    -0.300 OA
ATOM      8  C   UNL d   1      33.241  17.968 -24.216  0.00  0.00     0.142 A 
ATOM      9  O   UNL d   1      32.151  15.800 -23.672  0.00  0.00    -0.267 OA
ENDBRANCH   1   2
BRANCH   1  10
ATOM     10  S   UNL d   1      30.511  15.690 -23.693  0.00  0.00    -0.095 SA
BRANCH  10  11
ATOM     11  C   UNL d   1      29.688  15.637 -23.668  0.00  0.00     0.029 A 
ATOM     12  C   UNL d   1      29.300  15.592 -22.942  0.00  0.00     0.007 A 
ATOM     13  C   UNL d   1      28.477  15.538 -22.916  0.00  0.00     0.012 A 
ATOM     14  C   UNL d   1      28.043  15.530 -23.617  0.00  0.00     0.058 A 
ATOM     15  C   UNL d   1      28.431  15.575 -24.344  0.00  0.00     0.012 A 
ATOM     16 CL   UNL d   1      27.220  15.477 -23.606  0.00  0.00    -0.082 Cl
ATOM     17  C   UNL d   1      29.254  15.629 -24.369  0.00  0.00     0.007 A 
ENDBRANCH  10  11
ENDBRANCH   1  10
TORSDOF 3
ENDMDL
MODEL 6
REMARK VINA RESULT:      -1.2      3.503      4.719
REMARK  3 active torsions:
REMARK  status: ('A' for Active; 'I' for Inactive)
REMARK       I    between atoms: C_2  and  N_1 
REMARK    1  A    between atoms: C_3  and  C_2 
REMARK    2  A    between atoms: S_5  and  C_3 
REMARK    3  A    between atoms: C_7  and  S_5 
ROOT
ATOM      1  C   UNL d   1      32.417  22.765 -19.477  0.00  0.00     0.125 C 
ENDROOT
BRANCH   1   2
ATOM      2  C   UNL d   1      32.348  22.936 -20.281  0.00  0.00     0.259 C 
ATOM      3  N   UNL d   1      32.572  22.370 -20.849  0.00  0.00    -0.268 N 
ATOM      4  C   UNL d   1      32.863  21.640 -20.597  0.00  0.00     0.110 A 
ATOM      5  C   UNL d   1      32.507  22.532 -21.654  0.00  0.00     0.110 A 
ATOM      6  C   UNL d   1      33.088  21.073 -21.151  0.00  0.00     0.142 A 
ATOM      7  O   UNL d   1      33.023  21.234 -21.957  0.00  0.00    -0.300 OA
ATOM      8  C   UNL d   1      32.732  21.964 -22.209  0.00  0.00     0.142 A 
ATOM      9  O   UNL d   1      32.055  23.670 -20.531  0.00  0.00    -0.267 OA
ENDBRANCH   1   2
BRANCH   1  10
ATOM     10  S   UNL d   1      32.882  23.245 -19.006  0.00  0.00    -0.095 SA
BRANCH  10  11
ATOM     11  C   UNL d   1      32.899  23.128 -18.189  0.00  0.00     0.029 A 
ATOM     12  C   UNL d   1      33.224  22.437 -17.879  0.00  0.00     0.007 A 
ATOM     13  C   UNL d   1      33.241  22.319 -17.063  0.00  0.00     0.012 A 
ATOM     14  C   UNL d   1      32.932  22.893 -16.558  0.00  0.00     0.058 A 
ATOM     15  C   UNL d   1      32.607  23.585 -16.868  0.00  0.00     0.012 A 
ATOM     16 CL   UNL d   1      32.942  22.788 -15.739  0.00  0.00    -0.082 Cl
ATOM     17  C   UNL d   1      32.590  23.702 -17.684  0.00  0.00     0.007 A 
ENDBRANCH  10  11
ENDBRANCH   1  10
TORSDOF 3
ENDMDL
MODEL 7
REMARK VINA RESULT:      -0.7      3.461      5.079
REMARK  3 active torsions:
REMARK  status: ('A' for Active; 'I' for Inactive)
REMARK       I    between atoms: C_2  and  N_1 
REMARK    1  A    between atoms: C_3  and  C_2 
REMARK    2  A    between atoms: S_5  and  C_3 
REMARK    3  A    between atoms: C_7  and  S_5 
ROOT
ATOM      1  C   UNL d   1      32.852  22.420 -20.381  0.00  0.00     0.125 C 
ENDROOT
BRANCH   1   2
ATOM      2  C   UNL d   1      33.007  22.027 -19.672  0.00  0.00     0.259 C 
ATOM      3  N   UNL d   1      33.048  22.453 -18.959  0.00  0.00    -0.268 N 
ATOM      4  C   UNL d   1      32.933  23.271 -18.971  0.00  0.00     0.110 A 
ATOM      5  C   UNL d   1      33.202  22.069 -18.246  0.00  0.00     0.110 A 
ATOM      6  C   UNL d   1      32.972  23.702 -18.269  0.00  0.00     0.142 A 
ATOM      7  O   UNL d   1      33.126  23.318 -17.557  0.00  0.00    -0.300 OA
ATOM      8  C   UNL d   1      33.241  22.501 -17.544  0.00  0.00     0.142 A 
ATOM      9  O   UNL d   1      33.122  21.206 -19.663  0.00  0.00    -0.267 OA
ENDBRANCH   1   2
BRANCH   1  10
ATOM     10  S   UNL d   1      33.013  22.042 -21.089  0.00  0.00    -0.095 SA
BRANCH  10  11
ATOM     11  C   UNL d   1      32.913  22.447 -21.801  0.00  0.00     0.029 A 
ATOM     12  C   UNL d   1      32.559  23.191 -21.806  0.00  0.00     0.007 A 
ATOM     13  C   UNL d   1      32.459  23.596 -22.519  0.00  0.00     0.012 A 
ATOM     14  C   UNL d   1      32.713  23.255 -23.225  0.00  0.00     0.058 A 
ATOM     15  C   UNL d   1      33.067  22.510 -23.220  0.00  0.00     0.012 A 
ATOM     16 CL   UNL d   1      32.619  23.648 -23.944  0.00  0.00    -0.082 Cl
ATOM     17  C   UNL d   1      33.167  22.105 -22.508  0.00  0.00     0.007 A 
ENDBRANCH  10  11
ENDBRANCH   1  10
TORSDOF 3
ENDMDL
