MODEL 1
REMARK VINA RESULT:      11.4      0.000      0.000
REMARK  3 active torsions:
REMARK  status: ('A' for Active; 'I' for Inactive)
REMARK    1  A    between atoms: C_4  and  C_1 
REMARK       I    between atoms: N_7  and  C_4 
REMARK    2  A    between atoms: C_14  and  N_7 
REMARK    3  A    between atoms: C_9  and  C_10 
ROOT
ATOM      1  C   UNL d   1      46.115 -17.486  44.024  0.00  0.00     0.281 C 
ATOM      2  N   UNL d   1      46.056 -17.052  44.710  0.00  0.00    -0.208 NA
ATOM      3  O   UNL d   1      45.989 -17.128  43.290  0.00  0.00    -0.265 OA
ENDROOT
BRANCH   2   4
ATOM      4  C   UNL d   1      45.871 -16.256  44.671  0.00  0.00     0.085 A 
ATOM      5  C   UNL d   1      45.117 -16.000  44.952  0.00  0.00     0.019 A 
ATOM      6  C   UNL d   1      44.915 -15.208  44.920  0.00  0.00     0.005 A 
ATOM      7  C   UNL d   1      45.441 -14.654  44.617  0.00  0.00     0.039 A 
ATOM      8  C   UNL d   1      46.182 -14.913  44.342  0.00  0.00     0.005 A 
ATOM      9  C   UNL d   1      46.388 -15.705  44.372  0.00  0.00     0.019 A 
BRANCH   7  10
ATOM     10  C   UNL d   1      45.233 -13.836  44.585  0.00  0.00     0.196 C 
ATOM     11  O   UNL d   1      44.541 -13.594  44.241  0.00  0.00    -0.287 OA
ATOM     12  C   UNL d   1      45.750 -13.259  44.914  0.00  0.00     0.045 C 
ENDBRANCH   7  10
ENDBRANCH   2   4
BRANCH   1  13
ATOM     13  C   UNL d   1      46.301 -18.297  44.035  0.00  0.00     0.076 A 
ATOM     14  C   UNL d   1      46.502 -18.764  43.409  0.00  0.00     0.092 A 
ATOM     15  S   UNL d   1      46.647 -19.550  43.668  0.00  0.00    -0.064 SA
ATOM     16 CL   UNL d   1      46.560 -18.496  42.600  0.00  0.00    -0.075 Cl
ATOM     17  C   UNL d   1      46.535 -19.560  44.441  0.00  0.00     0.088 A 
ATOM     18  C   UNL d   1      46.318 -18.789  44.695  0.00  0.00     0.024 A 
ATOM     19 CL   UNL d   1      46.620 -20.241  44.937  0.00  0.00    -0.075 Cl
ENDBRANCH   1  13
TORSDOF 3
ENDMDL
