MODEL 1
REMARK VINA RESULT:       1.1      0.000      0.000
REMARK  8 active torsions:
REMARK  status: ('A' for Active; 'I' for Inactive)
REMARK    1  A    between atoms: C_6  and  N_1 
REMARK    2  A    between atoms: S_10  and  C_2 
REMARK    3  A    between atoms: C_12  and  C_3 
REMARK    4  A    between atoms: C_7  and  C_8 
REMARK    5  A    between atoms: C_21  and  S_10 
REMARK    6  A    between atoms: O_15  and  C_12 
REMARK    7  A    between atoms: C_13  and  C_21 
REMARK    8  A    between atoms: C_16  and  O_15 
ROOT
ATOM      1  N   UNL d   1      57.577   0.122  32.231  0.00  0.00    -0.268 N 
ATOM      2  C   UNL d   1      58.104   0.496  32.805  0.00  0.00     0.198 A 
ATOM      3  C   UNL d   1      58.004   0.048  31.482  0.00  0.00     0.196 A 
ATOM      4  N   UNL d   1      58.865   0.655  32.408  0.00  0.00    -0.122 NA
ATOM      5  N   UNL d   1      58.793   0.375  31.591  0.00  0.00    -0.126 NA
ENDROOT
BRANCH   3   6
ATOM      6  C   UNL d   1      57.689  -0.295  30.751  0.00  0.00     0.162 C 
BRANCH   6   7
ATOM      7  O   UNL d   1      58.226  -0.476  30.095  0.00  0.00    -0.300 OA
BRANCH   7   8
ATOM      8  C   UNL d   1      58.488  -1.191  29.780  0.00  0.00     0.118 A 
ATOM      9  C   UNL d   1      59.183  -1.209  29.338  0.00  0.00     0.104 A 
ATOM     10  N   UNL d   1      59.614  -0.516  29.212  0.00  0.00    -0.242 NA
ATOM     11  C   UNL d   1      59.450  -1.928  29.019  0.00  0.00     0.020 A 
ATOM     12  C   UNL d   1      60.310  -0.546  28.767  0.00  0.00     0.099 A 
ATOM     13  C   UNL d   1      60.566  -1.257  28.457  0.00  0.00     0.021 A 
ATOM     14  C   UNL d   1      60.139  -1.942  28.581  0.00  0.00     0.003 A 
ATOM     15  C   UNL d   1      59.023  -2.614  29.143  0.00  0.00     0.002 A 
ATOM     16  C   UNL d   1      58.328  -2.595  29.584  0.00  0.00     0.002 A 
ATOM     17  C   UNL d   1      58.058  -1.874  29.907  0.00  0.00     0.026 A 
ENDBRANCH   7   8
ENDBRANCH   6   7
ENDBRANCH   3   6
BRANCH   1  18
ATOM     18  C   UNL d   1      56.806  -0.121  32.371  0.00  0.00     0.067 A 
ATOM     19  C   UNL d   1      56.661  -0.871  32.662  0.00  0.00     0.021 A 
ATOM     20  C   UNL d   1      55.898  -1.119  32.803  0.00  0.00     0.073 A 
ATOM     21  C   UNL d   1      55.263  -0.608  32.650  0.00  0.00     0.004 A 
ATOM     22  C   UNL d   1      55.413   0.148  32.356  0.00  0.00     0.001 A 
ATOM     23  C   UNL d   1      56.176   0.389  32.218  0.00  0.00     0.018 A 
BRANCH  20  24
ATOM     24  C   UNL d   1      55.751  -1.885  33.101  0.00  0.00     0.419 C 
ATOM     25  F   UNL d   1      55.614  -2.588  33.373  0.00  0.00    -0.166 F 
ATOM     26  F   UNL d   1      56.214  -2.365  33.673  0.00  0.00    -0.166 F 
ATOM     27  F   UNL d   1      55.085  -2.432  32.924  0.00  0.00    -0.166 F 
ENDBRANCH  20  24
ENDBRANCH   1  18
BRANCH   2  28
ATOM     28  S   UNL d   1      57.912   0.677  33.623  0.00  0.00    -0.064 SA
BRANCH  28  29
ATOM     29  C   UNL d   1      58.516   0.630  34.241  0.00  0.00     0.162 C 
BRANCH  29  30
ATOM     30  C   UNL d   1      58.296   0.646  35.072  0.00  0.00     0.197 C 
ATOM     31  O   UNL d   1      57.459   0.681  35.298  0.00  0.00    -0.647 OA
ATOM     32  O   UNL d   1      58.907   0.627  35.680  0.00  0.00    -0.647 OA
ENDBRANCH  29  30
ENDBRANCH  28  29
ENDBRANCH   2  28
TORSDOF 8
ENDMDL
