MODEL 1
REMARK VINA RESULT:      -7.3      0.000      0.000
REMARK  7 active torsions:
REMARK  status: ('A' for Active; 'I' for Inactive)
REMARK    1  A    between atoms: S_2  and  C_1 
REMARK    2  A    between atoms: C_6  and  S_2 
REMARK    3  A    between atoms: C_24  and  C_16 
REMARK    4  A    between atoms: C_25  and  C_24 
REMARK    5  A    between atoms: C_28  and  C_25 
REMARK    6  A    between atoms: C_26  and  C_27 
REMARK    7  A    between atoms: C_27  and  C_28 
ROOT
ATOM      1  C   UNL d   1     -46.568  13.118  22.661  0.00  0.00     0.151 A 
ATOM      2  C   UNL d   1     -46.549  12.505  23.214  0.00  0.00     0.311 A 
ATOM      3  C   UNL d   1     -45.913  13.265  22.186  0.00  0.00     0.019 A 
ATOM      4  O   UNL d   1     -45.874  12.041  23.292  0.00  0.00    -0.272 OA
ATOM      5  C   UNL d   1     -45.218  12.188  22.816  0.00  0.00     0.106 A 
ATOM      6  C   UNL d   1     -45.237  12.801  22.263  0.00  0.00     0.024 A 
ATOM      7  C   UNL d   1     -44.543  11.724  22.894  0.00  0.00     0.067 A 
ATOM      8  C   UNL d   1     -43.875  11.869  22.415  0.00  0.00     0.198 A 
ATOM      9  C   UNL d   1     -44.582  12.948  21.789  0.00  0.00     0.005 A 
ATOM     10  C   UNL d   1     -43.894  12.481  21.862  0.00  0.00     0.039 A 
ATOM     11  O   UNL d   1     -47.217  12.354  23.698  0.00  0.00    -0.258 OA
ATOM     12  O   UNL d   1     -43.200  11.404  22.493  0.00  0.00    -0.286 OA
ENDROOT
BRANCH   1  13
ATOM     13  S   UNL d   1     -47.255  13.585  22.587  0.00  0.00     0.215 S 
ATOM     14  O   UNL d   1     -47.478  13.149  21.911  0.00  0.00    -0.217 OA
ATOM     15  O   UNL d   1     -47.036  14.019  23.259  0.00  0.00    -0.217 OA
BRANCH  13  16
ATOM     16  C   UNL d   1     -47.935  14.042  22.508  0.00  0.00     0.089 A 
ATOM     17  C   UNL d   1     -48.639  13.694  22.247  0.00  0.00     0.025 A 
ATOM     18  C   UNL d   1     -49.328  14.152  22.166  0.00  0.00     0.086 A 
ATOM     19 CL   UNL d   1     -50.027  13.803  21.905  0.00  0.00    -0.080 Cl
ATOM     20  C   UNL d   1     -49.309  14.956  22.347  0.00  0.00     0.151 A 
ATOM     21  C   UNL d   1     -48.609  15.304  22.607  0.00  0.00     0.031 A 
ATOM     22  F   UNL d   1     -49.994  15.413  22.267  0.00  0.00    -0.203 F 
ATOM     23  C   UNL d   1     -47.929  14.847  22.686  0.00  0.00     0.014 A 
ENDBRANCH  13  16
ENDBRANCH   1  13
BRANCH  10  24
ATOM     24  C   UNL d   1     -43.231  12.626  21.385  0.00  0.00     0.003 C 
BRANCH  24  25
ATOM     25  C   UNL d   1     -42.891  13.377  21.357  0.00  0.00     0.000 C 
BRANCH  25  26
ATOM     26  C   UNL d   1     -42.188  13.501  20.946  0.00  0.00     0.000 C 
BRANCH  26  27
ATOM     27  C   UNL d   1     -41.820  14.240  20.954  0.00  0.00     0.000 C 
BRANCH  27  28
ATOM     28  C   UNL d   1     -41.059  14.336  20.644  0.00  0.00     0.000 C 
ATOM     29  C   UNL d   1     -40.726  15.084  20.591  0.00  0.00     0.000 C 
ENDBRANCH  27  28
ENDBRANCH  26  27
ENDBRANCH  25  26
ENDBRANCH  24  25
ENDBRANCH  10  24
TORSDOF 7
ENDMDL
MODEL 2
REMARK VINA RESULT:      -6.5      1.206      1.873
REMARK  7 active torsions:
REMARK  status: ('A' for Active; 'I' for Inactive)
REMARK    1  A    between atoms: S_2  and  C_1 
REMARK    2  A    between atoms: C_6  and  S_2 
REMARK    3  A    between atoms: C_24  and  C_16 
REMARK    4  A    between atoms: C_25  and  C_24 
REMARK    5  A    between atoms: C_28  and  C_25 
REMARK    6  A    between atoms: C_26  and  C_27 
REMARK    7  A    between atoms: C_27  and  C_28 
ROOT
ATOM      1  C   UNL d   1     -48.060  12.504  23.067  0.00  0.00     0.151 A 
ATOM      2  C   UNL d   1     -48.261  11.822  23.485  0.00  0.00     0.311 A 
ATOM      3  C   UNL d   1     -47.276  12.643  22.859  0.00  0.00     0.019 A 
ATOM      4  O   UNL d   1     -47.679  11.279  23.694  0.00  0.00    -0.272 OA
ATOM      5  C   UNL d   1     -46.894  11.419  23.486  0.00  0.00     0.106 A 
ATOM      6  C   UNL d   1     -46.693  12.101  23.068  0.00  0.00     0.024 A 
ATOM      7  C   UNL d   1     -46.312  10.876  23.696  0.00  0.00     0.067 A 
ATOM      8  C   UNL d   1     -45.515  11.012  23.487  0.00  0.00     0.198 A 
ATOM      9  C   UNL d   1     -45.909  12.240  22.860  0.00  0.00     0.005 A 
ATOM     10  C   UNL d   1     -45.313  11.694  23.070  0.00  0.00     0.039 A 
ATOM     11  O   UNL d   1     -49.059  11.678  23.697  0.00  0.00    -0.258 OA
ATOM     12  O   UNL d   1     -44.933  10.469  23.697  0.00  0.00    -0.286 OA
ENDROOT
BRANCH   1  13
ATOM     13  S   UNL d   1     -48.654  13.050  22.858  0.00  0.00     0.215 S 
ATOM     14  O   UNL d   1     -48.486  12.923  22.050  0.00  0.00    -0.217 OA
ATOM     15  O   UNL d   1     -48.824  13.178  23.660  0.00  0.00    -0.217 OA
BRANCH  13  16
ATOM     16  C   UNL d   1     -49.240  13.587  22.644  0.00  0.00     0.089 A 
ATOM     17  C   UNL d   1     -49.219  14.360  22.940  0.00  0.00     0.025 A 
ATOM     18  C   UNL d   1     -49.809  14.905  22.727  0.00  0.00     0.086 A 
ATOM     19 CL   UNL d   1     -49.786  15.674  23.023  0.00  0.00    -0.080 Cl
ATOM     20  C   UNL d   1     -50.416  14.675  22.218  0.00  0.00     0.151 A 
ATOM     21  C   UNL d   1     -50.437  13.907  21.923  0.00  0.00     0.031 A 
ATOM     22  F   UNL d   1     -51.003  15.218  22.005  0.00  0.00    -0.203 F 
ATOM     23  C   UNL d   1     -49.852  13.369  22.136  0.00  0.00     0.014 A 
ENDBRANCH  13  16
ENDBRANCH   1  13
BRANCH  10  24
ATOM     24  C   UNL d   1     -44.522  11.832  22.862  0.00  0.00     0.003 C 
BRANCH  24  25
ATOM     25  C   UNL d   1     -44.334  12.327  22.229  0.00  0.00     0.000 C 
BRANCH  25  26
ATOM     26  C   UNL d   1     -43.574  12.328  21.914  0.00  0.00     0.000 C 
BRANCH  26  27
ATOM     27  C   UNL d   1     -43.293  12.981  21.493  0.00  0.00     0.000 C 
BRANCH  27  28
ATOM     28  C   UNL d   1     -42.506  13.014  21.238  0.00  0.00     0.000 C 
ATOM     29  C   UNL d   1     -42.182  13.725  20.989  0.00  0.00     0.000 C 
ENDBRANCH  27  28
ENDBRANCH  26  27
ENDBRANCH  25  26
ENDBRANCH  24  25
ENDBRANCH  10  24
TORSDOF 7
ENDMDL
MODEL 3
REMARK VINA RESULT:      -4.8      0.915      1.371
REMARK  7 active torsions:
REMARK  status: ('A' for Active; 'I' for Inactive)
REMARK    1  A    between atoms: S_2  and  C_1 
REMARK    2  A    between atoms: C_6  and  S_2 
REMARK    3  A    between atoms: C_24  and  C_16 
REMARK    4  A    between atoms: C_25  and  C_24 
REMARK    5  A    between atoms: C_28  and  C_25 
REMARK    6  A    between atoms: C_26  and  C_27 
REMARK    7  A    between atoms: C_27  and  C_28 
ROOT
ATOM      1  C   UNL d   1     -47.303  12.726  23.130  0.00  0.00     0.151 A 
ATOM      2  C   UNL d   1     -47.520  12.002  23.461  0.00  0.00     0.311 A 
ATOM      3  C   UNL d   1     -46.525  12.856  22.897  0.00  0.00     0.019 A 
ATOM      4  O   UNL d   1     -46.958  11.408  23.559  0.00  0.00    -0.272 OA
ATOM      5  C   UNL d   1     -46.179  11.539  23.326  0.00  0.00     0.106 A 
ATOM      6  C   UNL d   1     -45.962  12.262  22.995  0.00  0.00     0.024 A 
ATOM      7  C   UNL d   1     -45.617  10.945  23.424  0.00  0.00     0.067 A 
ATOM      8  C   UNL d   1     -44.826  11.071  23.190  0.00  0.00     0.198 A 
ATOM      9  C   UNL d   1     -45.184  12.393  22.763  0.00  0.00     0.005 A 
ATOM     10  C   UNL d   1     -44.609  11.795  22.859  0.00  0.00     0.039 A 
ATOM     11  O   UNL d   1     -48.313  11.868  23.698  0.00  0.00    -0.258 OA
ATOM     12  O   UNL d   1     -44.264  10.477  23.289  0.00  0.00    -0.286 OA
ENDROOT
BRANCH   1  13
ATOM     13  S   UNL d   1     -47.877  13.323  23.033  0.00  0.00     0.215 S 
ATOM     14  O   UNL d   1     -47.451  13.816  23.554  0.00  0.00    -0.217 OA
ATOM     15  O   UNL d   1     -48.303  12.834  22.514  0.00  0.00    -0.217 OA
BRANCH  13  16
ATOM     16  C   UNL d   1     -48.440  13.916  22.942  0.00  0.00     0.089 A 
ATOM     17  C   UNL d   1     -48.269  14.579  22.477  0.00  0.00     0.025 A 
ATOM     18  C   UNL d   1     -48.834  15.181  22.383  0.00  0.00     0.086 A 
ATOM     19 CL   UNL d   1     -48.663  15.841  21.920  0.00  0.00    -0.080 Cl
ATOM     20  C   UNL d   1     -49.568  15.116  22.754  0.00  0.00     0.151 A 
ATOM     21  C   UNL d   1     -49.739  14.457  23.217  0.00  0.00     0.031 A 
ATOM     22  F   UNL d   1     -50.132  15.714  22.661  0.00  0.00    -0.203 F 
ATOM     23  C   UNL d   1     -49.177  13.863  23.308  0.00  0.00     0.014 A 
ENDBRANCH  13  16
ENDBRANCH   1  13
BRANCH  10  24
ATOM     24  C   UNL d   1     -43.823  11.923  22.626  0.00  0.00     0.003 C 
BRANCH  24  25
ATOM     25  C   UNL d   1     -43.653  12.342  21.936  0.00  0.00     0.000 C 
BRANCH  25  26
ATOM     26  C   UNL d   1     -42.907  12.672  21.824  0.00  0.00     0.000 C 
BRANCH  26  27
ATOM     27  C   UNL d   1     -42.736  13.104  21.141  0.00  0.00     0.000 C 
BRANCH  27  28
ATOM     28  C   UNL d   1     -41.959  13.330  20.966  0.00  0.00     0.000 C 
ATOM     29  C   UNL d   1     -41.816  13.961  20.462  0.00  0.00     0.000 C 
ENDBRANCH  27  28
ENDBRANCH  26  27
ENDBRANCH  25  26
ENDBRANCH  24  25
ENDBRANCH  10  24
TORSDOF 7
ENDMDL
