MODEL 1
REMARK VINA RESULT:      -3.3      0.000      0.000
REMARK  7 active torsions:
REMARK  status: ('A' for Active; 'I' for Inactive)
REMARK    1  A    between atoms: C_2  and  S_1 
REMARK    2  A    between atoms: N_3  and  S_1 
REMARK    3  A    between atoms: C_18  and  N_3 
REMARK    4  A    between atoms: C_6  and  C_21 
REMARK       I    between atoms: N_7  and  C_6 
REMARK    5  A    between atoms: C_12  and  N_7 
REMARK    6  A    between atoms: C_22  and  C_18 
REMARK    7  A    between atoms: C_21  and  C_22 
ROOT
ATOM      1  N   UNL d   1      32.942  19.035 -23.634  0.00  0.00    -0.228 N 
ATOM      2  C   UNL d   1      33.237  19.562 -24.180  0.00  0.00     0.111 C 
ENDROOT
BRANCH   1   3
ATOM      3  S   UNL d   1      32.624  18.317 -23.879  0.00  0.00     0.271 S 
ATOM      4  O   UNL d   1      32.702  18.560 -24.642  0.00  0.00    -0.200 OA
ATOM      5  O   UNL d   1      32.542  18.063 -23.091  0.00  0.00    -0.200 OA
BRANCH   3   6
ATOM      6  C   UNL d   1      32.310  17.608 -24.130  0.00  0.00     0.104 A 
ATOM      7  C   UNL d   1      32.784  16.942 -24.182  0.00  0.00     0.013 A 
ATOM      8  C   UNL d   1      32.472  16.214 -24.436  0.00  0.00     0.001 A 
ATOM      9  C   UNL d   1      31.677  16.164 -24.638  0.00  0.00     0.000 A 
ATOM     10  C   UNL d   1      31.192  16.826 -24.590  0.00  0.00     0.001 A 
ATOM     11  C   UNL d   1      31.364  15.453 -24.889  0.00  0.00     0.000 C 
ATOM     12  C   UNL d   1      31.504  17.550 -24.336  0.00  0.00     0.013 A 
ENDBRANCH   3   6
ENDBRANCH   1   3
BRANCH   1  13
ATOM     13  C   UNL d   1      32.959  19.218 -22.827  0.00  0.00     0.092 C 
BRANCH  13  14
ATOM     14  C   UNL d   1      33.031  20.006 -22.589  0.00  0.00     0.025 C 
BRANCH  14  15
ATOM     15  C   UNL d   1      32.952  20.201 -21.792  0.00  0.00     0.064 C 
BRANCH  15  16
ATOM     16  C   UNL d   1      32.884  20.992 -21.566  0.00  0.00     0.279 C 
ATOM     17  N   UNL d   1      32.752  21.188 -20.772  0.00  0.00    -0.208 NA
ATOM     18  O   UNL d   1      32.947  21.590 -22.131  0.00  0.00    -0.265 OA
BRANCH  17  19
ATOM     19  C   UNL d   1      32.684  21.977 -20.546  0.00  0.00     0.088 A 
ATOM     20  C   UNL d   1      33.163  22.277 -19.949  0.00  0.00     0.040 A 
ATOM     21  C   UNL d   1      33.099  23.066 -19.719  0.00  0.00     0.101 A 
ATOM     22  N   UNL d   1      32.548  23.559 -20.093  0.00  0.00    -0.242 NA
ATOM     23  C   UNL d   1      32.067  23.258 -20.693  0.00  0.00     0.101 A 
ATOM     24  C   UNL d   1      32.135  22.468 -20.919  0.00  0.00     0.040 A 
ENDBRANCH  17  19
ENDBRANCH  15  16
ENDBRANCH  14  15
ENDBRANCH  13  14
ENDBRANCH   1  13
TORSDOF 7
ENDMDL
MODEL 2
REMARK VINA RESULT:      -2.1      1.620      2.475
REMARK  7 active torsions:
REMARK  status: ('A' for Active; 'I' for Inactive)
REMARK    1  A    between atoms: C_2  and  S_1 
REMARK    2  A    between atoms: N_3  and  S_1 
REMARK    3  A    between atoms: C_18  and  N_3 
REMARK    4  A    between atoms: C_6  and  C_21 
REMARK       I    between atoms: N_7  and  C_6 
REMARK    5  A    between atoms: C_12  and  N_7 
REMARK    6  A    between atoms: C_22  and  C_18 
REMARK    7  A    between atoms: C_21  and  C_22 
ROOT
ATOM      1  N   UNL d   1      32.021  17.106 -24.273  0.00  0.00    -0.228 N 
ATOM      2  C   UNL d   1      32.383  17.117 -25.002  0.00  0.00     0.111 C 
ENDROOT
BRANCH   1   3
ATOM      3  S   UNL d   1      31.270  16.780 -24.186  0.00  0.00     0.271 S 
ATOM      4  O   UNL d   1      31.519  16.427 -23.508  0.00  0.00    -0.200 OA
ATOM      5  O   UNL d   1      31.011  17.145 -24.888  0.00  0.00    -0.200 OA
BRANCH   3   6
ATOM      6  C   UNL d   1      30.529  16.454 -24.094  0.00  0.00     0.104 A 
ATOM      7  C   UNL d   1      29.938  16.612 -24.638  0.00  0.00     0.013 A 
ATOM      8  C   UNL d   1      29.179  16.284 -24.552  0.00  0.00     0.001 A 
ATOM      9  C   UNL d   1      29.022  15.794 -23.911  0.00  0.00     0.000 A 
ATOM     10  C   UNL d   1      29.607  15.629 -23.359  0.00  0.00     0.001 A 
ATOM     11  C   UNL d   1      28.278  15.468 -23.820  0.00  0.00     0.000 C 
ATOM     12  C   UNL d   1      30.363  15.956 -23.446  0.00  0.00     0.013 A 
ENDBRANCH   3   6
ENDBRANCH   1   3
BRANCH   1  13
ATOM     13  C   UNL d   1      32.405  17.423 -23.613  0.00  0.00     0.092 C 
BRANCH  13  14
ATOM     14  C   UNL d   1      32.661  18.209 -23.627  0.00  0.00     0.025 C 
BRANCH  14  15
ATOM     15  C   UNL d   1      33.239  18.461 -23.097  0.00  0.00     0.064 C 
BRANCH  15  16
ATOM     16  C   UNL d   1      33.227  19.234 -22.809  0.00  0.00     0.279 C 
ATOM     17  N   UNL d   1      33.222  19.374 -21.993  0.00  0.00    -0.208 NA
ATOM     18  O   UNL d   1      33.220  19.871 -23.336  0.00  0.00    -0.265 OA
BRANCH  17  19
ATOM     19  C   UNL d   1      33.209  20.147 -21.706  0.00  0.00     0.088 A 
ATOM     20  C   UNL d   1      33.166  20.779 -22.229  0.00  0.00     0.040 A 
ATOM     21  C   UNL d   1      33.153  21.554 -21.947  0.00  0.00     0.101 A 
ATOM     22  N   UNL d   1      33.185  21.694 -21.131  0.00  0.00    -0.242 NA
ATOM     23  C   UNL d   1      33.229  21.059 -20.606  0.00  0.00     0.101 A 
ATOM     24  C   UNL d   1      33.241  20.286 -20.893  0.00  0.00     0.040 A 
ENDBRANCH  17  19
ENDBRANCH  15  16
ENDBRANCH  14  15
ENDBRANCH  13  14
ENDBRANCH   1  13
TORSDOF 7
ENDMDL
MODEL 3
REMARK VINA RESULT:      -0.3      1.363      5.990
REMARK  7 active torsions:
REMARK  status: ('A' for Active; 'I' for Inactive)
REMARK    1  A    between atoms: C_2  and  S_1 
REMARK    2  A    between atoms: N_3  and  S_1 
REMARK    3  A    between atoms: C_18  and  N_3 
REMARK    4  A    between atoms: C_6  and  C_21 
REMARK       I    between atoms: N_7  and  C_6 
REMARK    5  A    between atoms: C_12  and  N_7 
REMARK    6  A    between atoms: C_22  and  C_18 
REMARK    7  A    between atoms: C_21  and  C_22 
ROOT
ATOM      1  N   UNL d   1      33.090  21.442 -21.860  0.00  0.00    -0.228 N 
ATOM      2  C   UNL d   1      33.214  21.806 -22.577  0.00  0.00     0.111 C 
ENDROOT
BRANCH   1   3
ATOM      3  S   UNL d   1      33.006  21.891 -21.175  0.00  0.00     0.271 S 
ATOM      4  O   UNL d   1      32.978  22.553 -21.630  0.00  0.00    -0.200 OA
ATOM      5  O   UNL d   1      33.034  21.206 -20.702  0.00  0.00    -0.200 OA
BRANCH   3   6
ATOM      6  C   UNL d   1      32.922  22.341 -20.501  0.00  0.00     0.104 A 
ATOM      7  C   UNL d   1      33.241  22.085 -19.791  0.00  0.00     0.013 A 
ATOM      8  C   UNL d   1      33.160  22.538 -19.099  0.00  0.00     0.001 A 
ATOM      9  C   UNL d   1      32.755  23.252 -19.128  0.00  0.00     0.000 A 
ATOM     10  C   UNL d   1      32.431  23.519 -19.835  0.00  0.00     0.001 A 
ATOM     11  C   UNL d   1      32.672  23.702 -18.451  0.00  0.00     0.000 C 
ATOM     12  C   UNL d   1      32.512  23.067 -20.524  0.00  0.00     0.013 A 
ENDBRANCH   3   6
ENDBRANCH   1   3
BRANCH   1  13
ATOM     13  C   UNL d   1      33.047  20.617 -21.814  0.00  0.00     0.092 C 
BRANCH  13  14
ATOM     14  C   UNL d   1      33.092  20.167 -22.505  0.00  0.00     0.025 C 
BRANCH  14  15
ATOM     15  C   UNL d   1      33.157  19.347 -22.456  0.00  0.00     0.064 C 
BRANCH  15  16
ATOM     16  C   UNL d   1      32.909  18.875 -23.086  0.00  0.00     0.279 C 
ATOM     17  N   UNL d   1      32.709  18.082 -22.958  0.00  0.00    -0.208 NA
ATOM     18  O   UNL d   1      32.861  19.193 -23.847  0.00  0.00    -0.265 OA
BRANCH  17  19
ATOM     19  C   UNL d   1      32.461  17.610 -23.588  0.00  0.00     0.088 A 
ATOM     20  C   UNL d   1      32.981  17.072 -23.926  0.00  0.00     0.040 A 
ATOM     21  C   UNL d   1      32.740  16.598 -24.556  0.00  0.00     0.101 A 
ATOM     22  N   UNL d   1      31.967  16.666 -24.848  0.00  0.00    -0.242 NA
ATOM     23  C   UNL d   1      31.445  17.207 -24.508  0.00  0.00     0.101 A 
ATOM     24  C   UNL d   1      31.692  17.679 -23.878  0.00  0.00     0.040 A 
ENDBRANCH  17  19
ENDBRANCH  15  16
ENDBRANCH  14  15
ENDBRANCH  13  14
ENDBRANCH   1  13
TORSDOF 7
ENDMDL
