MODEL 1
REMARK VINA RESULT:      13.8      0.000      0.000
REMARK  2 active torsions:
REMARK  status: ('A' for Active; 'I' for Inactive)
REMARK    1  A    between atoms: C_7  and  C_5 
REMARK    2  A    between atoms: C_8  and  C_7 
ROOT
ATOM      1  C   UNL d   1     -56.512 -98.755 -44.953  0.00  0.00     0.046 C 
ENDROOT
BRANCH   1   2
ATOM      2  C   UNL d   1     -55.919 -99.245 -44.691  0.00  0.00     0.205 A 
ATOM      3  N   UNL d   1     -55.258 -98.956 -44.331  0.00  0.00    -0.120 NA
ATOM      4  N   UNL d   1     -54.776 -99.601 -44.137  0.00  0.00    -0.109 NA
ATOM      5  C   UNL d   1     -55.171-100.271 -44.392  0.00  0.00     0.262 A 
ATOM      6  O   UNL d   1     -55.845-100.073 -44.719  0.00  0.00    -0.260 OA
ATOM      7  S   UNL d   1     -54.891-101.065 -44.313  0.00  0.00    -0.029 SA
ENDBRANCH   1   2
BRANCH   1   8
ATOM      8  C   UNL d   1     -57.265 -98.757 -44.559  0.00  0.00     0.004 A 
ATOM      9  C   UNL d   1     -57.332 -98.759 -43.736  0.00  0.00     0.000 A 
ATOM     10  C   UNL d   1     -58.068 -98.760 -43.365  0.00  0.00     0.000 A 
ATOM     11  C   UNL d   1     -58.742 -98.759 -43.843  0.00  0.00     0.000 A 
ATOM     12  C   UNL d   1     -58.697 -98.757 -44.664  0.00  0.00     0.000 A 
ATOM     13  C   UNL d   1     -57.918 -98.756 -45.026  0.00  0.00     0.000 A 
ENDBRANCH   1   8
TORSDOF 2
ENDMDL
MODEL 2
REMARK VINA RESULT:      14.1      2.024      3.102
REMARK  2 active torsions:
REMARK  status: ('A' for Active; 'I' for Inactive)
REMARK    1  A    between atoms: C_7  and  C_5 
REMARK    2  A    between atoms: C_8  and  C_7 
ROOT
ATOM      1  C   UNL d   1     -56.735 -98.755 -45.118  0.00  0.00     0.046 C 
ENDROOT
BRANCH   1   2
ATOM      2  C   UNL d   1     -57.463 -98.758 -44.755  0.00  0.00     0.205 A 
ATOM      3  N   UNL d   1     -58.148 -98.763 -45.180  0.00  0.00    -0.120 NA
ATOM      4  N   UNL d   1     -58.777 -98.764 -44.641  0.00  0.00    -0.109 NA
ATOM      5  C   UNL d   1     -58.442 -98.759 -43.894  0.00  0.00     0.262 A 
ATOM      6  O   UNL d   1     -57.668 -98.755 -43.950  0.00  0.00    -0.260 OA
ATOM      7  S   UNL d   1     -58.870 -98.759 -43.165  0.00  0.00    -0.029 SA
ENDBRANCH   1   2
BRANCH   1   8
ATOM      8  C   UNL d   1     -56.094 -99.199 -44.778  0.00  0.00     0.004 A 
ATOM      9  C   UNL d   1     -56.132-100.017 -44.671  0.00  0.00     0.000 A 
ATOM     10  C   UNL d   1     -55.504-100.436 -44.341  0.00  0.00     0.000 A 
ATOM     11  C   UNL d   1     -54.830-100.013 -44.118  0.00  0.00     0.000 A 
ATOM     12  C   UNL d   1     -54.773 -99.199 -44.216  0.00  0.00     0.000 A 
ATOM     13  C   UNL d   1     -55.442 -98.784 -44.563  0.00  0.00     0.000 A 
ENDBRANCH   1   8
TORSDOF 2
ENDMDL
MODEL 3
REMARK VINA RESULT:      15.5      6.899      7.587
REMARK  2 active torsions:
REMARK  status: ('A' for Active; 'I' for Inactive)
REMARK    1  A    between atoms: C_7  and  C_5 
REMARK    2  A    between atoms: C_8  and  C_7 
ROOT
ATOM      1  C   UNL d   1     -54.750-101.007 -37.976  0.00  0.00     0.046 C 
ENDROOT
BRANCH   1   2
ATOM      2  C   UNL d   1     -54.794-101.296 -37.218  0.00  0.00     0.205 A 
ATOM      3  N   UNL d   1     -54.740-100.812 -36.575  0.00  0.00    -0.120 NA
ATOM      4  N   UNL d   1     -54.807-101.286 -35.899  0.00  0.00    -0.109 NA
ATOM      5  C   UNL d   1     -54.902-102.055 -36.162  0.00  0.00     0.262 A 
ATOM      6  O   UNL d   1     -54.896-102.072 -36.938  0.00  0.00    -0.260 OA
ATOM      7  S   UNL d   1     -54.993-102.734 -35.668  0.00  0.00    -0.029 SA
ENDBRANCH   1   2
BRANCH   1   8
ATOM      8  C   UNL d   1     -54.742-101.547 -38.633  0.00  0.00     0.004 A 
ATOM      9  C   UNL d   1     -54.737-102.366 -38.531  0.00  0.00     0.000 A 
ATOM     10  C   UNL d   1     -54.729-102.879 -39.176  0.00  0.00     0.000 A 
ATOM     11  C   UNL d   1     -54.726-102.549 -39.933  0.00  0.00     0.000 A 
ATOM     12  C   UNL d   1     -54.730-101.736 -40.056  0.00  0.00     0.000 A 
ATOM     13  C   UNL d   1     -54.738-101.222 -39.367  0.00  0.00     0.000 A 
ENDBRANCH   1   8
TORSDOF 2
ENDMDL
