MODEL 1
REMARK VINA RESULT:      -4.2      0.000      0.000
REMARK  5 active torsions:
REMARK  status: ('A' for Active; 'I' for Inactive)
REMARK    1  A    between atoms: C_6  and  C_3 
REMARK    2  A    between atoms: C_7  and  C_6 
REMARK    3  A    between atoms: C_8  and  C_7 
REMARK    4  A    between atoms: O_16  and  C_10 
REMARK    5  A    between atoms: O_17  and  C_12 
ROOT
ATOM      1  C   UNL d   1     -41.897-122.335 -51.402  0.00  0.00     0.198 C 
ATOM      2  O   UNL d   1     -42.303-121.620 -51.502  0.00  0.00    -0.286 OA
ENDROOT
BRANCH   1   3
ATOM      3  C   UNL d   1     -41.524-122.691 -52.053  0.00  0.00     0.067 C 
BRANCH   3   4
ATOM      4  C   UNL d   1     -41.658-122.400 -52.811  0.00  0.00     0.107 A 
ATOM      5  O   UNL d   1     -41.964-121.648 -53.007  0.00  0.00    -0.273 OA
ATOM      6  C   UNL d   1     -42.004-121.594 -53.824  0.00  0.00     0.300 A 
ATOM      7  C   UNL d   1     -41.725-122.307 -54.142  0.00  0.00     0.065 A 
ATOM      8  O   UNL d   1     -42.275-120.944 -54.259  0.00  0.00    -0.259 OA
ATOM      9  C   UNL d   1     -41.513-122.800 -53.515  0.00  0.00     0.028 A 
ATOM     10  C   UNL d   1     -41.639-122.564 -54.921  0.00  0.00     0.005 A 
ATOM     11  C   UNL d   1     -41.211-123.560 -53.666  0.00  0.00     0.002 A 
ATOM     12  C   UNL d   1     -41.124-123.817 -54.445  0.00  0.00     0.000 A 
ATOM     13  C   UNL d   1     -41.340-123.316 -55.074  0.00  0.00     0.000 A 
ENDBRANCH   3   4
ENDBRANCH   1   3
BRANCH   1  14
ATOM     14  C   UNL d   1     -41.860-122.694 -50.663  0.00  0.00     0.041 A 
ATOM     15  C   UNL d   1     -42.533-123.047 -50.350  0.00  0.00     0.029 A 
ATOM     16  C   UNL d   1     -42.507-123.410 -49.610  0.00  0.00     0.116 A 
ATOM     17  C   UNL d   1     -41.800-123.418 -49.182  0.00  0.00     0.116 A 
ATOM     18  C   UNL d   1     -41.123-123.061 -49.501  0.00  0.00     0.026 A 
ATOM     19  C   UNL d   1     -41.159-122.702 -50.240  0.00  0.00     0.005 A 
BRANCH  16  20
ATOM     20  O   UNL d   1     -43.181-123.764 -49.297  0.00  0.00    -0.326 OA
ATOM     21  C   UNL d   1     -43.917-123.642 -49.659  0.00  0.00     0.181 C 
ENDBRANCH  16  20
BRANCH  17  22
ATOM     22  O   UNL d   1     -41.764-123.778 -48.443  0.00  0.00    -0.326 OA
ATOM     23  C   UNL d   1     -41.168-123.573 -47.906  0.00  0.00     0.181 C 
ENDBRANCH  17  22
ENDBRANCH   1  14
TORSDOF 5
ENDMDL
MODEL 2
REMARK VINA RESULT:      -3.2      0.988      4.530
REMARK  5 active torsions:
REMARK  status: ('A' for Active; 'I' for Inactive)
REMARK    1  A    between atoms: C_6  and  C_3 
REMARK    2  A    between atoms: C_7  and  C_6 
REMARK    3  A    between atoms: C_8  and  C_7 
REMARK    4  A    between atoms: O_16  and  C_10 
REMARK    5  A    between atoms: O_17  and  C_12 
ROOT
ATOM      1  C   UNL d   1     -41.481-122.022 -51.887  0.00  0.00     0.198 C 
ATOM      2  O   UNL d   1     -41.576-121.221 -51.701  0.00  0.00    -0.286 OA
ENDROOT
BRANCH   1   3
ATOM      3  C   UNL d   1     -41.385-122.577 -51.276  0.00  0.00     0.067 C 
BRANCH   3   4
ATOM      4  C   UNL d   1     -41.936-122.613 -50.666  0.00  0.00     0.107 A 
ATOM      5  O   UNL d   1     -42.718-122.323 -50.685  0.00  0.00    -0.273 OA
ATOM      6  C   UNL d   1     -43.066-122.477 -49.960  0.00  0.00     0.300 A 
ATOM      7  C   UNL d   1     -42.507-122.863 -49.484  0.00  0.00     0.065 A 
ATOM      8  O   UNL d   1     -43.840-122.284 -49.736  0.00  0.00    -0.259 OA
ATOM      9  C   UNL d   1     -41.812-122.945 -49.922  0.00  0.00     0.028 A 
ATOM     10  C   UNL d   1     -42.547-123.147 -48.711  0.00  0.00     0.005 A 
ATOM     11  C   UNL d   1     -41.148-123.315 -49.586  0.00  0.00     0.002 A 
ATOM     12  C   UNL d   1     -41.187-123.599 -48.813  0.00  0.00     0.000 A 
ATOM     13  C   UNL d   1     -41.890-123.514 -48.375  0.00  0.00     0.000 A 
ENDBRANCH   3   4
ENDBRANCH   1   3
BRANCH   1  14
ATOM     14  C   UNL d   1     -41.480-122.272 -52.669  0.00  0.00     0.041 A 
ATOM     15  C   UNL d   1     -41.841-121.807 -53.244  0.00  0.00     0.029 A 
ATOM     16  C   UNL d   1     -41.846-122.048 -54.032  0.00  0.00     0.116 A 
ATOM     17  C   UNL d   1     -41.486-122.761 -54.246  0.00  0.00     0.116 A 
ATOM     18  C   UNL d   1     -41.123-123.228 -53.664  0.00  0.00     0.026 A 
ATOM     19  C   UNL d   1     -41.123-122.978 -52.880  0.00  0.00     0.005 A 
BRANCH  16  20
ATOM     20  O   UNL d   1     -42.208-121.583 -54.607  0.00  0.00    -0.326 OA
ATOM     21  C   UNL d   1     -42.972-121.288 -54.478  0.00  0.00     0.181 C 
ENDBRANCH  16  20
BRANCH  17  22
ATOM     22  O   UNL d   1     -41.486-123.011 -55.029  0.00  0.00    -0.326 OA
ATOM     23  C   UNL d   1     -41.429-123.816 -55.213  0.00  0.00     0.181 C 
ENDBRANCH  17  22
ENDBRANCH   1  14
TORSDOF 5
ENDMDL
