MODEL 1
REMARK VINA RESULT:      32.3      0.000      0.000
REMARK  4 active torsions:
REMARK  status: ('A' for Active; 'I' for Inactive)
REMARK    1  A    between atoms: N_7  and  C_1 
REMARK    2  A    between atoms: S_3  and  N_7 
REMARK    3  A    between atoms: N_8  and  S_3 
REMARK    4  A    between atoms: C_12  and  N_5 
ROOT
ATOM      1  C   UNL d   1      13.207  12.423  -3.549  0.00  0.00     0.170 A 
ATOM      2  C   UNL d   1      13.316  13.175  -3.398  0.00  0.00     0.299 A 
ATOM      3  N   UNL d   1      13.245  12.975  -4.640  0.00  0.00    -0.238 N 
ATOM      4  N   UNL d   1      13.341  13.543  -4.135  0.00  0.00    -0.209 N 
ATOM      5  C   UNL d   1      13.155  12.223  -4.252  0.00  0.00     0.105 A 
ATOM      6  O   UNL d   1      13.393  13.542  -2.650  0.00  0.00    -0.263 OA
ATOM      7  C   UNL d   1      13.231  13.085  -5.477  0.00  0.00     0.120 C 
ATOM      8  C   UNL d   1      13.074  11.779  -4.811  0.00  0.00     0.022 C 
ENDROOT
BRANCH   1   9
ATOM      9  N   UNL d   1      13.144  11.822  -2.974  0.00  0.00    -0.137 NA
BRANCH   9  10
ATOM     10  S   UNL d   1      13.630  11.831  -2.285  0.00  0.00     0.351 S 
ATOM     11  O   UNL d   1      14.344  11.883  -2.731  0.00  0.00    -0.180 OA
ATOM     12  O   UNL d   1      12.919  11.780  -1.848  0.00  0.00    -0.180 OA
BRANCH  10  13
ATOM     13  N   UNL d   1      14.024  11.834  -1.553  0.00  0.00    -0.215 N 
ATOM     14  C   UNL d   1      14.865  11.870  -1.528  0.00  0.00     0.093 A 
ATOM     15  C   UNL d   1      15.255  11.872  -0.793  0.00  0.00     0.020 A 
ATOM     16  C   UNL d   1      14.816  11.839  -0.079  0.00  0.00     0.003 A 
ATOM     17  C   UNL d   1      13.982  11.802  -0.104  0.00  0.00     0.020 A 
ATOM     18  C   UNL d   1      13.579  11.800  -0.847  0.00  0.00     0.093 A 
ENDBRANCH  10  13
ENDBRANCH   9  10
ENDBRANCH   1   9
BRANCH   4  19
ATOM     19  C   UNL d   1      13.444  14.351  -4.373  0.00  0.00     0.085 A 
ATOM     20  C   UNL d   1      14.161  14.717  -4.196  0.00  0.00     0.019 A 
ATOM     21  C   UNL d   1      14.271  15.506  -4.425  0.00  0.00     0.002 A 
ATOM     22  C   UNL d   1      13.665  15.895  -4.818  0.00  0.00     0.000 A 
ATOM     23  C   UNL d   1      12.989  15.504  -4.969  0.00  0.00     0.002 A 
ATOM     24  C   UNL d   1      12.889  14.721  -4.738  0.00  0.00     0.019 A 
ENDBRANCH   4  19
TORSDOF 4
ENDMDL
