MODEL 1
REMARK VINA RESULT:      -3.0      0.000      0.000
REMARK  5 active torsions:
REMARK  status: ('A' for Active; 'I' for Inactive)
REMARK    1  A    between atoms: S_3  and  C_1 
REMARK    2  A    between atoms: C_7  and  S_3 
REMARK    3  A    between atoms: N_11  and  C_4 
REMARK    4  A    between atoms: C_10  and  C_5 
REMARK    5  A    between atoms: C_24  and  N_11 
ROOT
ATOM      1  C   UNL d   1      56.785  -0.277  31.702  0.00  0.00     0.042 A 
ATOM      2  C   UNL d   1      56.403  -0.908  32.081  0.00  0.00     0.006 A 
ATOM      3  C   UNL d   1      56.666   0.495  31.933  0.00  0.00     0.006 A 
ATOM      4  C   UNL d   1      55.764   0.041  32.947  0.00  0.00     0.094 A 
ATOM      5  C   UNL d   1      55.886  -0.743  32.711  0.00  0.00     0.024 A 
ATOM      6  C   UNL d   1      56.154   0.660  32.558  0.00  0.00     0.024 A 
ATOM      7  O   UNL d   1      55.240   0.187  33.584  0.00  0.00    -0.328 OA
ATOM      8  C   UNL d   1      54.723   0.350  34.215  0.00  0.00     0.181 C 
ENDROOT
BRANCH   1   9
ATOM      9  C   UNL d   1      57.305  -0.435  31.069  0.00  0.00     0.186 A 
ATOM     10  N   UNL d   1      57.713  -1.147  30.994  0.00  0.00    -0.206 NA
ATOM     11  C   UNL d   1      58.175  -1.107  30.303  0.00  0.00     0.224 A 
ATOM     12  C   UNL d   1      58.043  -0.371  29.964  0.00  0.00     0.265 A 
ATOM     13  O   UNL d   1      57.512   0.052  30.422  0.00  0.00    -0.260 OA
BRANCH  11  14
ATOM     14  S   UNL d   1      58.690  -1.619  29.930  0.00  0.00     0.231 S 
ATOM     15  O   UNL d   1      59.130  -1.248  30.620  0.00  0.00    -0.215 OA
ATOM     16  O   UNL d   1      58.296  -1.993  29.260  0.00  0.00    -0.215 OA
BRANCH  14  17
ATOM     17  C   UNL d   1      59.221  -2.143  29.550  0.00  0.00     0.090 A 
ATOM     18  C   UNL d   1      59.023  -2.485  28.840  0.00  0.00     0.012 A 
ATOM     19  C   UNL d   1      59.549  -2.997  28.474  0.00  0.00     0.007 A 
ATOM     20  C   UNL d   1      60.268  -3.159  28.827  0.00  0.00     0.035 A 
ATOM     21  C   UNL d   1      60.478  -2.818  29.546  0.00  0.00     0.007 A 
ATOM     22 BR   UNL d   1      60.810  -3.684  28.455  0.00  0.00    -0.049 Br
ATOM     23  C   UNL d   1      59.952  -2.305  29.912  0.00  0.00     0.012 A 
ENDBRANCH  14  17
ENDBRANCH  11  14
BRANCH  12  24
ATOM     24  N   UNL d   1      58.414  -0.132  29.260  0.00  0.00    -0.373 NA
BRANCH  24  25
ATOM     25  C   UNL d   1      58.848   0.268  28.691  0.00  0.00     0.164 C 
ATOM     26  C   UNL d   1      59.555   0.621  28.455  0.00  0.00     0.037 C 
ENDBRANCH  24  25
ENDBRANCH  12  24
ENDBRANCH   1   9
TORSDOF 5
ENDMDL
MODEL 2
REMARK VINA RESULT:      -0.3      1.801      2.747
REMARK  5 active torsions:
REMARK  status: ('A' for Active; 'I' for Inactive)
REMARK    1  A    between atoms: S_3  and  C_1 
REMARK    2  A    between atoms: C_7  and  S_3 
REMARK    3  A    between atoms: N_11  and  C_4 
REMARK    4  A    between atoms: C_10  and  C_5 
REMARK    5  A    between atoms: C_24  and  N_11 
ROOT
ATOM      1  C   UNL d   1      55.512   0.441  33.381  0.00  0.00     0.042 A 
ATOM      2  C   UNL d   1      55.533   0.259  34.189  0.00  0.00     0.006 A 
ATOM      3  C   UNL d   1      54.818   0.648  33.007  0.00  0.00     0.006 A 
ATOM      4  C   UNL d   1      54.121   0.500  34.249  0.00  0.00     0.094 A 
ATOM      5  C   UNL d   1      54.826   0.290  34.626  0.00  0.00     0.024 A 
ATOM      6  C   UNL d   1      54.116   0.679  33.440  0.00  0.00     0.024 A 
ATOM      7  O   UNL d   1      53.418   0.526  34.706  0.00  0.00    -0.328 OA
ATOM      8  C   UNL d   1      52.712   0.556  35.143  0.00  0.00     0.181 C 
ENDROOT
BRANCH   1   9
ATOM      9  C   UNL d   1      56.217   0.412  32.936  0.00  0.00     0.186 A 
ATOM     10  N   UNL d   1      56.254   0.089  32.178  0.00  0.00    -0.206 NA
ATOM     11  C   UNL d   1      57.038   0.155  31.908  0.00  0.00     0.224 A 
ATOM     12  C   UNL d   1      57.471   0.517  32.504  0.00  0.00     0.265 A 
ATOM     13  O   UNL d   1      56.981   0.681  33.140  0.00  0.00    -0.260 OA
BRANCH  11  14
ATOM     14  S   UNL d   1      57.424  -0.055  31.220  0.00  0.00     0.231 S 
ATOM     15  O   UNL d   1      57.352  -0.794  31.726  0.00  0.00    -0.215 OA
ATOM     16  O   UNL d   1      57.510   0.635  30.711  0.00  0.00    -0.215 OA
BRANCH  14  17
ATOM     17  C   UNL d   1      57.821  -0.274  30.516  0.00  0.00     0.090 A 
ATOM     18  C   UNL d   1      57.784   0.203  29.859  0.00  0.00     0.012 A 
ATOM     19  C   UNL d   1      58.175  -0.019  29.173  0.00  0.00     0.007 A 
ATOM     20  C   UNL d   1      58.599  -0.717  29.157  0.00  0.00     0.035 A 
ATOM     21  C   UNL d   1      58.642  -1.207  29.817  0.00  0.00     0.007 A 
ATOM     22 BR   UNL d   1      59.002  -0.948  28.455  0.00  0.00    -0.049 Br
ATOM     23  C   UNL d   1      58.251  -0.986  30.503  0.00  0.00     0.012 A 
ENDBRANCH  14  17
ENDBRANCH  11  14
BRANCH  12  24
ATOM     24  N   UNL d   1      58.283   0.676  32.430  0.00  0.00    -0.373 NA
BRANCH  24  25
ATOM     25  C   UNL d   1      59.101   0.656  32.482  0.00  0.00     0.164 C 
ATOM     26  C   UNL d   1      59.782   0.609  32.945  0.00  0.00     0.037 C 
ENDBRANCH  24  25
ENDBRANCH  12  24
ENDBRANCH   1   9
TORSDOF 5
ENDMDL
