MODEL 1
REMARK VINA RESULT:      18.3      0.000      0.000
REMARK  4 active torsions:
REMARK  status: ('A' for Active; 'I' for Inactive)
REMARK    1  A    between atoms: C_7  and  C_1 
REMARK       I    between atoms: C_6  and  N_8 
REMARK    2  A    between atoms: C_14  and  C_6 
REMARK    3  A    between atoms: N_8  and  C_15 
REMARK    4  A    between atoms: C_20  and  C_14 
ROOT
ATOM      1  C   UNL d   1      45.852 -16.201  44.641  0.00  0.00     0.024 A 
ATOM      2  C   UNL d   1      45.172 -16.643  44.736  0.00  0.00     0.004 A 
ATOM      3  C   UNL d   1      46.604 -16.560  44.640  0.00  0.00     0.004 A 
ATOM      4  C   UNL d   1      45.966 -17.834  44.835  0.00  0.00     0.085 A 
ATOM      5  C   UNL d   1      45.224 -17.474  44.835  0.00  0.00     0.019 A 
ATOM      6  C   UNL d   1      46.647 -17.388  44.739  0.00  0.00     0.019 A 
ENDROOT
BRANCH   1   7
ATOM      7  C   UNL d   1      45.787 -15.393  44.546  0.00  0.00     0.111 A 
ATOM      8  N   UNL d   1      46.312 -14.852  44.840  0.00  0.00    -0.239 NA
ATOM      9  C   UNL d   1      46.073 -14.094  44.639  0.00  0.00     0.088 A 
ATOM     10  C   UNL d   1      46.383 -13.352  44.784  0.00  0.00     0.020 A 
ATOM     11  C   UNL d   1      45.367 -14.174  44.200  0.00  0.00     0.049 A 
ATOM     12  C   UNL d   1      45.998 -12.700  44.498  0.00  0.00     0.002 A 
ATOM     13  C   UNL d   1      45.292 -12.781  44.059  0.00  0.00     0.001 A 
ATOM     14  C   UNL d   1      44.977 -13.508  43.909  0.00  0.00     0.008 A 
ATOM     15  C   UNL d   1      44.916 -12.101  43.777  0.00  0.00     0.000 C 
ATOM     16  S   UNL d   1      45.193 -14.972  44.144  0.00  0.00    -0.066 SA
ENDBRANCH   1   7
BRANCH   4  17
ATOM     17  N   UNL d   1      46.029 -18.633  44.929  0.00  0.00    -0.208 NA
ATOM     18  C   UNL d   1      46.281 -19.073  44.356  0.00  0.00     0.279 C 
ATOM     19  O   UNL d   1      46.352 -19.935  44.450  0.00  0.00    -0.265 OA
BRANCH  18  20
ATOM     20  C   UNL d   1      46.465 -18.645  43.683  0.00  0.00     0.062 C 
BRANCH  20  21
ATOM     21  C   UNL d   1      46.521 -19.024  42.968  0.00  0.00     0.005 A 
ATOM     22  C   UNL d   1      46.541 -19.842  42.953  0.00  0.00     0.000 A 
ATOM     23  C   UNL d   1      46.599 -20.251  42.227  0.00  0.00     0.000 A 
ATOM     24  C   UNL d   1      46.634 -19.819  41.523  0.00  0.00     0.000 A 
ATOM     25  C   UNL d   1      46.612 -18.991  41.549  0.00  0.00     0.000 A 
ATOM     26  C   UNL d   1      46.556 -18.590  42.259  0.00  0.00     0.000 A 
ENDBRANCH  20  21
ENDBRANCH  18  20
ENDBRANCH   4  17
TORSDOF 4
ENDMDL
