MODEL 1
REMARK VINA RESULT:      -9.6      0.000      0.000
REMARK  4 active torsions:
REMARK  status: ('A' for Active; 'I' for Inactive)
REMARK    1  A    between atoms: S_5  and  C_3 
REMARK    2  A    between atoms: C_12  and  S_5 
REMARK    3  A    between atoms: C_23  and  N_6 
REMARK    4  A    between atoms: C_28  and  C_23 
ROOT
ATOM      1  C   UNL d   1      52.772  33.178  53.853  0.00  0.00     0.155 A 
ATOM      2  C   UNL d   1      52.641  33.983  53.836  0.00  0.00     0.092 A 
ATOM      3  C   UNL d   1      51.448  33.776  53.106  0.00  0.00     0.124 A 
ATOM      4  N   UNL d   1      53.440  32.877  54.230  0.00  0.00    -0.210 NA
ATOM      5  N   UNL d   1      52.247  32.671  53.500  0.00  0.00    -0.273 N 
ATOM      6  C   UNL d   1      51.579  32.962  53.123  0.00  0.00     0.181 A 
ATOM      7  C   UNL d   1      53.173  34.495  54.193  0.00  0.00     0.269 A 
ATOM      8  N   UNL d   1      53.838  34.194  54.568  0.00  0.00    -0.258 N 
ATOM      9  C   UNL d   1      51.981  34.285  53.463  0.00  0.00     0.022 A 
ATOM     10  C   UNL d   1      53.966  33.379  54.583  0.00  0.00     0.152 A 
ATOM     11  N   UNL d   1      51.045  32.440  52.763  0.00  0.00    -0.128 N 
ATOM     12  C   UNL d   1      54.379  34.699  54.930  0.00  0.00     0.084 A 
ATOM     13  O   UNL d   1      53.044  35.319  54.178  0.00  0.00    -0.266 OA
ATOM     14  C   UNL d   1      54.634  33.078  54.960  0.00  0.00     0.038 A 
ATOM     15  C   UNL d   1      55.041  34.397  55.303  0.00  0.00     0.019 A 
ATOM     16  C   UNL d   1      55.169  33.582  55.318  0.00  0.00     0.005 A 
ENDROOT
BRANCH   3  17
ATOM     17  S   UNL d   1      50.775  34.077  52.726  0.00  0.00     0.213 S 
ATOM     18  O   UNL d   1      51.219  34.231  52.037  0.00  0.00    -0.217 OA
ATOM     19  O   UNL d   1      50.325  33.928  53.405  0.00  0.00    -0.217 OA
BRANCH  17  20
ATOM     20  C   UNL d   1      50.091  34.377  52.353  0.00  0.00     0.088 A 
ATOM     21  C   UNL d   1      49.958  34.233  51.549  0.00  0.00     0.014 A 
ATOM     22  C   UNL d   1      49.274  34.533  51.176  0.00  0.00     0.030 A 
ATOM     23  C   UNL d   1      48.726  34.977  51.612  0.00  0.00     0.140 A 
ATOM     24  C   UNL d   1      48.866  35.120  52.428  0.00  0.00     0.030 A 
ATOM     25  F   UNL d   1      48.044  35.279  51.249  0.00  0.00    -0.204 F 
ATOM     26  C   UNL d   1      49.547  34.821  52.797  0.00  0.00     0.014 A 
ENDBRANCH  17  20
ENDBRANCH   3  17
BRANCH   5  27
ATOM     27  C   UNL d   1      52.381  31.843  53.517  0.00  0.00     0.083 C 
BRANCH  27  28
ATOM     28  C   UNL d   1      52.635  31.453  52.822  0.00  0.00     0.019 C 
ATOM     29  C   UNL d   1      52.824  30.640  52.838  0.00  0.00     0.002 C 
ENDBRANCH  27  28
ENDBRANCH   5  27
TORSDOF 4
ENDMDL
MODEL 2
REMARK VINA RESULT:      -8.5      1.034      2.528
REMARK  4 active torsions:
REMARK  status: ('A' for Active; 'I' for Inactive)
REMARK    1  A    between atoms: S_5  and  C_3 
REMARK    2  A    between atoms: C_12  and  S_5 
REMARK    3  A    between atoms: C_23  and  N_6 
REMARK    4  A    between atoms: C_28  and  C_23 
ROOT
ATOM      1  C   UNL d   1      52.735  32.819  53.430  0.00  0.00     0.155 A 
ATOM      2  C   UNL d   1      52.090  32.421  53.129  0.00  0.00     0.092 A 
ATOM      3  C   UNL d   1      51.388  33.642  53.008  0.00  0.00     0.124 A 
ATOM      4  N   UNL d   1      53.414  32.404  53.643  0.00  0.00    -0.210 NA
ATOM      5  N   UNL d   1      52.711  33.624  53.522  0.00  0.00    -0.273 N 
ATOM      6  C   UNL d   1      52.039  34.046  53.313  0.00  0.00     0.181 A 
ATOM      7  C   UNL d   1      52.115  31.605  53.036  0.00  0.00     0.269 A 
ATOM      8  N   UNL d   1      52.792  31.193  53.249  0.00  0.00    -0.258 N 
ATOM      9  C   UNL d   1      51.416  32.829  52.917  0.00  0.00     0.022 A 
ATOM     10  C   UNL d   1      53.442  31.601  53.553  0.00  0.00     0.152 A 
ATOM     11  N   UNL d   1      52.019  34.869  53.408  0.00  0.00    -0.128 N 
ATOM     12  C   UNL d   1      52.829  30.375  53.160  0.00  0.00     0.084 A 
ATOM     13  O   UNL d   1      51.459  31.194  52.728  0.00  0.00    -0.266 OA
ATOM     14  C   UNL d   1      54.121  31.185  53.766  0.00  0.00     0.038 A 
ATOM     15  C   UNL d   1      53.504  29.966  53.372  0.00  0.00     0.019 A 
ATOM     16  C   UNL d   1      54.153  30.373  53.677  0.00  0.00     0.005 A 
ENDROOT
BRANCH   3  17
ATOM     17  S   UNL d   1      50.706  34.062  52.794  0.00  0.00     0.213 S 
ATOM     18  O   UNL d   1      51.043  34.256  52.056  0.00  0.00    -0.217 OA
ATOM     19  O   UNL d   1      50.362  33.874  53.525  0.00  0.00    -0.217 OA
BRANCH  17  20
ATOM     20  C   UNL d   1      50.014  34.482  52.590  0.00  0.00     0.088 A 
ATOM     21  C   UNL d   1      49.626  34.945  53.157  0.00  0.00     0.014 A 
ATOM     22  C   UNL d   1      48.934  35.365  52.953  0.00  0.00     0.030 A 
ATOM     23  C   UNL d   1      48.634  35.320  52.181  0.00  0.00     0.140 A 
ATOM     24  C   UNL d   1      49.032  34.849  51.611  0.00  0.00     0.030 A 
ATOM     25  F   UNL d   1      47.947  35.735  51.971  0.00  0.00    -0.204 F 
ATOM     26  C   UNL d   1      49.720  34.432  51.815  0.00  0.00     0.014 A 
ENDBRANCH  17  20
ENDBRANCH   3  17
BRANCH   5  27
ATOM     27  C   UNL d   1      53.374  34.035  53.832  0.00  0.00     0.083 C 
BRANCH  27  28
ATOM     28  C   UNL d   1      53.329  34.371  54.596  0.00  0.00     0.019 C 
ATOM     29  C   UNL d   1      54.013  34.672  54.968  0.00  0.00     0.002 C 
ENDBRANCH  27  28
ENDBRANCH   5  27
TORSDOF 4
ENDMDL
