MODEL 1
REMARK VINA RESULT:      74.0      0.000      0.000
REMARK  7 active torsions:
REMARK  status: ('A' for Active; 'I' for Inactive)
REMARK    1  A    between atoms: N_3  and  S_1 
REMARK    2  A    between atoms: C_6  and  S_1 
REMARK    3  A    between atoms: N_2  and  C_5 
REMARK    4  A    between atoms: C_4  and  N_3 
REMARK    5  A    between atoms: C_5  and  C_4 
REMARK    6  A    between atoms: C_10  and  C_5 
REMARK    7  A    between atoms: C_22  and  N_7 
ROOT
ATOM      1  C   UNL d   1     -51.086  26.108  35.005  0.00  0.00     0.086 C 
ENDROOT
BRANCH   1   2
ATOM      2  N   UNL d   1     -51.203  26.269  35.807  0.00  0.00    -0.300 N 
ATOM      3  C   UNL d   1     -51.796  25.878  36.220  0.00  0.00     0.100 A 
ATOM      4  C   UNL d   1     -51.917  26.035  37.024  0.00  0.00     0.100 A 
ATOM      5  N   UNL d   1     -51.441  26.586  37.409  0.00  0.00    -0.300 N 
ATOM      6  C   UNL d   1     -50.844  26.979  36.990  0.00  0.00     0.100 A 
ATOM      7  C   UNL d   1     -50.727  26.820  36.193  0.00  0.00     0.100 A 
BRANCH   5   8
ATOM      8  C   UNL d   1     -51.556  26.750  38.214  0.00  0.00     0.080 C 
ATOM      9  C   UNL d   1     -50.911  26.965  38.687  0.00  0.00     0.021 C 
ENDBRANCH   5   8
ENDBRANCH   1   2
BRANCH   1  10
ATOM     10  C   UNL d   1     -50.999  25.327  34.746  0.00  0.00     0.130 C 
BRANCH  10  11
ATOM     11  N   UNL d   1     -51.524  25.019  34.185  0.00  0.00    -0.155 NA
BRANCH  11  12
ATOM     12  S   UNL d   1     -51.317  24.355  33.749  0.00  0.00     0.285 S 
ATOM     13  O   UNL d   1     -51.107  23.688  33.310  0.00  0.00    -0.198 OA
ATOM     14  O   UNL d   1     -50.520  24.600  33.759  0.00  0.00    -0.198 OA
BRANCH  12  15
ATOM     15  C   UNL d   1     -52.114  24.115  33.742  0.00  0.00     0.105 A 
ATOM     16  C   UNL d   1     -52.345  23.429  34.135  0.00  0.00     0.013 A 
ATOM     17  C   UNL d   1     -53.132  23.195  34.127  0.00  0.00     0.001 A 
ATOM     18  C   UNL d   1     -53.693  23.647  33.723  0.00  0.00     0.000 A 
ATOM     19  C   UNL d   1     -53.462  24.332  33.330  0.00  0.00     0.001 A 
ATOM     20  C   UNL d   1     -54.492  23.411  33.713  0.00  0.00     0.000 C 
ATOM     21  C   UNL d   1     -52.675  24.566  33.339  0.00  0.00     0.013 A 
ENDBRANCH  12  15
ENDBRANCH  11  12
ENDBRANCH  10  11
ENDBRANCH   1  10
BRANCH   1  22
ATOM     22  C   UNL d   1     -51.055  26.732  34.454  0.00  0.00     0.037 A 
ATOM     23  C   UNL d   1     -50.463  27.307  34.518  0.00  0.00     0.100 A 
ATOM     24  N   UNL d   1     -50.433  27.924  33.974  0.00  0.00    -0.242 NA
ATOM     25  C   UNL d   1     -50.994  27.964  33.365  0.00  0.00     0.099 A 
ATOM     26  C   UNL d   1     -51.579  27.391  33.306  0.00  0.00     0.021 A 
ATOM     27  C   UNL d   1     -51.610  26.774  33.850  0.00  0.00     0.005 A 
ENDBRANCH   1  22
TORSDOF 7
ENDMDL
MODEL 2
REMARK VINA RESULT:      75.1      1.548      3.726
REMARK  7 active torsions:
REMARK  status: ('A' for Active; 'I' for Inactive)
REMARK    1  A    between atoms: N_3  and  S_1 
REMARK    2  A    between atoms: C_6  and  S_1 
REMARK    3  A    between atoms: N_2  and  C_5 
REMARK    4  A    between atoms: C_4  and  N_3 
REMARK    5  A    between atoms: C_5  and  C_4 
REMARK    6  A    between atoms: C_10  and  C_5 
REMARK    7  A    between atoms: C_22  and  N_7 
ROOT
ATOM      1  C   UNL d   1     -51.178  25.828  34.669  0.00  0.00     0.086 C 
ENDROOT
BRANCH   1   2
ATOM      2  N   UNL d   1     -51.560  25.179  34.330  0.00  0.00    -0.300 N 
ATOM      3  C   UNL d   1     -52.311  24.966  34.587  0.00  0.00     0.100 A 
ATOM      4  C   UNL d   1     -52.698  24.316  34.251  0.00  0.00     0.100 A 
ATOM      5  N   UNL d   1     -52.328  23.883  33.656  0.00  0.00    -0.300 N 
ATOM      6  C   UNL d   1     -51.571  24.100  33.400  0.00  0.00     0.100 A 
ATOM      7  C   UNL d   1     -51.190  24.745  33.736  0.00  0.00     0.100 A 
BRANCH   5   8
ATOM      8  C   UNL d   1     -52.709  23.231  33.314  0.00  0.00     0.080 C 
ATOM      9  C   UNL d   1     -53.536  23.193  33.308  0.00  0.00     0.021 C 
ENDBRANCH   5   8
ENDBRANCH   1   2
BRANCH   1  10
ATOM     10  C   UNL d   1     -50.949  25.807  35.465  0.00  0.00     0.130 C 
BRANCH  10  11
ATOM     11  N   UNL d   1     -51.428  26.161  36.040  0.00  0.00    -0.155 NA
BRANCH  11  12
ATOM     12  S   UNL d   1     -51.086  26.582  36.658  0.00  0.00     0.285 S 
ATOM     13  O   UNL d   1     -50.742  27.004  37.277  0.00  0.00    -0.198 OA
ATOM     14  O   UNL d   1     -50.585  26.967  36.114  0.00  0.00    -0.198 OA
BRANCH  12  15
ATOM     15  C   UNL d   1     -51.590  26.193  37.195  0.00  0.00     0.105 A 
ATOM     16  C   UNL d   1     -51.294  25.906  37.908  0.00  0.00     0.013 A 
ATOM     17  C   UNL d   1     -51.792  25.523  38.437  0.00  0.00     0.001 A 
ATOM     18  C   UNL d   1     -52.591  25.426  38.253  0.00  0.00     0.000 A 
ATOM     19  C   UNL d   1     -52.887  25.713  37.541  0.00  0.00     0.001 A 
ATOM     20  C   UNL d   1     -53.100  25.038  38.789  0.00  0.00     0.000 C 
ATOM     21  C   UNL d   1     -52.388  26.096  37.013  0.00  0.00     0.013 A 
ENDBRANCH  12  15
ENDBRANCH  11  12
ENDBRANCH  10  11
ENDBRANCH   1  10
BRANCH   1  22
ATOM     22  C   UNL d   1     -51.022  26.506  34.213  0.00  0.00     0.037 A 
ATOM     23  C   UNL d   1     -50.247  26.667  33.968  0.00  0.00     0.100 A 
ATOM     24  N   UNL d   1     -50.092  27.337  33.516  0.00  0.00    -0.242 NA
ATOM     25  C   UNL d   1     -50.712  27.847  33.310  0.00  0.00     0.099 A 
ATOM     26  C   UNL d   1     -51.479  27.684  33.556  0.00  0.00     0.021 A 
ATOM     27  C   UNL d   1     -51.634  27.013  34.007  0.00  0.00     0.005 A 
ENDBRANCH   1  22
TORSDOF 7
ENDMDL
