MODEL 1
REMARK VINA RESULT:      24.5      0.000      0.000
REMARK  3 active torsions:
REMARK  status: ('A' for Active; 'I' for Inactive)
REMARK    1  A    between atoms: C_7  and  N_1 
REMARK    2  A    between atoms: C_5  and  C_2 
REMARK    3  A    between atoms: C_11  and  C_7 
ROOT
ATOM      1  N   UNL d   1      13.944  12.460  -2.065  0.00  0.00    -0.262 N 
ATOM      2  C   UNL d   1      14.185  12.519  -1.276  0.00  0.00     0.173 A 
ATOM      3  N   UNL d   1      13.634  12.092  -0.837  0.00  0.00    -0.128 NA
ATOM      4  C   UNL d   1      13.272  12.015  -2.113  0.00  0.00     0.227 A 
ATOM      5  N   UNL d   1      13.070  11.780  -1.348  0.00  0.00    -0.117 NA
ATOM      6  S   UNL d   1      12.795  11.779  -2.756  0.00  0.00    -0.036 SA
ENDROOT
BRANCH   2   7
ATOM      7  C   UNL d   1      14.838  12.918  -0.976  0.00  0.00     0.064 A 
ATOM      8  C   UNL d   1      15.654  12.998  -0.948  0.00  0.00     0.143 A 
ATOM      9  F   UNL d   1      15.974  12.417  -1.447  0.00  0.00    -0.204 F 
ATOM     10  C   UNL d   1      15.992  13.592  -0.471  0.00  0.00     0.030 A 
ATOM     11  C   UNL d   1      15.511  14.096  -0.028  0.00  0.00     0.002 A 
ATOM     12  C   UNL d   1      14.698  14.008  -0.063  0.00  0.00     0.000 A 
ATOM     13  C   UNL d   1      14.355  13.416  -0.538  0.00  0.00     0.005 A 
ENDBRANCH   2   7
BRANCH   1  14
ATOM     14  C   UNL d   1      14.320  12.797  -2.723  0.00  0.00     0.108 C 
BRANCH  14  15
ATOM     15  C   UNL d   1      13.875  12.981  -3.390  0.00  0.00     0.118 A 
ATOM     16  O   UNL d   1      13.702  12.471  -4.015  0.00  0.00    -0.304 OA
ATOM     17  C   UNL d   1      13.243  12.874  -4.568  0.00  0.00     0.123 A 
ATOM     18  C   UNL d   1      13.133  13.642  -4.276  0.00  0.00     0.029 A 
ATOM     19  C   UNL d   1      13.521  13.709  -3.552  0.00  0.00     0.028 A 
ENDBRANCH  14  15
ENDBRANCH   1  14
TORSDOF 3
ENDMDL
MODEL 2
REMARK VINA RESULT:      25.4      1.398      1.779
REMARK  3 active torsions:
REMARK  status: ('A' for Active; 'I' for Inactive)
REMARK    1  A    between atoms: C_7  and  N_1 
REMARK    2  A    between atoms: C_5  and  C_2 
REMARK    3  A    between atoms: C_11  and  C_7 
ROOT
ATOM      1  N   UNL d   1      13.776  13.065  -3.012  0.00  0.00    -0.262 N 
ATOM      2  C   UNL d   1      14.222  13.242  -2.339  0.00  0.00     0.173 A 
ATOM      3  N   UNL d   1      14.335  14.057  -2.348  0.00  0.00    -0.128 NA
ATOM      4  C   UNL d   1      13.618  13.743  -3.422  0.00  0.00     0.227 A 
ATOM      5  N   UNL d   1      13.965  14.371  -3.013  0.00  0.00    -0.117 NA
ATOM      6  S   UNL d   1      13.198  13.892  -4.128  0.00  0.00    -0.036 SA
ENDROOT
BRANCH   2   7
ATOM      7  C   UNL d   1      14.504  12.721  -1.768  0.00  0.00     0.064 A 
ATOM      8  C   UNL d   1      14.961  12.064  -1.589  0.00  0.00     0.143 A 
ATOM      9  F   UNL d   1      15.294  11.797  -2.300  0.00  0.00    -0.204 F 
ATOM     10  C   UNL d   1      15.008  11.802  -0.799  0.00  0.00     0.030 A 
ATOM     11  C   UNL d   1      14.601  12.198  -0.201  0.00  0.00     0.002 A 
ATOM     12  C   UNL d   1      14.147  12.852  -0.390  0.00  0.00     0.000 A 
ATOM     13  C   UNL d   1      14.095  13.120  -1.178  0.00  0.00     0.005 A 
ENDBRANCH   2   7
BRANCH   1  14
ATOM     14  C   UNL d   1      13.518  12.313  -3.250  0.00  0.00     0.108 C 
BRANCH  14  15
ATOM     15  C   UNL d   1      13.447  12.148  -4.054  0.00  0.00     0.118 A 
ATOM     16  O   UNL d   1      14.037  12.238  -4.623  0.00  0.00    -0.304 OA
ATOM     17  C   UNL d   1      13.736  12.011  -5.356  0.00  0.00     0.123 A 
ATOM     18  C   UNL d   1      12.950  11.780  -5.232  0.00  0.00     0.029 A 
ATOM     19  C   UNL d   1      12.770  11.864  -4.432  0.00  0.00     0.028 A 
ENDBRANCH  14  15
ENDBRANCH   1  14
TORSDOF 3
ENDMDL
MODEL 3
REMARK VINA RESULT:      26.8      1.414      1.932
REMARK  3 active torsions:
REMARK  status: ('A' for Active; 'I' for Inactive)
REMARK    1  A    between atoms: C_7  and  N_1 
REMARK    2  A    between atoms: C_5  and  C_2 
REMARK    3  A    between atoms: C_11  and  C_7 
ROOT
ATOM      1  N   UNL d   1      13.506  13.049  -3.143  0.00  0.00    -0.262 N 
ATOM      2  C   UNL d   1      13.875  12.448  -2.710  0.00  0.00     0.173 A 
ATOM      3  N   UNL d   1      13.861  11.779  -3.190  0.00  0.00    -0.128 NA
ATOM      4  C   UNL d   1      13.273  12.764  -3.862  0.00  0.00     0.227 A 
ATOM      5  N   UNL d   1      13.491  11.969  -3.901  0.00  0.00    -0.117 NA
ATOM      6  S   UNL d   1      12.883  13.117  -4.510  0.00  0.00    -0.036 SA
ENDROOT
BRANCH   2   7
ATOM      7  C   UNL d   1      14.195  12.494  -1.954  0.00  0.00     0.064 A 
ATOM      8  C   UNL d   1      14.776  12.795  -1.460  0.00  0.00     0.143 A 
ATOM      9  F   UNL d   1      15.270  13.272  -1.927  0.00  0.00    -0.204 F 
ATOM     10  C   UNL d   1      14.773  12.592  -0.652  0.00  0.00     0.030 A 
ATOM     11  C   UNL d   1      14.191  12.091  -0.348  0.00  0.00     0.002 A 
ATOM     12  C   UNL d   1      13.616  11.796  -0.849  0.00  0.00     0.000 A 
ATOM     13  C   UNL d   1      13.613  11.995  -1.658  0.00  0.00     0.005 A 
ENDBRANCH   2   7
BRANCH   1  14
ATOM     14  C   UNL d   1      13.384  13.831  -2.896  0.00  0.00     0.108 C 
BRANCH  14  15
ATOM     15  C   UNL d   1      13.587  14.448  -3.401  0.00  0.00     0.118 A 
ATOM     16  O   UNL d   1      14.305  14.855  -3.408  0.00  0.00    -0.304 OA
ATOM     17  C   UNL d   1      14.279  15.429  -3.998  0.00  0.00     0.123 A 
ATOM     18  C   UNL d   1      13.534  15.373  -4.357  0.00  0.00     0.029 A 
ATOM     19  C   UNL d   1      13.108  14.770  -3.991  0.00  0.00     0.028 A 
ENDBRANCH  14  15
ENDBRANCH   1  14
TORSDOF 3
ENDMDL
MODEL 4
REMARK VINA RESULT:      26.9      1.962      3.273
REMARK  3 active torsions:
REMARK  status: ('A' for Active; 'I' for Inactive)
REMARK    1  A    between atoms: C_7  and  N_1 
REMARK    2  A    between atoms: C_5  and  C_2 
REMARK    3  A    between atoms: C_11  and  C_7 
ROOT
ATOM      1  N   UNL d   1      14.900  13.096  -0.743  0.00  0.00    -0.262 N 
ATOM      2  C   UNL d   1      14.734  12.381  -1.124  0.00  0.00     0.173 A 
ATOM      3  N   UNL d   1      15.411  11.918  -1.048  0.00  0.00    -0.128 NA
ATOM      4  C   UNL d   1      15.651  13.077  -0.443  0.00  0.00     0.227 A 
ATOM      5  N   UNL d   1      15.978  12.343  -0.629  0.00  0.00    -0.117 NA
ATOM      6  S   UNL d   1      16.101  13.634  -0.015  0.00  0.00    -0.036 SA
ENDROOT
BRANCH   2   7
ATOM      7  C   UNL d   1      14.039  12.162  -1.505  0.00  0.00     0.064 A 
ATOM      8  C   UNL d   1      13.247  11.956  -1.447  0.00  0.00     0.143 A 
ATOM      9  F   UNL d   1      13.048  11.977  -0.641  0.00  0.00    -0.204 F 
ATOM     10  C   UNL d   1      12.818  11.779  -2.139  0.00  0.00     0.030 A 
ATOM     11  C   UNL d   1      13.184  11.809  -2.878  0.00  0.00     0.002 A 
ATOM     12  C   UNL d   1      13.975  12.015  -2.925  0.00  0.00     0.000 A 
ATOM     13  C   UNL d   1      14.410  12.193  -2.237  0.00  0.00     0.005 A 
ENDBRANCH   2   7
BRANCH   1  14
ATOM     14  C   UNL d   1      14.391  13.746  -0.669  0.00  0.00     0.108 C 
BRANCH  14  15
ATOM     15  C   UNL d   1      14.686  14.504  -0.796  0.00  0.00     0.118 A 
ATOM     16  O   UNL d   1      14.693  14.909  -1.514  0.00  0.00    -0.304 OA
ATOM     17  C   UNL d   1      15.036  15.649  -1.399  0.00  0.00     0.123 A 
ATOM     18  C   UNL d   1      15.241  15.697  -0.597  0.00  0.00     0.029 A 
ATOM     19  C   UNL d   1      15.027  14.993  -0.225  0.00  0.00     0.028 A 
ENDBRANCH  14  15
ENDBRANCH   1  14
TORSDOF 3
ENDMDL
