MODEL 1
REMARK VINA RESULT:      -4.0      0.000      0.000
REMARK  2 active torsions:
REMARK  status: ('A' for Active; 'I' for Inactive)
REMARK    1  A    between atoms: C_7  and  C_1 
REMARK    2  A    between atoms: C_8  and  C_7 
ROOT
ATOM      1  C   UNL d   1      58.291   0.430  30.477  0.00  0.00     0.116 A 
ATOM      2  N   UNL d   1      59.709   0.181  30.466  0.00  0.00    -0.152 NA
ATOM      3  N   UNL d   1      58.903  -0.073  29.293  0.00  0.00    -0.152 NA
ATOM      4  C   UNL d   1      59.044   0.430  30.866  0.00  0.00     0.288 A 
ATOM      5  C   UNL d   1      58.225   0.181  29.700  0.00  0.00     0.288 A 
ATOM      6  C   UNL d   1      59.656  -0.073  29.682  0.00  0.00     0.374 A 
ATOM      7  O   UNL d   1      59.100   0.682  31.646  0.00  0.00    -0.265 OA
ATOM      8  O   UNL d   1      57.504   0.181  29.327  0.00  0.00    -0.265 OA
ATOM      9  O   UNL d   1      60.346  -0.331  29.269  0.00  0.00    -0.242 OA
ENDROOT
BRANCH   1  10
ATOM     10  C   UNL d   1      57.616   0.682  30.880  0.00  0.00     0.016 C 
BRANCH  10  11
ATOM     11  C   UNL d   1      57.039  -0.055  31.575  0.00  0.00     0.030 A 
ATOM     12  S   UNL d   1      56.611   0.142  32.257  0.00  0.00    -0.080 SA
ATOM     13  C   UNL d   1      56.296  -0.560  32.570  0.00  0.00     0.064 A 
ATOM     14 BR   UNL d   1      55.827  -0.606  33.259  0.00  0.00    -0.042 Br
ATOM     15  C   UNL d   1      56.519  -1.180  32.098  0.00  0.00     0.014 A 
ATOM     16  C   UNL d   1      56.987  -0.868  31.470  0.00  0.00     0.007 A 
ENDBRANCH  10  11
ENDBRANCH   1  10
TORSDOF 2
ENDMDL
MODEL 2
REMARK VINA RESULT:      -3.7      2.861      4.094
REMARK  2 active torsions:
REMARK  status: ('A' for Active; 'I' for Inactive)
REMARK    1  A    between atoms: C_7  and  C_1 
REMARK    2  A    between atoms: C_8  and  C_7 
ROOT
ATOM      1  C   UNL d   1      56.652  -0.317  32.816  0.00  0.00     0.116 A 
ATOM      2  N   UNL d   1      55.293  -0.401  33.286  0.00  0.00    -0.152 NA
ATOM      3  N   UNL d   1      56.189   0.619  33.786  0.00  0.00    -0.152 NA
ATOM      4  C   UNL d   1      55.889  -0.687  32.809  0.00  0.00     0.288 A 
ATOM      5  C   UNL d   1      56.796   0.328  33.300  0.00  0.00     0.288 A 
ATOM      6  C   UNL d   1      55.426   0.249  33.779  0.00  0.00     0.374 A 
ATOM      7  O   UNL d   1      55.754  -1.333  32.320  0.00  0.00    -0.265 OA
ATOM      8  O   UNL d   1      57.526   0.682  33.307  0.00  0.00    -0.265 OA
ATOM      9  O   UNL d   1      54.807   0.543  34.272  0.00  0.00    -0.242 OA
ENDROOT
BRANCH   1  10
ATOM     10  C   UNL d   1      57.257  -0.604  32.335  0.00  0.00     0.016 C 
BRANCH  10  11
ATOM     11  C   UNL d   1      57.481  -0.097  31.309  0.00  0.00     0.030 A 
ATOM     12  S   UNL d   1      58.133  -0.240  30.819  0.00  0.00    -0.080 SA
ATOM     13  C   UNL d   1      58.060   0.246  30.150  0.00  0.00     0.064 A 
ATOM     14 BR   UNL d   1      58.604   0.271  29.517  0.00  0.00    -0.042 Br
ATOM     15  C   UNL d   1      57.380   0.682  30.217  0.00  0.00     0.014 A 
ATOM     16  C   UNL d   1      57.012   0.471  30.945  0.00  0.00     0.007 A 
ENDBRANCH  10  11
ENDBRANCH   1  10
TORSDOF 2
ENDMDL
MODEL 3
REMARK VINA RESULT:      -3.7      0.583      1.371
REMARK  2 active torsions:
REMARK  status: ('A' for Active; 'I' for Inactive)
REMARK    1  A    between atoms: C_7  and  C_1 
REMARK    2  A    between atoms: C_8  and  C_7 
ROOT
ATOM      1  C   UNL d   1      58.597   0.294  30.031  0.00  0.00     0.116 A 
ATOM      2  N   UNL d   1      59.059  -0.464  28.897  0.00  0.00    -0.152 NA
ATOM      3  N   UNL d   1      59.973  -0.067  29.945  0.00  0.00    -0.152 NA
ATOM      4  C   UNL d   1      58.448  -0.097  29.294  0.00  0.00     0.288 A 
ATOM      5  C   UNL d   1      59.351   0.307  30.349  0.00  0.00     0.288 A 
ATOM      6  C   UNL d   1      59.824  -0.458  29.208  0.00  0.00     0.374 A 
ATOM      7  O   UNL d   1      57.688  -0.105  28.983  0.00  0.00    -0.265 OA
ATOM      8  O   UNL d   1      59.494   0.682  31.055  0.00  0.00    -0.265 OA
ATOM      9  O   UNL d   1      60.455  -0.839  28.795  0.00  0.00    -0.242 OA
ENDROOT
BRANCH   1  10
ATOM     10  C   UNL d   1      57.981   0.666  30.435  0.00  0.00     0.016 C 
BRANCH  10  11
ATOM     11  C   UNL d   1      57.392   0.094  31.263  0.00  0.00     0.030 A 
ATOM     12  S   UNL d   1      57.174   0.387  32.006  0.00  0.00    -0.080 SA
ATOM     13  C   UNL d   1      56.764  -0.214  32.406  0.00  0.00     0.064 A 
ATOM     14 BR   UNL d   1      56.448  -0.145  33.175  0.00  0.00    -0.042 Br
ATOM     15  C   UNL d   1      56.727  -0.867  31.928  0.00  0.00     0.014 A 
ATOM     16  C   UNL d   1      57.120  -0.679  31.206  0.00  0.00     0.007 A 
ENDBRANCH  10  11
ENDBRANCH   1  10
TORSDOF 2
ENDMDL
MODEL 4
REMARK VINA RESULT:      -3.6      1.706      2.558
REMARK  2 active torsions:
REMARK  status: ('A' for Active; 'I' for Inactive)
REMARK    1  A    between atoms: C_7  and  C_1 
REMARK    2  A    between atoms: C_8  and  C_7 
ROOT
ATOM      1  C   UNL d   1      57.169  -0.437  32.156  0.00  0.00     0.116 A 
ATOM      2  N   UNL d   1      57.233  -0.703  30.742  0.00  0.00    -0.152 NA
ATOM      3  N   UNL d   1      57.914   0.438  31.313  0.00  0.00    -0.152 NA
ATOM      4  C   UNL d   1      56.963  -0.909  31.482  0.00  0.00     0.288 A 
ATOM      5  C   UNL d   1      57.639   0.228  32.067  0.00  0.00     0.288 A 
ATOM      6  C   UNL d   1      57.707  -0.035  30.640  0.00  0.00     0.374 A 
ATOM      7  O   UNL d   1      56.491  -1.574  31.581  0.00  0.00    -0.265 OA
ATOM      8  O   UNL d   1      57.837   0.681  32.712  0.00  0.00    -0.265 OA
ATOM      9  O   UNL d   1      57.986   0.177  29.871  0.00  0.00    -0.242 OA
ENDROOT
BRANCH   1  10
ATOM     10  C   UNL d   1      56.897  -0.643  32.907  0.00  0.00     0.016 C 
BRANCH  10  11
ATOM     11  C   UNL d   1      56.009  -0.062  33.389  0.00  0.00     0.030 A 
ATOM     12  S   UNL d   1      55.850   0.013  34.199  0.00  0.00    -0.080 SA
ATOM     13  C   UNL d   1      55.163   0.474  34.280  0.00  0.00     0.064 A 
ATOM     14 BR   UNL d   1      54.813   0.682  35.009  0.00  0.00    -0.042 Br
ATOM     15  C   UNL d   1      54.899   0.681  33.543  0.00  0.00     0.014 A 
ATOM     16  C   UNL d   1      55.427   0.347  32.978  0.00  0.00     0.007 A 
ENDBRANCH  10  11
ENDBRANCH   1  10
TORSDOF 2
ENDMDL
MODEL 5
REMARK VINA RESULT:      -2.8      2.403      3.315
REMARK  2 active torsions:
REMARK  status: ('A' for Active; 'I' for Inactive)
REMARK    1  A    between atoms: C_7  and  C_1 
REMARK    2  A    between atoms: C_8  and  C_7 
ROOT
ATOM      1  C   UNL d   1      59.560  -1.909  28.867  0.00  0.00     0.116 A 
ATOM      2  N   UNL d   1      59.694  -3.260  29.348  0.00  0.00    -0.152 NA
ATOM      3  N   UNL d   1      60.853  -2.505  28.928  0.00  0.00    -0.152 NA
ATOM      4  C   UNL d   1      59.217  -2.622  29.172  0.00  0.00     0.288 A 
ATOM      5  C   UNL d   1      60.369  -1.855  28.748  0.00  0.00     0.288 A 
ATOM      6  C   UNL d   1      60.511  -3.218  29.233  0.00  0.00     0.374 A 
ATOM      7  O   UNL d   1      58.406  -2.667  29.287  0.00  0.00    -0.265 OA
ATOM      8  O   UNL d   1      60.697  -1.172  28.456  0.00  0.00    -0.265 OA
ATOM      9  O   UNL d   1      61.002  -3.880  29.416  0.00  0.00    -0.242 OA
ENDROOT
BRANCH   1  10
ATOM     10  C   UNL d   1      59.081  -1.262  28.687  0.00  0.00     0.016 C 
BRANCH  10  11
ATOM     11  C   UNL d   1      58.856  -0.456  29.499  0.00  0.00     0.030 A 
ATOM     12  S   UNL d   1      58.158  -0.379  29.939  0.00  0.00    -0.080 SA
ATOM     13  C   UNL d   1      58.249   0.271  30.448  0.00  0.00     0.064 A 
ATOM     14 BR   UNL d   1      57.671   0.538  30.987  0.00  0.00    -0.042 Br
ATOM     15  C   UNL d   1      58.983   0.594  30.330  0.00  0.00     0.014 A 
ATOM     16  C   UNL d   1      59.370   0.141  29.734  0.00  0.00     0.007 A 
ENDBRANCH  10  11
ENDBRANCH   1  10
TORSDOF 2
ENDMDL
MODEL 6
REMARK VINA RESULT:      -2.8      2.776      3.832
REMARK  2 active torsions:
REMARK  status: ('A' for Active; 'I' for Inactive)
REMARK    1  A    between atoms: C_7  and  C_1 
REMARK    2  A    between atoms: C_8  and  C_7 
ROOT
ATOM      1  C   UNL d   1      58.550  -0.754  29.433  0.00  0.00     0.116 A 
ATOM      2  N   UNL d   1      58.450   0.530  30.076  0.00  0.00    -0.152 NA
ATOM      3  N   UNL d   1      57.755  -0.621  30.609  0.00  0.00    -0.152 NA
ATOM      4  C   UNL d   1      58.749   0.069  29.475  0.00  0.00     0.288 A 
ATOM      5  C   UNL d   1      58.059  -1.091  29.996  0.00  0.00     0.288 A 
ATOM      6  C   UNL d   1      57.954   0.202  30.650  0.00  0.00     0.374 A 
ATOM      7  O   UNL d   1      59.242   0.398  28.906  0.00  0.00    -0.265 OA
ATOM      8  O   UNL d   1      57.869  -1.880  29.956  0.00  0.00    -0.265 OA
ATOM      9  O   UNL d   1      57.646   0.682  31.272  0.00  0.00    -0.242 OA
ENDROOT
BRANCH   1  10
ATOM     10  C   UNL d   1      58.851  -1.224  28.825  0.00  0.00     0.016 C 
BRANCH  10  11
ATOM     11  C   UNL d   1      59.837  -1.826  28.982  0.00  0.00     0.030 A 
ATOM     12  S   UNL d   1      59.910  -2.650  29.034  0.00  0.00    -0.080 SA
ATOM     13  C   UNL d   1      60.713  -2.826  29.145  0.00  0.00     0.064 A 
ATOM     14 BR   UNL d   1      61.025  -3.597  29.225  0.00  0.00    -0.042 Br
ATOM     15  C   UNL d   1      61.133  -2.134  29.163  0.00  0.00     0.014 A 
ATOM     16  C   UNL d   1      60.587  -1.500  29.060  0.00  0.00     0.007 A 
ENDBRANCH  10  11
ENDBRANCH   1  10
TORSDOF 2
ENDMDL
MODEL 7
REMARK VINA RESULT:      -2.6      2.520      3.662
REMARK  2 active torsions:
REMARK  status: ('A' for Active; 'I' for Inactive)
REMARK    1  A    between atoms: C_7  and  C_1 
REMARK    2  A    between atoms: C_8  and  C_7 
ROOT
ATOM      1  C   UNL d   1      58.521   0.525  30.149  0.00  0.00     0.116 A 
ATOM      2  N   UNL d   1      57.150   0.523  30.589  0.00  0.00    -0.152 NA
ATOM      3  N   UNL d   1      58.232   0.681  31.536  0.00  0.00    -0.152 NA
ATOM      4  C   UNL d   1      57.691   0.472  29.982  0.00  0.00     0.288 A 
ATOM      5  C   UNL d   1      58.784   0.629  30.918  0.00  0.00     0.288 A 
ATOM      6  C   UNL d   1      57.402   0.627  31.369  0.00  0.00     0.374 A 
ATOM      7  O   UNL d   1      57.438   0.368  29.208  0.00  0.00    -0.265 OA
ATOM      8  O   UNL d   1      59.578   0.681  31.078  0.00  0.00    -0.265 OA
ATOM      9  O   UNL d   1      56.839   0.680  31.995  0.00  0.00    -0.242 OA
ENDROOT
BRANCH   1  10
ATOM     10  C   UNL d   1      59.072   0.474  29.537  0.00  0.00     0.016 C 
BRANCH  10  11
ATOM     11  C   UNL d   1      59.506  -0.562  29.225  0.00  0.00     0.030 A 
ATOM     12  S   UNL d   1      60.304  -0.746  29.100  0.00  0.00    -0.080 SA
ATOM     13  C   UNL d   1      60.349  -1.547  28.886  0.00  0.00     0.064 A 
ATOM     14 BR   UNL d   1      61.057  -1.954  28.711  0.00  0.00    -0.042 Br
ATOM     15  C   UNL d   1      59.601  -1.858  28.877  0.00  0.00     0.014 A 
ATOM     16  C   UNL d   1      59.066  -1.243  29.089  0.00  0.00     0.007 A 
ENDBRANCH  10  11
ENDBRANCH   1  10
TORSDOF 2
ENDMDL
