MODEL 1
REMARK VINA RESULT:      -7.9      0.000      0.000
REMARK  4 active torsions:
REMARK  status: ('A' for Active; 'I' for Inactive)
REMARK    1  A    between atoms: C_6  and  C_1 
REMARK    2  A    between atoms: C_8  and  N_3 
REMARK       I    between atoms: N_7  and  C_6 
REMARK    3  A    between atoms: C_9  and  N_7 
REMARK    4  A    between atoms: O_19  and  C_16 
ROOT
ATOM      1  C   UNL d   1     -46.251  12.937  22.951  0.00  0.00     0.199 A 
ATOM      2  C   UNL d   1     -47.067  13.022  22.882  0.00  0.00     0.211 A 
ATOM      3  N   UNL d   1     -47.229  13.798  22.660  0.00  0.00    -0.191 N 
ATOM      4  N   UNL d   1     -46.508  14.197  22.591  0.00  0.00    -0.058 NA
ATOM      5  N   UNL d   1     -45.902  13.672  22.769  0.00  0.00    -0.122 NA
ATOM      6  N   UNL d   1     -47.624  12.430  23.012  0.00  0.00    -0.125 N 
ENDROOT
BRANCH   1   7
ATOM      7  C   UNL d   1     -45.849  12.247  23.162  0.00  0.00     0.302 C 
ATOM      8  N   UNL d   1     -45.094  12.100  22.848  0.00  0.00    -0.204 NA
ATOM      9  O   UNL d   1     -46.193  11.707  23.681  0.00  0.00    -0.263 OA
BRANCH   8  10
ATOM     10  C   UNL d   1     -44.697  11.409  23.064  0.00  0.00     0.112 A 
ATOM     11  C   UNL d   1     -43.904  11.320  22.860  0.00  0.00     0.158 A 
ATOM     12  F   UNL d   1     -43.512  11.913  22.449  0.00  0.00    -0.203 F 
ATOM     13  C   UNL d   1     -43.498  10.625  23.075  0.00  0.00     0.031 A 
ATOM     14  C   UNL d   1     -43.893  10.036  23.486  0.00  0.00     0.002 A 
ATOM     15  C   UNL d   1     -44.691  10.127  23.690  0.00  0.00     0.002 A 
ATOM     16  C   UNL d   1     -45.088  10.817  23.475  0.00  0.00     0.021 A 
ENDBRANCH   8  10
ENDBRANCH   1   7
BRANCH   3  17
ATOM     17  C   UNL d   1     -47.976  14.121  22.530  0.00  0.00     0.086 A 
ATOM     18  C   UNL d   1     -48.225  14.773  22.969  0.00  0.00     0.021 A 
ATOM     19  C   UNL d   1     -48.973  15.097  22.838  0.00  0.00     0.026 A 
ATOM     20  C   UNL d   1     -49.470  14.767  22.268  0.00  0.00     0.094 A 
ATOM     21  C   UNL d   1     -49.221  14.115  21.830  0.00  0.00     0.026 A 
ATOM     22  C   UNL d   1     -48.473  13.791  21.961  0.00  0.00     0.021 A 
BRANCH  20  23
ATOM     23  O   UNL d   1     -50.218  15.090  22.138  0.00  0.00    -0.328 OA
ATOM     24  C   UNL d   1     -50.887  14.715  22.439  0.00  0.00     0.181 C 
ENDBRANCH  20  23
ENDBRANCH   3  17
TORSDOF 4
ENDMDL
MODEL 2
REMARK VINA RESULT:      -7.1      1.745      5.333
REMARK  4 active torsions:
REMARK  status: ('A' for Active; 'I' for Inactive)
REMARK    1  A    between atoms: C_6  and  C_1 
REMARK    2  A    between atoms: C_8  and  N_3 
REMARK       I    between atoms: N_7  and  C_6 
REMARK    3  A    between atoms: C_9  and  N_7 
REMARK    4  A    between atoms: O_19  and  C_16 
ROOT
ATOM      1  C   UNL d   1     -47.614  13.298  23.041  0.00  0.00     0.199 A 
ATOM      2  C   UNL d   1     -47.296  12.544  22.957  0.00  0.00     0.211 A 
ATOM      3  N   UNL d   1     -46.532  12.549  23.262  0.00  0.00    -0.191 N 
ATOM      4  N   UNL d   1     -46.375  13.313  23.537  0.00  0.00    -0.058 NA
ATOM      5  N   UNL d   1     -47.038  13.778  23.403  0.00  0.00    -0.122 NA
ATOM      6  N   UNL d   1     -47.680  11.896  22.624  0.00  0.00    -0.125 N 
ENDROOT
BRANCH   1   7
ATOM      7  C   UNL d   1     -48.370  13.538  22.807  0.00  0.00     0.302 C 
ATOM      8  N   UNL d   1     -48.757  14.140  23.228  0.00  0.00    -0.204 NA
ATOM      9  O   UNL d   1     -48.737  13.182  22.161  0.00  0.00    -0.263 OA
BRANCH   8  10
ATOM     10  C   UNL d   1     -49.512  14.375  22.990  0.00  0.00     0.112 A 
ATOM     11  C   UNL d   1     -49.680  15.179  22.920  0.00  0.00     0.158 A 
ATOM     12  F   UNL d   1     -49.103  15.739  23.086  0.00  0.00    -0.203 F 
ATOM     13  C   UNL d   1     -50.439  15.422  22.680  0.00  0.00     0.031 A 
ATOM     14  C   UNL d   1     -51.012  14.858  22.516  0.00  0.00     0.002 A 
ATOM     15  C   UNL d   1     -50.841  14.051  22.586  0.00  0.00     0.002 A 
ATOM     16  C   UNL d   1     -50.087  13.815  22.824  0.00  0.00     0.021 A 
ENDBRANCH   8  10
ENDBRANCH   1   7
BRANCH   3  17
ATOM     17  C   UNL d   1     -46.014  11.908  23.289  0.00  0.00     0.086 A 
ATOM     18  C   UNL d   1     -46.240  11.212  23.671  0.00  0.00     0.021 A 
ATOM     19  C   UNL d   1     -45.722  10.571  23.698  0.00  0.00     0.026 A 
ATOM     20  C   UNL d   1     -44.979  10.626  23.343  0.00  0.00     0.094 A 
ATOM     21  C   UNL d   1     -44.754  11.322  22.962  0.00  0.00     0.026 A 
ATOM     22  C   UNL d   1     -45.272  11.963  22.935  0.00  0.00     0.021 A 
BRANCH  20  23
ATOM     23  O   UNL d   1     -44.461   9.985  23.371  0.00  0.00    -0.328 OA
ATOM     24  C   UNL d   1     -43.710  10.075  23.698  0.00  0.00     0.181 C 
ENDBRANCH  20  23
ENDBRANCH   3  17
TORSDOF 4
ENDMDL
MODEL 3
REMARK VINA RESULT:      -7.0      2.154      5.002
REMARK  4 active torsions:
REMARK  status: ('A' for Active; 'I' for Inactive)
REMARK    1  A    between atoms: C_6  and  C_1 
REMARK    2  A    between atoms: C_8  and  N_3 
REMARK       I    between atoms: N_7  and  C_6 
REMARK    3  A    between atoms: C_9  and  N_7 
REMARK    4  A    between atoms: O_19  and  C_16 
ROOT
ATOM      1  C   UNL d   1     -47.293  13.165  22.965  0.00  0.00     0.199 A 
ATOM      2  C   UNL d   1     -46.718  13.007  22.398  0.00  0.00     0.211 A 
ATOM      3  N   UNL d   1     -45.983  13.001  22.768  0.00  0.00    -0.191 N 
ATOM      4  N   UNL d   1     -46.103  13.157  23.571  0.00  0.00    -0.058 NA
ATOM      5  N   UNL d   1     -46.908  13.258  23.698  0.00  0.00    -0.122 NA
ATOM      6  N   UNL d   1     -46.857  12.878  21.596  0.00  0.00    -0.125 N 
ENDROOT
BRANCH   1   7
ATOM      7  C   UNL d   1     -48.107  13.221  22.832  0.00  0.00     0.302 C 
ATOM      8  N   UNL d   1     -48.630  12.787  23.309  0.00  0.00    -0.204 NA
ATOM      9  O   UNL d   1     -48.398  13.704  22.231  0.00  0.00    -0.263 OA
BRANCH   8  10
ATOM     10  C   UNL d   1     -49.442  12.848  23.171  0.00  0.00     0.112 A 
ATOM     11  C   UNL d   1     -49.903  12.164  23.173  0.00  0.00     0.158 A 
ATOM     12  F   UNL d   1     -49.558  11.432  23.310  0.00  0.00    -0.203 F 
ATOM     13  C   UNL d   1     -50.723  12.219  23.034  0.00  0.00     0.031 A 
ATOM     14  C   UNL d   1     -51.062  12.953  22.898  0.00  0.00     0.002 A 
ATOM     15  C   UNL d   1     -50.598  13.639  22.897  0.00  0.00     0.002 A 
ATOM     16  C   UNL d   1     -49.786  13.579  23.034  0.00  0.00     0.021 A 
ENDBRANCH   8  10
ENDBRANCH   1   7
BRANCH   3  17
ATOM     17  C   UNL d   1     -45.256  12.865  22.404  0.00  0.00     0.086 A 
ATOM     18  C   UNL d   1     -44.959  13.410  21.861  0.00  0.00     0.021 A 
ATOM     19  C   UNL d   1     -44.231  13.274  21.497  0.00  0.00     0.026 A 
ATOM     20  C   UNL d   1     -43.802  12.592  21.677  0.00  0.00     0.094 A 
ATOM     21  C   UNL d   1     -44.100  12.048  22.220  0.00  0.00     0.026 A 
ATOM     22  C   UNL d   1     -44.827  12.184  22.583  0.00  0.00     0.021 A 
BRANCH  20  23
ATOM     23  O   UNL d   1     -43.074  12.455  21.313  0.00  0.00    -0.328 OA
ATOM     24  C   UNL d   1     -42.482  13.028  21.348  0.00  0.00     0.181 C 
ENDBRANCH  20  23
ENDBRANCH   3  17
TORSDOF 4
ENDMDL
MODEL 4
REMARK VINA RESULT:      -6.4      8.144      9.428
REMARK  4 active torsions:
REMARK  status: ('A' for Active; 'I' for Inactive)
REMARK    1  A    between atoms: C_6  and  C_1 
REMARK    2  A    between atoms: C_8  and  N_3 
REMARK       I    between atoms: N_7  and  C_6 
REMARK    3  A    between atoms: C_9  and  N_7 
REMARK    4  A    between atoms: O_19  and  C_16 
ROOT
ATOM      1  C   UNL d   1     -39.551  14.582  19.578  0.00  0.00     0.199 A 
ATOM      2  C   UNL d   1     -39.040  14.555  18.934  0.00  0.00     0.211 A 
ATOM      3  N   UNL d   1     -39.421  14.165  18.318  0.00  0.00    -0.191 N 
ATOM      4  N   UNL d   1     -40.174  13.949  18.582  0.00  0.00    -0.058 NA
ATOM      5  N   UNL d   1     -40.260  14.203  19.358  0.00  0.00    -0.122 NA
ATOM      6  N   UNL d   1     -38.278  14.865  18.913  0.00  0.00    -0.125 N 
ENDROOT
BRANCH   1   7
ATOM      7  C   UNL d   1     -39.392  14.924  20.314  0.00  0.00     0.302 C 
ATOM      8  N   UNL d   1     -39.385  14.448  20.994  0.00  0.00    -0.204 NA
ATOM      9  O   UNL d   1     -39.240  15.732  20.372  0.00  0.00    -0.263 OA
BRANCH   8  10
ATOM     10  C   UNL d   1     -39.224  14.795  21.726  0.00  0.00     0.112 A 
ATOM     11  C   UNL d   1     -38.848  14.351  22.309  0.00  0.00     0.158 A 
ATOM     12  F   UNL d   1     -38.636  13.572  22.164  0.00  0.00    -0.203 F 
ATOM     13  C   UNL d   1     -38.684  14.696  23.049  0.00  0.00     0.031 A 
ATOM     14  C   UNL d   1     -38.898  15.475  23.189  0.00  0.00     0.002 A 
ATOM     15  C   UNL d   1     -39.276  15.921  22.602  0.00  0.00     0.002 A 
ATOM     16  C   UNL d   1     -39.437  15.574  21.870  0.00  0.00     0.021 A 
ENDBRANCH   8  10
ENDBRANCH   1   7
BRANCH   3  17
ATOM     17  C   UNL d   1     -39.109  14.015  17.570  0.00  0.00     0.086 A 
ATOM     18  C   UNL d   1     -39.192  14.575  16.969  0.00  0.00     0.021 A 
ATOM     19  C   UNL d   1     -38.879  14.426  16.221  0.00  0.00     0.026 A 
ATOM     20  C   UNL d   1     -38.484  13.717  16.073  0.00  0.00     0.094 A 
ATOM     21  C   UNL d   1     -38.401  13.158  16.674  0.00  0.00     0.026 A 
ATOM     22  C   UNL d   1     -38.714  13.307  17.422  0.00  0.00     0.021 A 
BRANCH  20  23
ATOM     23  O   UNL d   1     -38.171  13.567  15.325  0.00  0.00    -0.328 OA
ATOM     24  C   UNL d   1     -37.942  14.194  14.841  0.00  0.00     0.181 C 
ENDBRANCH  20  23
ENDBRANCH   3  17
TORSDOF 4
ENDMDL
MODEL 5
REMARK VINA RESULT:      -6.4      1.661      2.193
REMARK  4 active torsions:
REMARK  status: ('A' for Active; 'I' for Inactive)
REMARK    1  A    between atoms: C_6  and  C_1 
REMARK    2  A    between atoms: C_8  and  N_3 
REMARK       I    between atoms: N_7  and  C_6 
REMARK    3  A    between atoms: C_9  and  N_7 
REMARK    4  A    between atoms: O_19  and  C_16 
ROOT
ATOM      1  C   UNL d   1     -46.123  12.556  22.893  0.00  0.00     0.199 A 
ATOM      2  C   UNL d   1     -46.878  12.799  22.676  0.00  0.00     0.211 A 
ATOM      3  N   UNL d   1     -47.422  12.428  23.170  0.00  0.00    -0.191 N 
ATOM      4  N   UNL d   1     -47.000  11.951  23.698  0.00  0.00    -0.058 NA
ATOM      5  N   UNL d   1     -46.199  12.026  23.531  0.00  0.00    -0.122 NA
ATOM      6  N   UNL d   1     -47.057  13.324  22.067  0.00  0.00    -0.125 N 
ENDROOT
BRANCH   1   7
ATOM      7  C   UNL d   1     -45.414  12.794  22.540  0.00  0.00     0.302 C 
ATOM      8  N   UNL d   1     -44.852  12.222  22.324  0.00  0.00    -0.204 NA
ATOM      9  O   UNL d   1     -45.265  13.593  22.404  0.00  0.00    -0.263 OA
BRANCH   8  10
ATOM     10  C   UNL d   1     -44.145  12.466  21.973  0.00  0.00     0.112 A 
ATOM     11  C   UNL d   1     -43.450  12.057  22.139  0.00  0.00     0.158 A 
ATOM     12  F   UNL d   1     -43.460  11.413  22.648  0.00  0.00    -0.203 F 
ATOM     13  C   UNL d   1     -42.734  12.298  21.788  0.00  0.00     0.031 A 
ATOM     14  C   UNL d   1     -42.730  12.942  21.280  0.00  0.00     0.002 A 
ATOM     15  C   UNL d   1     -43.430  13.353  21.114  0.00  0.00     0.002 A 
ATOM     16  C   UNL d   1     -44.136  13.109  21.464  0.00  0.00     0.021 A 
ENDBRANCH   8  10
ENDBRANCH   1   7
BRANCH   3  17
ATOM     17  C   UNL d   1     -48.241  12.515  23.145  0.00  0.00     0.086 A 
ATOM     18  C   UNL d   1     -48.720  11.863  22.984  0.00  0.00     0.021 A 
ATOM     19  C   UNL d   1     -49.540  11.950  22.959  0.00  0.00     0.026 A 
ATOM     20  C   UNL d   1     -49.880  12.690  23.095  0.00  0.00     0.094 A 
ATOM     21  C   UNL d   1     -49.401  13.341  23.256  0.00  0.00     0.026 A 
ATOM     22  C   UNL d   1     -48.581  13.254  23.281  0.00  0.00     0.021 A 
BRANCH  20  23
ATOM     23  O   UNL d   1     -50.700  12.777  23.070  0.00  0.00    -0.328 OA
ATOM     24  C   UNL d   1     -51.062  13.070  22.390  0.00  0.00     0.181 C 
ENDBRANCH  20  23
ENDBRANCH   3  17
TORSDOF 4
ENDMDL
MODEL 6
REMARK VINA RESULT:      -6.3      8.124      9.524
REMARK  4 active torsions:
REMARK  status: ('A' for Active; 'I' for Inactive)
REMARK    1  A    between atoms: C_6  and  C_1 
REMARK    2  A    between atoms: C_8  and  N_3 
REMARK       I    between atoms: N_7  and  C_6 
REMARK    3  A    between atoms: C_9  and  N_7 
REMARK    4  A    between atoms: O_19  and  C_16 
ROOT
ATOM      1  C   UNL d   1     -39.359  15.003  18.759  0.00  0.00     0.199 A 
ATOM      2  C   UNL d   1     -38.977  15.044  19.486  0.00  0.00     0.211 A 
ATOM      3  N   UNL d   1     -39.548  15.090  20.077  0.00  0.00    -0.191 N 
ATOM      4  N   UNL d   1     -40.290  15.078  19.712  0.00  0.00    -0.058 NA
ATOM      5  N   UNL d   1     -40.180  15.025  18.900  0.00  0.00    -0.122 NA
ATOM      6  N   UNL d   1     -38.162  15.039  19.601  0.00  0.00    -0.125 N 
ENDROOT
BRANCH   1   7
ATOM      7  C   UNL d   1     -38.995  14.950  18.019  0.00  0.00     0.302 C 
ATOM      8  N   UNL d   1     -39.082  14.258  17.568  0.00  0.00    -0.204 NA
ATOM      9  O   UNL d   1     -38.549  15.580  17.729  0.00  0.00    -0.263 OA
BRANCH   8  10
ATOM     10  C   UNL d   1     -38.715  14.211  16.830  0.00  0.00     0.112 A 
ATOM     11  C   UNL d   1     -38.382  13.497  16.590  0.00  0.00     0.158 A 
ATOM     12  F   UNL d   1     -38.415  12.839  17.080  0.00  0.00    -0.203 F 
ATOM     13  C   UNL d   1     -38.011  13.443  15.846  0.00  0.00     0.031 A 
ATOM     14  C   UNL d   1     -37.981  14.103  15.360  0.00  0.00     0.002 A 
ATOM     15  C   UNL d   1     -38.316  14.821  15.603  0.00  0.00     0.002 A 
ATOM     16  C   UNL d   1     -38.683  14.868  16.341  0.00  0.00     0.021 A 
ENDBRANCH   8  10
ENDBRANCH   1   7
BRANCH   3  17
ATOM     17  C   UNL d   1     -39.408  15.140  20.887  0.00  0.00     0.086 A 
ATOM     18  C   UNL d   1     -39.247  15.872  21.233  0.00  0.00     0.021 A 
ATOM     19  C   UNL d   1     -39.106  15.922  22.045  0.00  0.00     0.026 A 
ATOM     20  C   UNL d   1     -39.126  15.240  22.509  0.00  0.00     0.094 A 
ATOM     21  C   UNL d   1     -39.287  14.509  22.163  0.00  0.00     0.026 A 
ATOM     22  C   UNL d   1     -39.428  14.459  21.352  0.00  0.00     0.021 A 
BRANCH  20  23
ATOM     23  O   UNL d   1     -38.985  15.290  23.320  0.00  0.00    -0.328 OA
ATOM     24  C   UNL d   1     -38.248  15.536  23.596  0.00  0.00     0.181 C 
ENDBRANCH  20  23
ENDBRANCH   3  17
TORSDOF 4
ENDMDL
MODEL 7
REMARK VINA RESULT:      -5.9      8.037      8.469
REMARK  4 active torsions:
REMARK  status: ('A' for Active; 'I' for Inactive)
REMARK    1  A    between atoms: C_6  and  C_1 
REMARK    2  A    between atoms: C_8  and  N_3 
REMARK       I    between atoms: N_7  and  C_6 
REMARK    3  A    between atoms: C_9  and  N_7 
REMARK    4  A    between atoms: O_19  and  C_16 
ROOT
ATOM      1  C   UNL d   1     -38.986  14.556  19.965  0.00  0.00     0.199 A 
ATOM      2  C   UNL d   1     -39.516  14.999  19.518  0.00  0.00     0.211 A 
ATOM      3  N   UNL d   1     -39.472  14.744  18.737  0.00  0.00    -0.191 N 
ATOM      4  N   UNL d   1     -38.910  14.138  18.700  0.00  0.00    -0.058 NA
ATOM      5  N   UNL d   1     -38.608  14.018  19.454  0.00  0.00    -0.122 NA
ATOM      6  N   UNL d   1     -40.005  15.596  19.805  0.00  0.00    -0.125 N 
ENDROOT
BRANCH   1   7
ATOM      7  C   UNL d   1     -38.852  14.631  20.778  0.00  0.00     0.302 C 
ATOM      8  N   UNL d   1     -38.850  13.953  21.257  0.00  0.00    -0.204 NA
ATOM      9  O   UNL d   1     -38.721  15.374  21.111  0.00  0.00    -0.263 OA
BRANCH   8  10
ATOM     10  C   UNL d   1     -38.716  14.035  22.067  0.00  0.00     0.112 A 
ATOM     11  C   UNL d   1     -38.593  13.360  22.525  0.00  0.00     0.158 A 
ATOM     12  F   UNL d   1     -38.605  12.616  22.179  0.00  0.00    -0.203 F 
ATOM     13  C   UNL d   1     -38.457  13.436  23.344  0.00  0.00     0.031 A 
ATOM     14  C   UNL d   1     -38.446  14.182  23.685  0.00  0.00     0.002 A 
ATOM     15  C   UNL d   1     -38.569  14.859  23.223  0.00  0.00     0.002 A 
ATOM     16  C   UNL d   1     -38.704  14.778  22.413  0.00  0.00     0.021 A 
ENDBRANCH   8  10
ENDBRANCH   1   7
BRANCH   3  17
ATOM     17  C   UNL d   1     -39.909  15.038  18.103  0.00  0.00     0.086 A 
ATOM     18  C   UNL d   1     -40.687  14.789  17.989  0.00  0.00     0.021 A 
ATOM     19  C   UNL d   1     -41.125  15.084  17.354  0.00  0.00     0.026 A 
ATOM     20  C   UNL d   1     -40.783  15.627  16.835  0.00  0.00     0.094 A 
ATOM     21  C   UNL d   1     -40.005  15.876  16.950  0.00  0.00     0.026 A 
ATOM     22  C   UNL d   1     -39.568  15.581  17.585  0.00  0.00     0.021 A 
BRANCH  20  23
ATOM     23  O   UNL d   1     -41.221  15.922  16.201  0.00  0.00    -0.328 OA
ATOM     24  C   UNL d   1     -42.044  15.917  16.231  0.00  0.00     0.181 C 
ENDBRANCH  20  23
ENDBRANCH   3  17
TORSDOF 4
ENDMDL
MODEL 8
REMARK VINA RESULT:      -5.9      7.519      8.924
REMARK  4 active torsions:
REMARK  status: ('A' for Active; 'I' for Inactive)
REMARK    1  A    between atoms: C_6  and  C_1 
REMARK    2  A    between atoms: C_8  and  N_3 
REMARK       I    between atoms: N_7  and  C_6 
REMARK    3  A    between atoms: C_9  and  N_7 
REMARK    4  A    between atoms: O_19  and  C_16 
ROOT
ATOM      1  C   UNL d   1     -40.418  15.270  20.022  0.00  0.00     0.199 A 
ATOM      2  C   UNL d   1     -39.882  14.809  20.443  0.00  0.00     0.211 A 
ATOM      3  N   UNL d   1     -39.917  15.028  21.235  0.00  0.00    -0.191 N 
ATOM      4  N   UNL d   1     -40.480  15.630  21.306  0.00  0.00    -0.058 NA
ATOM      5  N   UNL d   1     -40.791  15.783  20.561  0.00  0.00    -0.122 NA
ATOM      6  N   UNL d   1     -39.394  14.227  20.123  0.00  0.00    -0.125 N 
ENDROOT
BRANCH   1   7
ATOM      7  C   UNL d   1     -40.561  15.232  19.209  0.00  0.00     0.302 C 
ATOM      8  N   UNL d   1     -40.240  15.812  18.709  0.00  0.00    -0.204 NA
ATOM      9  O   UNL d   1     -41.019  14.622  18.896  0.00  0.00    -0.263 OA
BRANCH   8  10
ATOM     10  C   UNL d   1     -40.387  15.768  17.897  0.00  0.00     0.112 A 
ATOM     11  C   UNL d   1     -39.756  15.824  17.370  0.00  0.00     0.158 A 
ATOM     12  F   UNL d   1     -38.990  15.922  17.649  0.00  0.00    -0.203 F 
ATOM     13  C   UNL d   1     -39.898  15.780  16.550  0.00  0.00     0.031 A 
ATOM     14  C   UNL d   1     -40.664  15.682  16.277  0.00  0.00     0.002 A 
ATOM     15  C   UNL d   1     -41.298  15.626  16.808  0.00  0.00     0.002 A 
ATOM     16  C   UNL d   1     -41.152  15.670  17.619  0.00  0.00     0.021 A 
ENDBRANCH   8  10
ENDBRANCH   1   7
BRANCH   3  17
ATOM     17  C   UNL d   1     -39.472  14.706  21.849  0.00  0.00     0.086 A 
ATOM     18  C   UNL d   1     -38.842  15.132  22.168  0.00  0.00     0.021 A 
ATOM     19  C   UNL d   1     -38.396  14.810  22.783  0.00  0.00     0.026 A 
ATOM     20  C   UNL d   1     -38.582  14.062  23.079  0.00  0.00     0.094 A 
ATOM     21  C   UNL d   1     -39.212  13.637  22.760  0.00  0.00     0.026 A 
ATOM     22  C   UNL d   1     -39.657  13.959  22.145  0.00  0.00     0.021 A 
BRANCH  20  23
ATOM     23  O   UNL d   1     -38.136  13.740  23.694  0.00  0.00    -0.328 OA
ATOM     24  C   UNL d   1     -37.940  12.940  23.685  0.00  0.00     0.181 C 
ENDBRANCH  20  23
ENDBRANCH   3  17
TORSDOF 4
ENDMDL
MODEL 9
REMARK VINA RESULT:      -5.2      8.071      9.397
REMARK  4 active torsions:
REMARK  status: ('A' for Active; 'I' for Inactive)
REMARK    1  A    between atoms: C_6  and  C_1 
REMARK    2  A    between atoms: C_8  and  N_3 
REMARK       I    between atoms: N_7  and  C_6 
REMARK    3  A    between atoms: C_9  and  N_7 
REMARK    4  A    between atoms: O_19  and  C_16 
ROOT
ATOM      1  C   UNL d   1     -39.060  15.365  17.872  0.00  0.00     0.199 A 
ATOM      2  C   UNL d   1     -39.735  15.099  18.258  0.00  0.00     0.211 A 
ATOM      3  N   UNL d   1     -39.663  15.276  19.058  0.00  0.00    -0.191 N 
ATOM      4  N   UNL d   1     -38.937  15.656  19.169  0.00  0.00    -0.058 NA
ATOM      5  N   UNL d   1     -38.561  15.713  18.441  0.00  0.00    -0.122 NA
ATOM      6  N   UNL d   1     -40.374  14.720  17.902  0.00  0.00    -0.125 N 
ENDROOT
BRANCH   1   7
ATOM      7  C   UNL d   1     -38.903  15.300  17.063  0.00  0.00     0.302 C 
ATOM      8  N   UNL d   1     -38.398  14.699  16.791  0.00  0.00    -0.204 NA
ATOM      9  O   UNL d   1     -39.244  15.827  16.529  0.00  0.00    -0.263 OA
BRANCH   8  10
ATOM     10  C   UNL d   1     -38.245  14.639  15.981  0.00  0.00     0.112 A 
ATOM     11  C   UNL d   1     -38.224  13.894  15.630  0.00  0.00     0.158 A 
ATOM     12  F   UNL d   1     -38.354  13.220  16.079  0.00  0.00    -0.203 F 
ATOM     13  C   UNL d   1     -38.071  13.827  14.814  0.00  0.00     0.031 A 
ATOM     14  C   UNL d   1     -37.942  14.504  14.369  0.00  0.00     0.002 A 
ATOM     15  C   UNL d   1     -37.963  15.252  14.724  0.00  0.00     0.002 A 
ATOM     16  C   UNL d   1     -38.116  15.313  15.533  0.00  0.00     0.021 A 
ENDBRANCH   8  10
ENDBRANCH   1   7
BRANCH   3  17
ATOM     17  C   UNL d   1     -40.215  15.107  19.646  0.00  0.00     0.086 A 
ATOM     18  C   UNL d   1     -40.701  15.706  19.940  0.00  0.00     0.021 A 
ATOM     19  C   UNL d   1     -41.254  15.536  20.528  0.00  0.00     0.026 A 
ATOM     20  C   UNL d   1     -41.320  14.768  20.822  0.00  0.00     0.094 A 
ATOM     21  C   UNL d   1     -40.834  14.170  20.529  0.00  0.00     0.026 A 
ATOM     22  C   UNL d   1     -40.282  14.340  19.940  0.00  0.00     0.021 A 
BRANCH  20  23
ATOM     23  O   UNL d   1     -41.873  14.598  21.411  0.00  0.00    -0.328 OA
ATOM     24  C   UNL d   1     -42.251  13.866  21.422  0.00  0.00     0.181 C 
ENDBRANCH  20  23
ENDBRANCH   3  17
TORSDOF 4
ENDMDL
