MODEL 1
REMARK VINA RESULT:      11.9      0.000      0.000
REMARK  4 active torsions:
REMARK  status: ('A' for Active; 'I' for Inactive)
REMARK       I    between atoms: C_2  and  N_1 
REMARK    1  A    between atoms: C_4  and  C_2 
REMARK    2  A    between atoms: S_8  and  C_3 
REMARK    3  A    between atoms: O_12  and  C_7 
REMARK    4  A    between atoms: C_15  and  O_12 
ROOT
ATOM      1  C   UNL d   1      46.474 -19.138  43.505  0.00  0.00     0.079 A 
ATOM      2  C   UNL d   1      46.247 -18.704  44.177  0.00  0.00     0.105 A 
ATOM      3  C   UNL d   1      46.645 -19.941  43.561  0.00  0.00     0.007 A 
ATOM      4  C   UNL d   1      46.195 -19.094  44.902  0.00  0.00     0.025 A 
ATOM      5  C   UNL d   1      46.591 -20.322  44.287  0.00  0.00     0.000 A 
ATOM      6  C   UNL d   1      46.368 -19.902  44.951  0.00  0.00     0.002 A 
ENDROOT
BRANCH   1   7
ATOM      7  C   UNL d   1      46.530 -18.756  42.773  0.00  0.00     0.268 C 
ATOM      8  N   UNL d   1      46.491 -19.193  42.076  0.00  0.00    -0.251 N 
ATOM      9  C   UNL d   1      46.537 -18.893  41.307  0.00  0.00     0.178 A 
ATOM     10  C   UNL d   1      46.397 -20.017  42.028  0.00  0.00     0.106 A 
ATOM     11  N   UNL d   1      46.473 -19.525  40.790  0.00  0.00    -0.219 NA
ATOM     12  C   UNL d   1      46.387 -20.217  41.225  0.00  0.00     0.120 A 
ATOM     13  O   UNL d   1      46.624 -17.937  42.744  0.00  0.00    -0.267 OA
BRANCH   9  14
ATOM     14  S   UNL d   1      46.630 -18.102  41.111  0.00  0.00    -0.076 SA
ATOM     15  C   UNL d   1      46.643 -17.865  40.318  0.00  0.00     0.077 C 
ENDBRANCH   9  14
ENDBRANCH   1   7
BRANCH   2  16
ATOM     16  O   UNL d   1      46.078 -17.902  44.116  0.00  0.00    -0.305 OA
BRANCH  16  17
ATOM     17  C   UNL d   1      45.787 -17.496  44.773  0.00  0.00     0.123 C 
ATOM     18  C   UNL d   1      45.744 -16.684  44.759  0.00  0.00     0.029 C 
ENDBRANCH  16  17
ENDBRANCH   2  16
TORSDOF 4
ENDMDL
