MODEL 1
REMARK VINA RESULT:      -0.8      0.000      0.000
REMARK  5 active torsions:
REMARK  status: ('A' for Active; 'I' for Inactive)
REMARK    1  A    between atoms: C_2  and  S_1 
REMARK    2  A    between atoms: N_3  and  S_1 
REMARK    3  A    between atoms: C_10  and  N_3 
REMARK    4  A    between atoms: C_9  and  C_5 
REMARK    5  A    between atoms: O_14  and  C_8 
ROOT
ATOM      1  C   UNL d   1      30.002  17.118 -24.417  0.00  0.00     0.127 A 
ATOM      2  C   UNL d   1      29.647  16.535 -23.954  0.00  0.00     0.011 A 
ATOM      3  C   UNL d   1      28.864  16.619 -23.713  0.00  0.00    -0.022 A 
ATOM      4  C   UNL d   1      29.569  17.780 -24.634  0.00  0.00     0.106 A 
ATOM      5  C   UNL d   1      28.436  17.286 -23.934  0.00  0.00    -0.002 A 
ATOM      6  C   UNL d   1      28.791  17.870 -24.397  0.00  0.00     0.025 A 
ENDROOT
BRANCH   1   7
ATOM      7  S   UNL d   1      30.780  17.029 -24.653  0.00  0.00     0.287 S 
ATOM      8  O   UNL d   1      30.973  17.725 -24.259  0.00  0.00    -0.198 OA
ATOM      9  O   UNL d   1      30.594  16.338 -25.046  0.00  0.00    -0.198 OA
BRANCH   7  10
ATOM     10  N   UNL d   1      31.566  16.945 -24.888  0.00  0.00    -0.157 NA
BRANCH  10  11
ATOM     11  C   UNL d   1      32.104  16.572 -24.389  0.00  0.00     0.113 A 
ATOM     12  C   UNL d   1      32.415  15.846 -24.592  0.00  0.00     0.119 A 
ATOM     13  N   UNL d   1      32.954  15.473 -24.092  0.00  0.00    -0.241 NA
ATOM     14  C   UNL d   1      33.182  15.836 -23.380  0.00  0.00     0.099 A 
ATOM     15  C   UNL d   1      32.863  16.571 -23.183  0.00  0.00     0.022 A 
ATOM     16  C   UNL d   1      32.325  16.942 -23.682  0.00  0.00     0.023 A 
ENDBRANCH  10  11
ENDBRANCH   7  10
ENDBRANCH   1   7
BRANCH   4  17
ATOM     17  O   UNL d   1      29.924  18.363 -25.097  0.00  0.00    -0.327 OA
ATOM     18  C   UNL d   1      29.623  19.131 -25.096  0.00  0.00     0.181 C 
ENDBRANCH   4  17
BRANCH   3  19
ATOM     19  C   UNL d   1      28.509  16.036 -23.250  0.00  0.00     0.019 C 
ATOM     20  C   UNL d   1      28.155  15.453 -22.787  0.00  0.00     0.004 C 
ATOM     21  C   UNL d   1      29.010  16.230 -22.623  0.00  0.00     0.004 C 
ATOM     22  C   UNL d   1      28.009  15.842 -23.877  0.00  0.00     0.004 C 
ENDBRANCH   3  19
TORSDOF 5
ENDMDL
MODEL 2
REMARK VINA RESULT:      -0.2      1.488      2.447
REMARK  5 active torsions:
REMARK  status: ('A' for Active; 'I' for Inactive)
REMARK    1  A    between atoms: C_2  and  S_1 
REMARK    2  A    between atoms: N_3  and  S_1 
REMARK    3  A    between atoms: C_10  and  N_3 
REMARK    4  A    between atoms: C_9  and  C_5 
REMARK    5  A    between atoms: O_14  and  C_8 
ROOT
ATOM      1  C   UNL d   1      30.973  16.285 -24.012  0.00  0.00     0.127 A 
ATOM      2  C   UNL d   1      30.201  16.398 -24.279  0.00  0.00     0.011 A 
ATOM      3  C   UNL d   1      29.573  16.038 -23.886  0.00  0.00    -0.022 A 
ATOM      4  C   UNL d   1      31.109  15.813 -23.356  0.00  0.00     0.106 A 
ATOM      5  C   UNL d   1      29.716  15.566 -23.228  0.00  0.00    -0.002 A 
ATOM      6  C   UNL d   1      30.489  15.453 -22.961  0.00  0.00     0.025 A 
ENDROOT
BRANCH   1   7
ATOM      7  S   UNL d   1      31.594  16.645 -24.407  0.00  0.00     0.287 S 
ATOM      8  O   UNL d   1      31.798  17.038 -23.713  0.00  0.00    -0.198 OA
ATOM      9  O   UNL d   1      31.395  16.257 -25.097  0.00  0.00    -0.198 OA
BRANCH   7  10
ATOM     10  N   UNL d   1      32.220  17.011 -24.798  0.00  0.00    -0.157 NA
BRANCH  10  11
ATOM     11  C   UNL d   1      32.305  17.828 -24.758  0.00  0.00     0.113 A 
ATOM     12  C   UNL d   1      31.698  18.316 -25.002  0.00  0.00     0.119 A 
ATOM     13  N   UNL d   1      31.784  19.134 -24.961  0.00  0.00    -0.241 NA
ATOM     14  C   UNL d   1      32.489  19.466 -24.672  0.00  0.00     0.099 A 
ATOM     15  C   UNL d   1      33.098  18.966 -24.428  0.00  0.00     0.022 A 
ATOM     16  C   UNL d   1      33.012  18.149 -24.468  0.00  0.00     0.023 A 
ENDBRANCH  10  11
ENDBRANCH   7  10
ENDBRANCH   1   7
BRANCH   4  17
ATOM     17  O   UNL d   1      31.882  15.700 -23.089  0.00  0.00    -0.327 OA
ATOM     18  C   UNL d   1      32.021  15.481 -22.307  0.00  0.00     0.181 C 
ENDBRANCH   4  17
BRANCH   3  19
ATOM     19  C   UNL d   1      28.800  16.152 -24.153  0.00  0.00     0.019 C 
ATOM     20  C   UNL d   1      28.028  16.265 -24.419  0.00  0.00     0.004 C 
ATOM     21  C   UNL d   1      28.875  15.497 -24.649  0.00  0.00     0.004 C 
ATOM     22  C   UNL d   1      28.725  16.806 -23.656  0.00  0.00     0.004 C 
ENDBRANCH   3  19
TORSDOF 5
ENDMDL
MODEL 3
REMARK VINA RESULT:       1.6      4.188      5.201
REMARK  5 active torsions:
REMARK  status: ('A' for Active; 'I' for Inactive)
REMARK    1  A    between atoms: C_2  and  S_1 
REMARK    2  A    between atoms: N_3  and  S_1 
REMARK    3  A    between atoms: C_10  and  N_3 
REMARK    4  A    between atoms: C_9  and  C_5 
REMARK    5  A    between atoms: O_14  and  C_8 
ROOT
ATOM      1  C   UNL d   1      32.967  21.026 -22.830  0.00  0.00     0.127 A 
ATOM      2  C   UNL d   1      32.776  20.893 -22.039  0.00  0.00     0.011 A 
ATOM      3  C   UNL d   1      32.667  21.530 -21.528  0.00  0.00    -0.022 A 
ATOM      4  C   UNL d   1      33.047  21.795 -23.102  0.00  0.00     0.106 A 
ATOM      5  C   UNL d   1      32.748  22.299 -21.808  0.00  0.00    -0.002 A 
ATOM      6  C   UNL d   1      32.940  22.432 -22.600  0.00  0.00     0.025 A 
ENDROOT
BRANCH   1   7
ATOM      7  S   UNL d   1      33.074  20.389 -23.333  0.00  0.00     0.287 S 
ATOM      8  O   UNL d   1      32.931  20.882 -23.977  0.00  0.00    -0.198 OA
ATOM      9  O   UNL d   1      33.217  19.897 -22.698  0.00  0.00    -0.198 OA
BRANCH   7  10
ATOM     10  N   UNL d   1      33.181  19.752 -23.845  0.00  0.00    -0.157 NA
BRANCH  10  11
ATOM     11  C   UNL d   1      32.765  19.053 -23.720  0.00  0.00     0.113 A 
ATOM     12  C   UNL d   1      33.018  18.522 -23.154  0.00  0.00     0.119 A 
ATOM     13  N   UNL d   1      32.601  17.822 -23.029  0.00  0.00    -0.241 NA
ATOM     14  C   UNL d   1      31.923  17.655 -23.479  0.00  0.00     0.099 A 
ATOM     15  C   UNL d   1      31.675  18.197 -24.050  0.00  0.00     0.022 A 
ATOM     16  C   UNL d   1      32.091  18.895 -24.174  0.00  0.00     0.023 A 
ENDBRANCH  10  11
ENDBRANCH   7  10
ENDBRANCH   1   7
BRANCH   4  17
ATOM     17  O   UNL d   1      33.238  21.929 -23.894  0.00  0.00    -0.327 OA
ATOM     18  C   UNL d   1      33.164  22.684 -24.215  0.00  0.00     0.181 C 
ENDBRANCH   4  17
BRANCH   3  19
ATOM     19  C   UNL d   1      32.475  21.396 -20.737  0.00  0.00     0.019 C 
ATOM     20  C   UNL d   1      32.284  21.263 -19.946  0.00  0.00     0.004 C 
ATOM     21  C   UNL d   1      31.730  21.727 -20.861  0.00  0.00     0.004 C 
ATOM     22  C   UNL d   1      33.221  21.065 -20.613  0.00  0.00     0.004 C 
ENDBRANCH   3  19
TORSDOF 5
ENDMDL
