MODEL 1
REMARK VINA RESULT:      49.6      0.000      0.000
REMARK  3 active torsions:
REMARK  status: ('A' for Active; 'I' for Inactive)
REMARK    1  A    between atoms: C_4  and  C_1 
REMARK       I    between atoms: N_6  and  C_4 
REMARK    2  A    between atoms: C_8  and  C_5 
REMARK    3  A    between atoms: C_7  and  N_6 
ROOT
ATOM      1  C   UNL d   1     -54.733-101.307 -41.416  0.00  0.00     0.192 A 
ATOM      2  C   UNL d   1     -54.724-100.664 -40.127  0.00  0.00     0.296 A 
ATOM      3  O   UNL d   1     -54.730-100.610 -40.956  0.00  0.00    -0.290 OA
ATOM      4  C   UNL d   1     -54.722-101.403 -39.754  0.00  0.00     0.063 A 
ATOM      5  C   UNL d   1     -54.726-102.095 -40.221  0.00  0.00     0.004 A 
ATOM      6  C   UNL d   1     -54.731-102.049 -41.046  0.00  0.00     0.010 A 
ATOM      7  O   UNL d   1     -54.720 -99.978 -39.675  0.00  0.00    -0.259 OA
ATOM      8  C   UNL d   1     -54.737-101.997 -41.862  0.00  0.00     0.045 C 
ATOM      9  C   UNL d   1     -54.724-102.834 -39.847  0.00  0.00    -0.000 A 
ATOM     10  C   UNL d   1     -54.717-101.455 -38.937  0.00  0.00     0.005 A 
ATOM     11  C   UNL d   1     -54.718-102.875 -39.023  0.00  0.00    -0.000 A 
ATOM     12  C   UNL d   1     -54.715-102.189 -38.571  0.00  0.00     0.000 A 
ENDROOT
BRANCH   1  13
ATOM     13  C   UNL d   1     -54.736-100.695 -41.958  0.00  0.00     0.285 C 
ATOM     14  N   UNL d   1     -54.756-100.861 -42.766  0.00  0.00    -0.209 NA
ATOM     15  O   UNL d   1     -54.719 -99.913 -41.694  0.00  0.00    -0.267 OA
BRANCH  14  16
ATOM     16  C   UNL d   1     -54.759-100.241 -43.308  0.00  0.00     0.090 A 
ATOM     17  C   UNL d   1     -54.809-100.403 -44.107  0.00  0.00     0.082 A 
ATOM     18  C   UNL d   1     -54.813 -99.783 -44.652  0.00  0.00     0.008 A 
ATOM     19  C   UNL d   1     -54.765 -99.003 -44.389  0.00  0.00     0.000 A 
ATOM     20  C   UNL d   1     -54.715 -98.845 -43.579  0.00  0.00     0.002 A 
ATOM     21  C   UNL d   1     -54.712 -99.469 -43.044  0.00  0.00     0.019 A 
BRANCH  17  22
ATOM     22  C   UNL d   1     -54.857-101.186 -44.368  0.00  0.00     0.212 C 
ATOM     23  O   UNL d   1     -55.048-101.343 -45.157  0.00  0.00    -0.644 OA
ATOM     24  O   UNL d   1     -54.715-101.799 -43.847  0.00  0.00    -0.644 OA
ENDBRANCH  17  22
ENDBRANCH  14  16
ENDBRANCH   1  13
TORSDOF 3
ENDMDL
