MODEL 1
REMARK VINA RESULT:      -8.3      0.000      0.000
REMARK  3 active torsions:
REMARK  status: ('A' for Active; 'I' for Inactive)
REMARK    1  A    between atoms: C_4  and  C_1 
REMARK       I    between atoms: N_7  and  C_4 
REMARK    2  A    between atoms: C_14  and  N_7 
REMARK    3  A    between atoms: C_9  and  C_10 
ROOT
ATOM      1  C   UNL d   1      52.591  33.394  53.602  0.00  0.00     0.281 C 
ATOM      2  N   UNL d   1      52.413  34.112  53.262  0.00  0.00    -0.208 NA
ATOM      3  O   UNL d   1      52.041  32.777  53.594  0.00  0.00    -0.265 OA
ENDROOT
BRANCH   2   4
ATOM      4  C   UNL d   1      51.682  34.222  52.910  0.00  0.00     0.085 A 
ATOM      5  C   UNL d   1      51.625  34.177  52.070  0.00  0.00     0.019 A 
ATOM      6  C   UNL d   1      50.902  34.284  51.701  0.00  0.00     0.005 A 
ATOM      7  C   UNL d   1      50.227  34.436  52.142  0.00  0.00     0.039 A 
ATOM      8  C   UNL d   1      50.289  34.480  52.971  0.00  0.00     0.005 A 
ATOM      9  C   UNL d   1      51.010  34.373  53.343  0.00  0.00     0.019 A 
BRANCH   7  10
ATOM     10  C   UNL d   1      49.480  34.547  51.762  0.00  0.00     0.196 C 
ATOM     11  O   UNL d   1      49.370  34.336  50.988  0.00  0.00    -0.287 OA
ATOM     12  C   UNL d   1      48.838  34.883  52.190  0.00  0.00     0.045 C 
ENDBRANCH   7  10
ENDBRANCH   2   4
BRANCH   1  13
ATOM     13  C   UNL d   1      53.327  33.255  53.967  0.00  0.00     0.076 A 
ATOM     14  C   UNL d   1      53.811  32.619  53.870  0.00  0.00     0.092 A 
ATOM     15  S   UNL d   1      54.500  32.702  54.344  0.00  0.00    -0.064 SA
ATOM     16 CL   UNL d   1      53.647  31.954  53.359  0.00  0.00    -0.075 Cl
ATOM     17  C   UNL d   1      54.434  33.382  54.723  0.00  0.00     0.088 A 
ATOM     18  C   UNL d   1      53.709  33.747  54.505  0.00  0.00     0.024 A 
ATOM     19 CL   UNL d   1      55.004  33.694  55.265  0.00  0.00    -0.075 Cl
ENDBRANCH   1  13
TORSDOF 3
ENDMDL
MODEL 2
REMARK VINA RESULT:      -8.2      2.296      4.039
REMARK  3 active torsions:
REMARK  status: ('A' for Active; 'I' for Inactive)
REMARK    1  A    between atoms: C_4  and  C_1 
REMARK       I    between atoms: N_7  and  C_4 
REMARK    2  A    between atoms: C_14  and  N_7 
REMARK    3  A    between atoms: C_9  and  C_10 
ROOT
ATOM      1  C   UNL d   1      52.650  33.106  53.672  0.00  0.00     0.281 C 
ATOM      2  N   UNL d   1      53.308  32.642  53.550  0.00  0.00    -0.208 NA
ATOM      3  O   UNL d   1      51.913  32.759  53.812  0.00  0.00    -0.265 OA
ENDROOT
BRANCH   2   4
ATOM      4  C   UNL d   1      53.237  31.826  53.566  0.00  0.00     0.085 A 
ATOM      5  C   UNL d   1      53.515  31.408  54.244  0.00  0.00     0.019 A 
ATOM      6  C   UNL d   1      53.452  30.593  54.277  0.00  0.00     0.005 A 
ATOM      7  C   UNL d   1      53.119  30.174  53.654  0.00  0.00     0.039 A 
ATOM      8  C   UNL d   1      52.847  30.592  52.989  0.00  0.00     0.005 A 
ATOM      9  C   UNL d   1      52.908  31.407  52.952  0.00  0.00     0.019 A 
BRANCH   7  10
ATOM     10  C   UNL d   1      53.054  29.332  53.688  0.00  0.00     0.196 C 
ATOM     11  O   UNL d   1      52.580  28.928  53.171  0.00  0.00    -0.287 OA
ATOM     12  C   UNL d   1      53.487  28.901  54.268  0.00  0.00     0.045 C 
ENDBRANCH   7  10
ENDBRANCH   2   4
BRANCH   1  13
ATOM     13  C   UNL d   1      52.694  33.936  53.661  0.00  0.00     0.076 A 
ATOM     14  C   UNL d   1      52.342  34.441  53.141  0.00  0.00     0.092 A 
ATOM     15  S   UNL d   1      52.533  35.236  53.332  0.00  0.00    -0.064 SA
ATOM     16 CL   UNL d   1      51.845  34.199  52.489  0.00  0.00    -0.075 Cl
ATOM     17  C   UNL d   1      52.996  35.215  53.960  0.00  0.00     0.088 A 
ATOM     18  C   UNL d   1      53.112  34.414  54.186  0.00  0.00     0.024 A 
ATOM     19 CL   UNL d   1      53.324  35.893  54.347  0.00  0.00    -0.075 Cl
ENDBRANCH   1  13
TORSDOF 3
ENDMDL
MODEL 3
REMARK VINA RESULT:      -7.9      2.681      3.409
REMARK  3 active torsions:
REMARK  status: ('A' for Active; 'I' for Inactive)
REMARK    1  A    between atoms: C_4  and  C_1 
REMARK       I    between atoms: N_7  and  C_4 
REMARK    2  A    between atoms: C_14  and  N_7 
REMARK    3  A    between atoms: C_9  and  C_10 
ROOT
ATOM      1  C   UNL d   1      53.397  31.765  53.750  0.00  0.00     0.281 C 
ATOM      2  N   UNL d   1      52.902  32.207  54.223  0.00  0.00    -0.208 NA
ATOM      3  O   UNL d   1      53.980  32.133  53.295  0.00  0.00    -0.265 OA
ENDROOT
BRANCH   2   4
ATOM      4  C   UNL d   1      52.986  33.021  54.247  0.00  0.00     0.085 A 
ATOM      5  C   UNL d   1      52.449  33.497  53.804  0.00  0.00     0.019 A 
ATOM      6  C   UNL d   1      52.517  34.312  53.816  0.00  0.00     0.005 A 
ATOM      7  C   UNL d   1      53.106  34.676  54.257  0.00  0.00     0.039 A 
ATOM      8  C   UNL d   1      53.633  34.200  54.692  0.00  0.00     0.005 A 
ATOM      9  C   UNL d   1      53.568  33.385  54.683  0.00  0.00     0.019 A 
BRANCH   7  10
ATOM     10  C   UNL d   1      53.177  35.518  54.270  0.00  0.00     0.196 C 
ATOM     11  O   UNL d   1      52.833  35.957  54.855  0.00  0.00    -0.287 OA
ATOM     12  C   UNL d   1      53.612  35.910  53.665  0.00  0.00     0.045 C 
ENDBRANCH   7  10
ENDBRANCH   2   4
BRANCH   1  13
ATOM     13  C   UNL d   1      53.334  30.937  53.708  0.00  0.00     0.076 A 
ATOM     14  C   UNL d   1      53.068  30.495  53.089  0.00  0.00     0.092 A 
ATOM     15  S   UNL d   1      53.097  29.677  53.281  0.00  0.00    -0.064 SA
ATOM     16 CL   UNL d   1      52.795  30.813  52.345  0.00  0.00    -0.075 Cl
ATOM     17  C   UNL d   1      53.378  29.624  54.007  0.00  0.00     0.088 A 
ATOM     18  C   UNL d   1      53.534  30.397  54.297  0.00  0.00     0.024 A 
ATOM     19 CL   UNL d   1      53.502  28.901  54.429  0.00  0.00    -0.075 Cl
ENDBRANCH   1  13
TORSDOF 3
ENDMDL
MODEL 4
REMARK VINA RESULT:      -7.8      2.579      4.542
REMARK  3 active torsions:
REMARK  status: ('A' for Active; 'I' for Inactive)
REMARK    1  A    between atoms: C_4  and  C_1 
REMARK       I    between atoms: N_7  and  C_4 
REMARK    2  A    between atoms: C_14  and  N_7 
REMARK    3  A    between atoms: C_9  and  C_10 
ROOT
ATOM      1  C   UNL d   1      50.708  34.041  52.743  0.00  0.00     0.281 C 
ATOM      2  N   UNL d   1      51.462  34.198  52.478  0.00  0.00    -0.208 NA
ATOM      3  O   UNL d   1      50.587  33.571  53.411  0.00  0.00    -0.265 OA
ENDROOT
BRANCH   2   4
ATOM      4  C   UNL d   1      52.104  33.885  52.879  0.00  0.00     0.085 A 
ATOM      5  C   UNL d   1      52.594  34.404  53.328  0.00  0.00     0.019 A 
ATOM      6  C   UNL d   1      53.240  34.109  53.734  0.00  0.00     0.005 A 
ATOM      7  C   UNL d   1      53.419  33.308  53.709  0.00  0.00     0.039 A 
ATOM      8  C   UNL d   1      52.932  32.802  53.264  0.00  0.00     0.005 A 
ATOM      9  C   UNL d   1      52.285  33.093  52.857  0.00  0.00     0.019 A 
BRANCH   7  10
ATOM     10  C   UNL d   1      54.086  33.004  54.129  0.00  0.00     0.196 C 
ATOM     11  O   UNL d   1      54.790  32.869  53.753  0.00  0.00    -0.287 OA
ATOM     12  C   UNL d   1      54.023  32.836  54.952  0.00  0.00     0.045 C 
ENDBRANCH   7  10
ENDBRANCH   2   4
BRANCH   1  13
ATOM     13  C   UNL d   1      50.037  34.346  52.356  0.00  0.00     0.076 A 
ATOM     14  C   UNL d   1      49.482  34.848  52.654  0.00  0.00     0.092 A 
ATOM     15  S   UNL d   1      48.899  35.016  52.074  0.00  0.00    -0.064 SA
ATOM     16 CL   UNL d   1      49.488  35.164  53.448  0.00  0.00    -0.075 Cl
ATOM     17  C   UNL d   1      49.098  34.620  51.430  0.00  0.00     0.088 A 
ATOM     18  C   UNL d   1      49.806  34.193  51.580  0.00  0.00     0.024 A 
ATOM     19 CL   UNL d   1      48.665  34.625  50.702  0.00  0.00    -0.075 Cl
ENDBRANCH   1  13
TORSDOF 3
ENDMDL
MODEL 5
REMARK VINA RESULT:      -7.2      3.129      4.792
REMARK  3 active torsions:
REMARK  status: ('A' for Active; 'I' for Inactive)
REMARK    1  A    between atoms: C_4  and  C_1 
REMARK       I    between atoms: N_7  and  C_4 
REMARK    2  A    between atoms: C_14  and  N_7 
REMARK    3  A    between atoms: C_9  and  C_10 
ROOT
ATOM      1  C   UNL d   1      49.527  34.703  52.370  0.00  0.00     0.281 C 
ATOM      2  N   UNL d   1      50.031  34.689  53.009  0.00  0.00    -0.208 NA
ATOM      3  O   UNL d   1      49.687  34.248  51.700  0.00  0.00    -0.265 OA
ENDROOT
BRANCH   2   4
ATOM      4  C   UNL d   1      50.701  34.219  52.986  0.00  0.00     0.085 A 
ATOM      5  C   UNL d   1      50.669  33.449  53.327  0.00  0.00     0.019 A 
ATOM      6  C   UNL d   1      51.330  32.966  53.312  0.00  0.00     0.005 A 
ATOM      7  C   UNL d   1      52.028  33.224  52.967  0.00  0.00     0.039 A 
ATOM      8  C   UNL d   1      52.053  33.985  52.632  0.00  0.00     0.005 A 
ATOM      9  C   UNL d   1      51.395  34.471  52.645  0.00  0.00     0.019 A 
BRANCH   7  10
ATOM     10  C   UNL d   1      52.711  32.725  52.951  0.00  0.00     0.196 C 
ATOM     11  O   UNL d   1      52.742  32.075  52.470  0.00  0.00    -0.287 OA
ATOM     12  C   UNL d   1      53.371  32.903  53.443  0.00  0.00     0.045 C 
ENDBRANCH   7  10
ENDBRANCH   2   4
BRANCH   1  13
ATOM     13  C   UNL d   1      48.839  35.172  52.368  0.00  0.00     0.076 A 
ATOM     14  C   UNL d   1      48.294  35.242  51.779  0.00  0.00     0.092 A 
ATOM     15  S   UNL d   1      47.685  35.774  52.007  0.00  0.00    -0.064 SA
ATOM     16 CL   UNL d   1      48.331  34.833  51.030  0.00  0.00    -0.075 Cl
ATOM     17  C   UNL d   1      47.860  36.024  52.727  0.00  0.00     0.088 A 
ATOM     18  C   UNL d   1      48.576  35.662  52.975  0.00  0.00     0.024 A 
ATOM     19 CL   UNL d   1      47.397  36.571  53.178  0.00  0.00    -0.075 Cl
ENDBRANCH   1  13
TORSDOF 3
ENDMDL
