MODEL 1
REMARK VINA RESULT:      16.1      0.000      0.000
REMARK  6 active torsions:
REMARK  status: ('A' for Active; 'I' for Inactive)
REMARK    1  A    between atoms: N_3  and  C_1 
REMARK       I    between atoms: C_7  and  N_3 
REMARK    2  A    between atoms: S_14  and  C_4 
REMARK    3  A    between atoms: C_8  and  C_7 
REMARK    4  A    between atoms: C_11  and  N_13 
REMARK    5  A    between atoms: C_12  and  C_21 
REMARK       I    between atoms: N_13  and  C_12 
REMARK    6  A    between atoms: C_21  and  S_14 
ROOT
ATOM      1  S   UNL d   1      46.513 -17.754  44.305  0.00  0.00    -0.054 SA
ENDROOT
BRANCH   1   2
ATOM      2  C   UNL d   1      46.040 -17.113  44.489  0.00  0.00     0.165 A 
ATOM      3  S   UNL d   1      46.225 -16.398  44.202  0.00  0.00    -0.019 SA
ATOM      4  C   UNL d   1      45.698 -15.808  44.435  0.00  0.00     0.219 A 
ATOM      5  N   UNL d   1      45.177 -16.246  44.891  0.00  0.00    -0.120 NA
ATOM      6  N   UNL d   1      45.394 -17.024  44.914  0.00  0.00    -0.133 NA
BRANCH   4   7
ATOM      7  N   UNL d   1      45.649 -15.136  44.320  0.00  0.00    -0.181 NA
ATOM      8  C   UNL d   1      45.186 -14.419  44.281  0.00  0.00     0.281 C 
ATOM      9  O   UNL d   1      44.381 -14.503  44.462  0.00  0.00    -0.265 OA
BRANCH   8  10
ATOM     10  C   UNL d   1      45.497 -13.700  44.084  0.00  0.00     0.058 A 
ATOM     11  C   UNL d   1      45.497 -13.059  43.554  0.00  0.00     0.005 A 
ATOM     12  C   UNL d   1      46.002 -13.148  44.272  0.00  0.00     0.005 A 
ENDBRANCH   8  10
ENDBRANCH   4   7
ENDBRANCH   1   2
BRANCH   1  13
ATOM     13  C   UNL d   1      46.273 -18.384  43.818  0.00  0.00     0.100 C 
BRANCH  13  14
ATOM     14  C   UNL d   1      46.406 -19.183  44.004  0.00  0.00     0.286 C 
ATOM     15  N   UNL d   1      46.543 -19.734  43.419  0.00  0.00    -0.208 NA
ATOM     16  O   UNL d   1      46.409 -19.467  44.789  0.00  0.00    -0.265 OA
BRANCH  15  17
ATOM     17  C   UNL d   1      46.544 -19.461  42.614  0.00  0.00     0.085 A 
ATOM     18  C   UNL d   1      46.557 -20.050  42.064  0.00  0.00     0.019 A 
ATOM     19  C   UNL d   1      46.558 -19.840  41.311  0.00  0.00     0.002 A 
ATOM     20  C   UNL d   1      46.570 -20.330  40.694  0.00  0.00     0.000 C 
ATOM     21  C   UNL d   1      46.547 -19.031  41.068  0.00  0.00     0.000 A 
ATOM     22  C   UNL d   1      46.533 -18.423  41.678  0.00  0.00     0.002 A 
ATOM     23  C   UNL d   1      46.532 -18.648  42.472  0.00  0.00     0.019 A 
ATOM     24  C   UNL d   1      46.523 -17.668  41.432  0.00  0.00     0.000 C 
ENDBRANCH  15  17
ENDBRANCH  13  14
ENDBRANCH   1  13
TORSDOF 6
ENDMDL
