MODEL 1
REMARK VINA RESULT:      57.2      0.000      0.000
REMARK  3 active torsions:
REMARK  status: ('A' for Active; 'I' for Inactive)
REMARK    1  A    between atoms: C_2  and  C_1 
REMARK    2  A    between atoms: C_14  and  O_17 
REMARK    3  A    between atoms: O_17  and  C_16 
ROOT
ATOM      1  C   UNL d   1      13.806  13.432  -3.094  0.00  0.00     0.087 A 
ATOM      2  C   UNL d   1      13.962  14.239  -3.207  0.00  0.00     0.201 A 
ATOM      3  C   UNL d   1      13.730  14.627  -3.897  0.00  0.00     0.062 A 
ATOM      4  C   UNL d   1      13.410  13.014  -3.689  0.00  0.00     0.128 A 
ATOM      5  C   UNL d   1      13.332  14.207  -4.496  0.00  0.00     0.105 A 
ATOM      6  O   UNL d   1      13.172  13.404  -4.394  0.00  0.00    -0.305 OA
ATOM      7  C   UNL d   1      13.101  14.596  -5.185  0.00  0.00     0.050 A 
ATOM      8  C   UNL d   1      13.883  15.427  -4.012  0.00  0.00     0.007 A 
ATOM      9  O   UNL d   1      14.357  14.669  -2.620  0.00  0.00    -0.286 OA
ATOM     10  C   UNL d   1      13.261  15.391  -5.282  0.00  0.00     0.105 A 
ATOM     11  C   UNL d   1      13.659  15.812  -4.683  0.00  0.00     0.025 A 
ENDROOT
BRANCH   1  12
ATOM     12  C   UNL d   1      14.037  13.051  -2.410  0.00  0.00     0.116 A 
ATOM     13  N   UNL d   1      14.811  12.845  -2.206  0.00  0.00    -0.238 NA
ATOM     14  C   UNL d   1      14.782  12.471  -1.471  0.00  0.00     0.088 A 
ATOM     15  C   UNL d   1      15.373  12.153  -1.001  0.00  0.00     0.020 A 
ATOM     16  C   UNL d   1      14.002  12.444  -1.220  0.00  0.00     0.049 A 
ATOM     17  C   UNL d   1      15.193  11.802  -0.273  0.00  0.00     0.002 A 
ATOM     18  C   UNL d   1      14.398  11.779  -0.027  0.00  0.00     0.001 A 
ATOM     19  C   UNL d   1      13.807  12.097  -0.497  0.00  0.00     0.008 A 
ATOM     20  S   UNL d   1      13.521  12.804  -1.800  0.00  0.00    -0.066 SA
ENDBRANCH   1  12
BRANCH  10  21
ATOM     21  O   UNL d   1      13.023  15.772  -5.982  0.00  0.00    -0.273 OA
BRANCH  21  22
ATOM     22  C   UNL d   1      13.397  16.461  -6.232  0.00  0.00     0.300 C 
ATOM     23  O   UNL d   1      14.208  16.466  -6.387  0.00  0.00    -0.259 OA
ATOM     24  C   UNL d   1      12.959  17.165  -6.332  0.00  0.00     0.074 C 
ENDBRANCH  21  22
ENDBRANCH  10  21
TORSDOF 3
ENDMDL
