MODEL 1
REMARK VINA RESULT:      -3.2      0.000      0.000
REMARK  0 active torsions:
REMARK  status: ('A' for Active; 'I' for Inactive)
REMARK       I    between atoms: C_2  and  N_1 
REMARK       I    between atoms: N_7  and  C_2 
ROOT
ATOM      1  N   UNL d   1      33.226  20.793 -21.692  0.00  0.00    -0.241 N 
ATOM      2  C   UNL d   1      33.228  20.599 -22.516  0.00  0.00     0.341 C 
ATOM      3  C   UNL d   1      33.222  21.528 -21.350  0.00  0.00     0.087 A 
ATOM      4  C   UNL d   1      33.228  20.234 -21.097  0.00  0.00     0.186 A 
ATOM      5  N   UNL d   1      33.225  20.633 -20.378  0.00  0.00    -0.224 NA
ATOM      6  C   UNL d   1      33.221  21.438 -20.539  0.00  0.00     0.099 A 
ATOM      7  N   UNL d   1      33.232  19.814 -22.768  0.00  0.00    -0.257 N 
ATOM      8  C   UNL d   1      33.218  22.280 -21.686  0.00  0.00     0.019 A 
ATOM      9  C   UNL d   1      33.217  22.099 -20.037  0.00  0.00     0.021 A 
ATOM     10  C   UNL d   1      33.214  22.936 -21.194  0.00  0.00     0.002 A 
ATOM     11  C   UNL d   1      33.214  22.858 -20.380  0.00  0.00     0.002 A 
ATOM     12  O   UNL d   1      33.225  21.226 -23.063  0.00  0.00    -0.245 OA
ATOM     13  C   UNL d   1      33.234  19.639 -23.560  0.00  0.00     0.085 A 
ATOM     14  C   UNL d   1      33.235  19.199 -22.205  0.00  0.00     0.085 A 
ATOM     15  C   UNL d   1      33.211  23.692 -21.546  0.00  0.00     0.000 C 
ATOM     16  C   UNL d   1      33.210  23.540 -19.888  0.00  0.00     0.000 C 
ATOM     17  C   UNL d   1      33.238  18.854 -23.813  0.00  0.00     0.019 A 
ATOM     18  C   UNL d   1      33.239  18.406 -22.460  0.00  0.00     0.019 A 
ATOM     19  C   UNL d   1      33.241  18.247 -23.273  0.00  0.00     0.003 A 
ENDROOT
TORSDOF 0
ENDMDL
MODEL 2
REMARK VINA RESULT:      -3.2      0.637      3.767
REMARK  0 active torsions:
REMARK  status: ('A' for Active; 'I' for Inactive)
REMARK       I    between atoms: C_2  and  N_1 
REMARK       I    between atoms: N_7  and  C_2 
ROOT
ATOM      1  N   UNL d   1      33.239  20.760 -21.923  0.00  0.00    -0.241 N 
ATOM      2  C   UNL d   1      33.239  21.597 -22.054  0.00  0.00     0.341 C 
ATOM      3  C   UNL d   1      33.238  20.166 -22.474  0.00  0.00     0.087 A 
ATOM      4  C   UNL d   1      33.239  20.421 -21.181  0.00  0.00     0.186 A 
ATOM      5  N   UNL d   1      33.239  19.604 -21.278  0.00  0.00    -0.224 NA
ATOM      6  C   UNL d   1      33.238  19.449 -22.084  0.00  0.00     0.099 A 
ATOM      7  N   UNL d   1      33.239  22.127 -21.424  0.00  0.00    -0.257 N 
ATOM      8  C   UNL d   1      33.237  20.193 -23.297  0.00  0.00     0.019 A 
ATOM      9  C   UNL d   1      33.238  18.735 -22.506  0.00  0.00     0.021 A 
ATOM     10  C   UNL d   1      33.236  19.490 -23.718  0.00  0.00     0.002 A 
ATOM     11  C   UNL d   1      33.237  18.765 -23.338  0.00  0.00     0.002 A 
ATOM     12  O   UNL d   1      33.238  21.866 -22.842  0.00  0.00    -0.245 OA
ATOM     13  C   UNL d   1      33.239  22.926 -21.561  0.00  0.00     0.085 A 
ATOM     14  C   UNL d   1      33.240  21.838 -20.641  0.00  0.00     0.085 A 
ATOM     15  C   UNL d   1      33.236  19.530 -24.552  0.00  0.00     0.000 C 
ATOM     16  C   UNL d   1      33.236  18.052 -23.784  0.00  0.00     0.000 C 
ATOM     17  C   UNL d   1      33.240  23.457 -20.930  0.00  0.00     0.019 A 
ATOM     18  C   UNL d   1      33.241  22.374 -20.003  0.00  0.00     0.019 A 
ATOM     19  C   UNL d   1      33.241  23.187 -20.164  0.00  0.00     0.003 A 
ENDROOT
TORSDOF 0
ENDMDL
MODEL 3
REMARK VINA RESULT:      -3.0      0.971      4.023
REMARK  0 active torsions:
REMARK  status: ('A' for Active; 'I' for Inactive)
REMARK       I    between atoms: C_2  and  N_1 
REMARK       I    between atoms: N_7  and  C_2 
ROOT
ATOM      1  N   UNL d   1      33.235  21.288 -21.597  0.00  0.00    -0.241 N 
ATOM      2  C   UNL d   1      33.235  21.348 -20.752  0.00  0.00     0.341 C 
ATOM      3  C   UNL d   1      33.237  20.618 -22.052  0.00  0.00     0.087 A 
ATOM      4  C   UNL d   1      33.234  21.935 -22.094  0.00  0.00     0.186 A 
ATOM      5  N   UNL d   1      33.235  21.657 -22.869  0.00  0.00    -0.224 NA
ATOM      6  C   UNL d   1      33.236  20.836 -22.839  0.00  0.00     0.099 A 
ATOM      7  N   UNL d   1      33.233  22.082 -20.377  0.00  0.00    -0.257 N 
ATOM      8  C   UNL d   1      33.238  19.821 -21.841  0.00  0.00     0.019 A 
ATOM      9  C   UNL d   1      33.238  20.264 -23.440  0.00  0.00     0.021 A 
ATOM     10  C   UNL d   1      33.239  19.253 -22.432  0.00  0.00     0.002 A 
ATOM     11  C   UNL d   1      33.239  19.461 -23.223  0.00  0.00     0.002 A 
ATOM     12  O   UNL d   1      33.236  20.641 -20.313  0.00  0.00    -0.245 OA
ATOM     13  C   UNL d   1      33.233  22.128 -19.568  0.00  0.00     0.085 A 
ATOM     14  C   UNL d   1      33.232  22.780 -20.835  0.00  0.00     0.085 A 
ATOM     15  C   UNL d   1      33.241  18.450 -22.205  0.00  0.00     0.000 C 
ATOM     16  C   UNL d   1      33.241  18.866 -23.817  0.00  0.00     0.000 C 
ATOM     17  C   UNL d   1      33.231  22.862 -19.192  0.00  0.00     0.019 A 
ATOM     18  C   UNL d   1      33.230  23.521 -20.456  0.00  0.00     0.019 A 
ATOM     19  C   UNL d   1      33.230  23.548 -19.628  0.00  0.00     0.003 A 
ENDROOT
TORSDOF 0
ENDMDL
MODEL 4
REMARK VINA RESULT:      -2.8      0.943      1.562
REMARK  0 active torsions:
REMARK  status: ('A' for Active; 'I' for Inactive)
REMARK       I    between atoms: C_2  and  N_1 
REMARK       I    between atoms: N_7  and  C_2 
ROOT
ATOM      1  N   UNL d   1      33.239  19.576 -22.652  0.00  0.00    -0.241 N 
ATOM      2  C   UNL d   1      33.240  19.339 -23.465  0.00  0.00     0.341 C 
ATOM      3  C   UNL d   1      33.239  20.327 -22.349  0.00  0.00     0.087 A 
ATOM      4  C   UNL d   1      33.238  19.049 -22.029  0.00  0.00     0.186 A 
ATOM      5  N   UNL d   1      33.238  19.484 -21.331  0.00  0.00    -0.224 NA
ATOM      6  C   UNL d   1      33.239  20.280 -21.534  0.00  0.00     0.099 A 
ATOM      7  N   UNL d   1      33.239  18.542 -23.676  0.00  0.00    -0.257 N 
ATOM      8  C   UNL d   1      33.240  21.061 -22.723  0.00  0.00     0.019 A 
ATOM      9  C   UNL d   1      33.239  20.966 -21.067  0.00  0.00     0.021 A 
ATOM     10  C   UNL d   1      33.240  21.742 -22.266  0.00  0.00     0.002 A 
ATOM     11  C   UNL d   1      33.240  21.706 -21.449  0.00  0.00     0.002 A 
ATOM     12  O   UNL d   1      33.240  19.937 -24.044  0.00  0.00    -0.245 OA
ATOM     13  C   UNL d   1      33.240  18.327 -24.458  0.00  0.00     0.085 A 
ATOM     14  C   UNL d   1      33.238  17.957 -23.081  0.00  0.00     0.085 A 
ATOM     15  C   UNL d   1      33.241  22.479 -22.657  0.00  0.00     0.000 C 
ATOM     16  C   UNL d   1      33.240  22.413 -20.993  0.00  0.00     0.000 C 
ATOM     17  C   UNL d   1      33.239  17.529 -24.669  0.00  0.00     0.019 A 
ATOM     18  C   UNL d   1      33.238  17.152 -23.295  0.00  0.00     0.019 A 
ATOM     19  C   UNL d   1      33.239  16.951 -24.098  0.00  0.00     0.003 A 
ENDROOT
TORSDOF 0
ENDMDL
MODEL 5
REMARK VINA RESULT:      -2.4      1.498      4.872
REMARK  0 active torsions:
REMARK  status: ('A' for Active; 'I' for Inactive)
REMARK       I    between atoms: C_2  and  N_1 
REMARK       I    between atoms: N_7  and  C_2 
ROOT
ATOM      1  N   UNL d   1      33.180  18.823 -23.360  0.00  0.00    -0.241 N 
ATOM      2  C   UNL d   1      33.210  19.041 -22.542  0.00  0.00     0.341 C 
ATOM      3  C   UNL d   1      33.176  18.079 -23.681  0.00  0.00     0.087 A 
ATOM      4  C   UNL d   1      33.149  19.365 -23.969  0.00  0.00     0.186 A 
ATOM      5  N   UNL d   1      33.126  18.946 -24.677  0.00  0.00    -0.224 NA
ATOM      6  C   UNL d   1      33.143  18.146 -24.494  0.00  0.00     0.099 A 
ATOM      7  N   UNL d   1      33.210  19.832 -22.312  0.00  0.00    -0.257 N 
ATOM      8  C   UNL d   1      33.200  17.337 -23.325  0.00  0.00     0.019 A 
ATOM      9  C   UNL d   1      33.132  17.471 -24.977  0.00  0.00     0.021 A 
ATOM     10  C   UNL d   1      33.189  16.667 -23.797  0.00  0.00     0.002 A 
ATOM     11  C   UNL d   1      33.155  16.722 -24.613  0.00  0.00     0.002 A 
ATOM     12  O   UNL d   1      33.240  18.429 -21.979  0.00  0.00    -0.245 OA
ATOM     13  C   UNL d   1      33.239  20.029 -21.526  0.00  0.00     0.085 A 
ATOM     14  C   UNL d   1      33.180  20.431 -22.892  0.00  0.00     0.085 A 
ATOM     15  C   UNL d   1      33.212  15.921 -23.425  0.00  0.00     0.000 C 
ATOM     16  C   UNL d   1      33.145  16.027 -25.085  0.00  0.00     0.000 C 
ATOM     17  C   UNL d   1      33.239  20.821 -21.296  0.00  0.00     0.019 A 
ATOM     18  C   UNL d   1      33.180  21.231 -22.659  0.00  0.00     0.019 A 
ATOM     19  C   UNL d   1      33.210  21.413 -21.852  0.00  0.00     0.003 A 
ENDROOT
TORSDOF 0
ENDMDL
MODEL 6
REMARK VINA RESULT:      -1.5      1.227      2.081
REMARK  0 active torsions:
REMARK  status: ('A' for Active; 'I' for Inactive)
REMARK       I    between atoms: C_2  and  N_1 
REMARK       I    between atoms: N_7  and  C_2 
ROOT
ATOM      1  N   UNL d   1      33.041  21.819 -20.928  0.00  0.00    -0.241 N 
ATOM      2  C   UNL d   1      33.102  20.991 -21.095  0.00  0.00     0.341 C 
ATOM      3  C   UNL d   1      32.997  22.182 -20.205  0.00  0.00     0.087 A 
ATOM      4  C   UNL d   1      33.017  22.395 -21.506  0.00  0.00     0.186 A 
ATOM      5  N   UNL d   1      32.957  23.125 -21.131  0.00  0.00    -0.224 NA
ATOM      6  C   UNL d   1      32.945  22.989 -20.321  0.00  0.00     0.099 A 
ATOM      7  N   UNL d   1      33.142  20.715 -21.871  0.00  0.00    -0.257 N 
ATOM      8  C   UNL d   1      32.998  21.871 -19.443  0.00  0.00     0.019 A 
ATOM      9  C   UNL d   1      32.892  23.510 -19.677  0.00  0.00     0.021 A 
ATOM     10  C   UNL d   1      32.946  22.381 -18.803  0.00  0.00     0.002 A 
ATOM     11  C   UNL d   1      32.893  23.191 -18.908  0.00  0.00     0.002 A 
ATOM     12  O   UNL d   1      33.121  20.465 -20.450  0.00  0.00    -0.245 OA
ATOM     13  C   UNL d   1      33.200  19.920 -22.019  0.00  0.00     0.085 A 
ATOM     14  C   UNL d   1      33.121  21.258 -22.504  0.00  0.00     0.085 A 
ATOM     15  C   UNL d   1      32.948  22.053 -18.036  0.00  0.00     0.000 C 
ATOM     16  C   UNL d   1      32.840  23.702 -18.243  0.00  0.00     0.000 C 
ATOM     17  C   UNL d   1      33.240  19.644 -22.796  0.00  0.00     0.019 A 
ATOM     18  C   UNL d   1      33.161  20.979 -23.288  0.00  0.00     0.019 A 
ATOM     19  C   UNL d   1      33.221  20.164 -23.420  0.00  0.00     0.003 A 
ENDROOT
TORSDOF 0
ENDMDL
MODEL 7
REMARK VINA RESULT:      -1.4      5.559      6.518
REMARK  0 active torsions:
REMARK  status: ('A' for Active; 'I' for Inactive)
REMARK       I    between atoms: C_2  and  N_1 
REMARK       I    between atoms: N_7  and  C_2 
ROOT
ATOM      1  N   UNL d   1      30.142  16.544 -23.962  0.00  0.00    -0.241 N 
ATOM      2  C   UNL d   1      29.803  16.041 -23.372  0.00  0.00     0.341 C 
ATOM      3  C   UNL d   1      30.924  16.633 -24.157  0.00  0.00     0.087 A 
ATOM      4  C   UNL d   1      29.701  17.035 -24.442  0.00  0.00     0.186 A 
ATOM      5  N   UNL d   1      30.221  17.433 -24.940  0.00  0.00    -0.224 NA
ATOM      6  C   UNL d   1      30.981  17.181 -24.760  0.00  0.00     0.099 A 
ATOM      7  N   UNL d   1      28.989  16.019 -23.246  0.00  0.00    -0.257 N 
ATOM      8  C   UNL d   1      31.601  16.276 -23.852  0.00  0.00     0.019 A 
ATOM      9  C   UNL d   1      31.719  17.388 -25.078  0.00  0.00     0.021 A 
ATOM     10  C   UNL d   1      32.332  16.478 -24.163  0.00  0.00     0.002 A 
ATOM     11  C   UNL d   1      32.401  17.025 -24.768  0.00  0.00     0.002 A 
ATOM     12  O   UNL d   1      30.321  15.568 -22.922  0.00  0.00    -0.245 OA
ATOM     13  C   UNL d   1      28.676  15.533 -22.678  0.00  0.00     0.085 A 
ATOM     14  C   UNL d   1      28.487  16.500 -23.708  0.00  0.00     0.085 A 
ATOM     15  C   UNL d   1      33.010  16.109 -23.846  0.00  0.00     0.000 C 
ATOM     16  C   UNL d   1      33.158  17.222 -25.076  0.00  0.00     0.000 C 
ATOM     17  C   UNL d   1      27.861  15.511 -22.553  0.00  0.00     0.019 A 
ATOM     18  C   UNL d   1      27.664  16.478 -23.581  0.00  0.00     0.019 A 
ATOM     19  C   UNL d   1      27.363  15.976 -22.996  0.00  0.00     0.003 A 
ENDROOT
TORSDOF 0
ENDMDL
