MODEL 1
REMARK VINA RESULT:     -10.0      0.000      0.000
REMARK  2 active torsions:
REMARK  status: ('A' for Active; 'I' for Inactive)
REMARK    1  A    between atoms: C_10  and  C_1 
REMARK    2  A    between atoms: N_6  and  C_10 
ROOT
ATOM      1  C   UNL d   1      52.484  33.222  53.514  0.00  0.00     0.025 A 
ATOM      2  C   UNL d   1      53.188  33.312  53.937  0.00  0.00     0.025 A 
ATOM      3  C   UNL d   1      53.323  33.976  54.387  0.00  0.00     0.013 A 
ATOM      4  C   UNL d   1      53.753  32.717  53.896  0.00  0.00     0.103 A 
ATOM      5  O   UNL d   1      53.630  32.037  53.442  0.00  0.00    -0.273 OA
ATOM      6  C   UNL d   1      54.020  34.058  54.802  0.00  0.00     0.058 A 
ATOM      7  C   UNL d   1      52.923  31.956  53.023  0.00  0.00     0.300 A 
ATOM      8  C   UNL d   1      52.350  32.543  53.056  0.00  0.00     0.070 A 
ATOM      9  C   UNL d   1      54.593  33.465  54.766  0.00  0.00     0.013 A 
ATOM     10  C   UNL d   1      54.455  32.794  54.310  0.00  0.00     0.026 A 
ATOM     11  O   UNL d   1      52.791  31.284  52.570  0.00  0.00    -0.259 OA
ATOM     12 CL   UNL d   1      54.157  34.734  55.260  0.00  0.00    -0.082 Cl
ATOM     13  C   UNL d   1      52.750  34.568  54.423  0.00  0.00     0.001 C 
ATOM     14  C   UNL d   1      55.302  33.549  55.188  0.00  0.00     0.001 C 
ENDROOT
BRANCH   1  15
ATOM     15  C   UNL d   1      51.912  33.816  53.550  0.00  0.00     0.080 C 
BRANCH  15  16
ATOM     16  N   UNL d   1      51.448  33.984  52.883  0.00  0.00    -0.304 N 
ATOM     17  C   UNL d   1      50.625  33.978  52.942  0.00  0.00     0.064 A 
ATOM     18  C   UNL d   1      50.256  33.805  53.660  0.00  0.00     0.019 C 
ATOM     19  C   UNL d   1      50.173  34.145  52.278  0.00  0.00     0.018 A 
ATOM     20  C   UNL d   1      50.532  34.318  51.560  0.00  0.00     0.003 A 
ATOM     21  C   UNL d   1      51.355  34.324  51.502  0.00  0.00     0.019 A 
ATOM     22  C   UNL d   1      51.819  34.157  52.161  0.00  0.00     0.080 A 
ENDBRANCH  15  16
ENDBRANCH   1  15
TORSDOF 2
ENDMDL
MODEL 2
REMARK VINA RESULT:      -9.6      1.474      2.182
REMARK  2 active torsions:
REMARK  status: ('A' for Active; 'I' for Inactive)
REMARK    1  A    between atoms: C_10  and  C_1 
REMARK    2  A    between atoms: N_6  and  C_10 
ROOT
ATOM      1  C   UNL d   1      52.614  34.284  53.607  0.00  0.00     0.025 A 
ATOM      2  C   UNL d   1      53.124  33.844  54.085  0.00  0.00     0.025 A 
ATOM      3  C   UNL d   1      53.250  33.052  53.944  0.00  0.00     0.013 A 
ATOM      4  C   UNL d   1      53.504  34.218  54.710  0.00  0.00     0.103 A 
ATOM      5  O   UNL d   1      53.385  35.022  54.866  0.00  0.00    -0.273 OA
ATOM      6  C   UNL d   1      53.754  32.624  54.419  0.00  0.00     0.058 A 
ATOM      7  C   UNL d   1      52.874  35.454  54.382  0.00  0.00     0.300 A 
ATOM      8  C   UNL d   1      52.488  35.091  53.755  0.00  0.00     0.070 A 
ATOM      9  C   UNL d   1      54.139  32.993  55.048  0.00  0.00     0.013 A 
ATOM     10  C   UNL d   1      54.011  33.793  55.191  0.00  0.00     0.026 A 
ATOM     11  O   UNL d   1      52.749  36.252  54.529  0.00  0.00    -0.259 OA
ATOM     12 CL   UNL d   1      53.882  31.819  54.274  0.00  0.00    -0.082 Cl
ATOM     13  C   UNL d   1      52.864  32.684  53.314  0.00  0.00     0.001 C 
ATOM     14  C   UNL d   1      54.653  32.556  55.533  0.00  0.00     0.001 C 
ENDROOT
BRANCH   1  15
ATOM     15  C   UNL d   1      52.229  33.914  52.978  0.00  0.00     0.080 C 
BRANCH  15  16
ATOM     16  N   UNL d   1      51.433  34.088  52.821  0.00  0.00    -0.304 N 
ATOM     17  C   UNL d   1      51.200  34.297  52.057  0.00  0.00     0.064 A 
ATOM     18  C   UNL d   1      51.752  34.334  51.445  0.00  0.00     0.019 C 
ATOM     19  C   UNL d   1      50.411  34.467  51.910  0.00  0.00     0.018 A 
ATOM     20  C   UNL d   1      49.856  34.432  52.513  0.00  0.00     0.003 A 
ATOM     21  C   UNL d   1      50.089  34.223  53.277  0.00  0.00     0.019 A 
ATOM     22  C   UNL d   1      50.877  34.050  53.437  0.00  0.00     0.080 A 
ENDBRANCH  15  16
ENDBRANCH   1  15
TORSDOF 2
ENDMDL
MODEL 3
REMARK VINA RESULT:      -9.3      1.755      2.928
REMARK  2 active torsions:
REMARK  status: ('A' for Active; 'I' for Inactive)
REMARK    1  A    between atoms: C_10  and  C_1 
REMARK    2  A    between atoms: N_6  and  C_10 
ROOT
ATOM      1  C   UNL d   1      53.354  32.740  53.374  0.00  0.00     0.025 A 
ATOM      2  C   UNL d   1      53.253  31.920  53.356  0.00  0.00     0.025 A 
ATOM      3  C   UNL d   1      52.509  31.592  53.335  0.00  0.00     0.013 A 
ATOM      4  C   UNL d   1      53.918  31.439  53.361  0.00  0.00     0.103 A 
ATOM      5  O   UNL d   1      54.680  31.758  53.383  0.00  0.00    -0.273 OA
ATOM      6  C   UNL d   1      52.415  30.783  53.317  0.00  0.00     0.058 A 
ATOM      7  C   UNL d   1      54.772  32.579  53.400  0.00  0.00     0.300 A 
ATOM      8  C   UNL d   1      54.114  33.071  53.396  0.00  0.00     0.070 A 
ATOM      9  C   UNL d   1      53.079  30.292  53.322  0.00  0.00     0.013 A 
ATOM     10  C   UNL d   1      53.831  30.625  53.343  0.00  0.00     0.026 A 
ATOM     11  O   UNL d   1      55.525  32.906  53.422  0.00  0.00    -0.259 OA
ATOM     12 CL   UNL d   1      51.658  30.449  53.295  0.00  0.00    -0.082 Cl
ATOM     13  C   UNL d   1      51.846  32.083  53.331  0.00  0.00     0.001 C 
ATOM     14  C   UNL d   1      52.984  29.468  53.304  0.00  0.00     0.001 C 
ENDROOT
BRANCH   1  15
ATOM     15  C   UNL d   1      52.690  33.230  53.370  0.00  0.00     0.080 C 
BRANCH  15  16
ATOM     16  N   UNL d   1      52.722  33.974  53.738  0.00  0.00    -0.304 N 
ATOM     17  C   UNL d   1      52.481  34.647  53.327  0.00  0.00     0.064 A 
ATOM     18  C   UNL d   1      52.206  34.590  52.552  0.00  0.00     0.019 C 
ATOM     19  C   UNL d   1      52.516  35.378  53.698  0.00  0.00     0.018 A 
ATOM     20  C   UNL d   1      52.788  35.443  54.470  0.00  0.00     0.003 A 
ATOM     21  C   UNL d   1      53.029  34.769  54.880  0.00  0.00     0.019 A 
ATOM     22  C   UNL d   1      52.999  34.031  54.519  0.00  0.00     0.080 A 
ENDBRANCH  15  16
ENDBRANCH   1  15
TORSDOF 2
ENDMDL
MODEL 4
REMARK VINA RESULT:      -9.2      1.853      3.589
REMARK  2 active torsions:
REMARK  status: ('A' for Active; 'I' for Inactive)
REMARK    1  A    between atoms: C_10  and  C_1 
REMARK    2  A    between atoms: N_6  and  C_10 
ROOT
ATOM      1  C   UNL d   1      53.227  32.168  53.296  0.00  0.00     0.025 A 
ATOM      2  C   UNL d   1      52.824  32.889  53.313  0.00  0.00     0.025 A 
ATOM      3  C   UNL d   1      52.022  32.923  53.176  0.00  0.00     0.013 A 
ATOM      4  C   UNL d   1      53.246  33.576  53.471  0.00  0.00     0.103 A 
ATOM      5  O   UNL d   1      54.061  33.556  53.612  0.00  0.00    -0.273 OA
ATOM      6  C   UNL d   1      51.631  33.637  53.194  0.00  0.00     0.058 A 
ATOM      7  C   UNL d   1      54.455  32.831  53.593  0.00  0.00     0.300 A 
ATOM      8  C   UNL d   1      54.044  32.138  53.436  0.00  0.00     0.070 A 
ATOM      9  C   UNL d   1      52.048  34.331  53.352  0.00  0.00     0.013 A 
ATOM     10  C   UNL d   1      52.859  34.297  53.490  0.00  0.00     0.026 A 
ATOM     11  O   UNL d   1      55.264  32.802  53.732  0.00  0.00    -0.259 OA
ATOM     12 CL   UNL d   1      50.815  33.671  53.054  0.00  0.00    -0.082 Cl
ATOM     13  C   UNL d   1      51.606  32.229  53.018  0.00  0.00     0.001 C 
ATOM     14  C   UNL d   1      51.650  35.059  53.370  0.00  0.00     0.001 C 
ENDROOT
BRANCH   1  15
ATOM     15  C   UNL d   1      52.809  31.474  53.138  0.00  0.00     0.080 C 
BRANCH  15  16
ATOM     16  N   UNL d   1      53.006  30.773  53.536  0.00  0.00    -0.304 N 
ATOM     17  C   UNL d   1      53.092  30.070  53.112  0.00  0.00     0.064 A 
ATOM     18  C   UNL d   1      52.984  30.056  52.295  0.00  0.00     0.019 C 
ATOM     19  C   UNL d   1      53.287  29.381  53.513  0.00  0.00     0.018 A 
ATOM     20  C   UNL d   1      53.397  29.387  54.326  0.00  0.00     0.003 A 
ATOM     21  C   UNL d   1      53.311  30.090  54.749  0.00  0.00     0.019 A 
ATOM     22  C   UNL d   1      53.115  30.787  54.359  0.00  0.00     0.080 A 
ENDBRANCH  15  16
ENDBRANCH   1  15
TORSDOF 2
ENDMDL
MODEL 5
REMARK VINA RESULT:      -8.8      2.040      3.930
REMARK  2 active torsions:
REMARK  status: ('A' for Active; 'I' for Inactive)
REMARK    1  A    between atoms: C_10  and  C_1 
REMARK    2  A    between atoms: N_6  and  C_10 
ROOT
ATOM      1  C   UNL d   1      53.525  32.276  53.455  0.00  0.00     0.025 A 
ATOM      2  C   UNL d   1      53.155  31.541  53.374  0.00  0.00     0.025 A 
ATOM      3  C   UNL d   1      53.552  30.853  53.549  0.00  0.00     0.013 A 
ATOM      4  C   UNL d   1      52.378  31.516  53.111  0.00  0.00     0.103 A 
ATOM      5  O   UNL d   1      51.962  32.207  52.929  0.00  0.00    -0.273 OA
ATOM      6  C   UNL d   1      53.182  30.132  53.467  0.00  0.00     0.058 A 
ATOM      7  C   UNL d   1      52.340  32.937  53.013  0.00  0.00     0.300 A 
ATOM      8  C   UNL d   1      53.117  32.976  53.274  0.00  0.00     0.070 A 
ATOM      9  C   UNL d   1      52.400  30.098  53.204  0.00  0.00     0.013 A 
ATOM     10  C   UNL d   1      52.000  30.794  53.026  0.00  0.00     0.026 A 
ATOM     11  O   UNL d   1      51.936  33.629  52.834  0.00  0.00    -0.259 OA
ATOM     12 CL   UNL d   1      53.586  29.431  53.646  0.00  0.00    -0.082 Cl
ATOM     13  C   UNL d   1      54.333  30.887  53.813  0.00  0.00     0.001 C 
ATOM     14  C   UNL d   1      52.023  29.363  53.120  0.00  0.00     0.001 C 
ENDROOT
BRANCH   1  15
ATOM     15  C   UNL d   1      54.306  32.309  53.718  0.00  0.00     0.080 C 
BRANCH  15  16
ATOM     16  N   UNL d   1      54.526  32.867  54.292  0.00  0.00    -0.304 N 
ATOM     17  C   UNL d   1      55.153  33.383  54.145  0.00  0.00     0.064 A 
ATOM     18  C   UNL d   1      55.565  33.351  53.432  0.00  0.00     0.019 C 
ATOM     19  C   UNL d   1      55.364  33.932  54.718  0.00  0.00     0.018 A 
ATOM     20  C   UNL d   1      54.958  33.970  55.430  0.00  0.00     0.003 A 
ATOM     21  C   UNL d   1      54.331  33.454  55.576  0.00  0.00     0.019 A 
ATOM     22  C   UNL d   1      54.110  32.899  55.010  0.00  0.00     0.080 A 
ENDBRANCH  15  16
ENDBRANCH   1  15
TORSDOF 2
ENDMDL
MODEL 6
REMARK VINA RESULT:      -8.6      1.319      3.536
REMARK  2 active torsions:
REMARK  status: ('A' for Active; 'I' for Inactive)
REMARK    1  A    between atoms: C_10  and  C_1 
REMARK    2  A    between atoms: N_6  and  C_10 
ROOT
ATOM      1  C   UNL d   1      53.004  33.025  53.317  0.00  0.00     0.025 A 
ATOM      2  C   UNL d   1      52.242  33.285  53.132  0.00  0.00     0.025 A 
ATOM      3  C   UNL d   1      52.069  34.080  53.099  0.00  0.00     0.013 A 
ATOM      4  C   UNL d   1      51.658  32.728  52.979  0.00  0.00     0.103 A 
ATOM      5  O   UNL d   1      51.820  31.917  53.009  0.00  0.00    -0.273 OA
ATOM      6  C   UNL d   1      51.316  34.330  52.915  0.00  0.00     0.058 A 
ATOM      7  C   UNL d   1      52.584  31.666  53.195  0.00  0.00     0.300 A 
ATOM      8  C   UNL d   1      53.176  32.213  53.349  0.00  0.00     0.070 A 
ATOM      9  C   UNL d   1      50.724  33.776  52.761  0.00  0.00     0.013 A 
ATOM     10  C   UNL d   1      50.900  32.973  52.794  0.00  0.00     0.026 A 
ATOM     11  O   UNL d   1      52.754  30.863  53.227  0.00  0.00    -0.259 OA
ATOM     12 CL   UNL d   1      51.141  35.139  52.882  0.00  0.00    -0.082 Cl
ATOM     13  C   UNL d   1      52.661  34.633  53.253  0.00  0.00     0.001 C 
ATOM     14  C   UNL d   1      49.957  34.032  52.574  0.00  0.00     0.001 C 
ENDROOT
BRANCH   1  15
ATOM     15  C   UNL d   1      53.595  33.579  53.472  0.00  0.00     0.080 C 
BRANCH  15  16
ATOM     16  N   UNL d   1      54.056  33.512  54.159  0.00  0.00    -0.304 N 
ATOM     17  C   UNL d   1      54.876  33.447  54.099  0.00  0.00     0.064 A 
ATOM     18  C   UNL d   1      55.245  33.448  53.362  0.00  0.00     0.019 C 
ATOM     19  C   UNL d   1      55.325  33.381  54.783  0.00  0.00     0.018 A 
ATOM     20  C   UNL d   1      54.964  33.379  55.521  0.00  0.00     0.003 A 
ATOM     21  C   UNL d   1      54.144  33.444  55.580  0.00  0.00     0.019 A 
ATOM     22  C   UNL d   1      53.684  33.511  54.901  0.00  0.00     0.080 A 
ENDBRANCH  15  16
ENDBRANCH   1  15
TORSDOF 2
ENDMDL
MODEL 7
REMARK VINA RESULT:      -8.4      1.527      2.970
REMARK  2 active torsions:
REMARK  status: ('A' for Active; 'I' for Inactive)
REMARK    1  A    between atoms: C_10  and  C_1 
REMARK    2  A    between atoms: N_6  and  C_10 
ROOT
ATOM      1  C   UNL d   1      53.041  32.609  53.420  0.00  0.00     0.025 A 
ATOM      2  C   UNL d   1      53.152  33.297  53.862  0.00  0.00     0.025 A 
ATOM      3  C   UNL d   1      53.667  33.310  54.492  0.00  0.00     0.013 A 
ATOM      4  C   UNL d   1      52.734  33.973  53.656  0.00  0.00     0.103 A 
ATOM      5  O   UNL d   1      52.207  33.975  53.019  0.00  0.00    -0.273 OA
ATOM      6  C   UNL d   1      53.773  33.992  54.925  0.00  0.00     0.058 A 
ATOM      7  C   UNL d   1      52.101  33.282  52.582  0.00  0.00     0.300 A 
ATOM      8  C   UNL d   1      52.514  32.600  52.778  0.00  0.00     0.070 A 
ATOM      9  C   UNL d   1      53.356  34.675  54.724  0.00  0.00     0.013 A 
ATOM     10  C   UNL d   1      52.835  34.662  54.087  0.00  0.00     0.026 A 
ATOM     11  O   UNL d   1      51.581  33.275  51.947  0.00  0.00    -0.259 OA
ATOM     12 CL   UNL d   1      54.297  34.004  55.565  0.00  0.00    -0.082 Cl
ATOM     13  C   UNL d   1      54.084  32.626  54.692  0.00  0.00     0.001 C 
ATOM     14  C   UNL d   1      53.464  35.370  55.164  0.00  0.00     0.001 C 
ENDROOT
BRANCH   1  15
ATOM     15  C   UNL d   1      53.458  31.926  53.620  0.00  0.00     0.080 C 
BRANCH  15  16
ATOM     16  N   UNL d   1      53.118  31.180  53.488  0.00  0.00    -0.304 N 
ATOM     17  C   UNL d   1      53.575  30.572  53.166  0.00  0.00     0.064 A 
ATOM     18  C   UNL d   1      54.367  30.697  52.974  0.00  0.00     0.019 C 
ATOM     19  C   UNL d   1      53.232  29.837  53.038  0.00  0.00     0.018 A 
ATOM     20  C   UNL d   1      52.444  29.705  53.227  0.00  0.00     0.003 A 
ATOM     21  C   UNL d   1      51.989  30.313  53.548  0.00  0.00     0.019 A 
ATOM     22  C   UNL d   1      52.321  31.054  53.681  0.00  0.00     0.080 A 
ENDBRANCH  15  16
ENDBRANCH   1  15
TORSDOF 2
ENDMDL
MODEL 8
REMARK VINA RESULT:      -7.9      1.889      4.060
REMARK  2 active torsions:
REMARK  status: ('A' for Active; 'I' for Inactive)
REMARK    1  A    between atoms: C_10  and  C_1 
REMARK    2  A    between atoms: N_6  and  C_10 
ROOT
ATOM      1  C   UNL d   1      52.919  34.198  53.873  0.00  0.00     0.025 A 
ATOM      2  C   UNL d   1      52.160  34.157  53.550  0.00  0.00     0.025 A 
ATOM      3  C   UNL d   1      51.869  33.458  53.253  0.00  0.00     0.013 A 
ATOM      4  C   UNL d   1      51.700  34.838  53.532  0.00  0.00     0.103 A 
ATOM      5  O   UNL d   1      51.983  35.556  53.829  0.00  0.00    -0.273 OA
ATOM      6  C   UNL d   1      51.119  33.424  52.936  0.00  0.00     0.058 A 
ATOM      7  C   UNL d   1      52.743  35.587  54.151  0.00  0.00     0.300 A 
ATOM      8  C   UNL d   1      53.212  34.913  54.175  0.00  0.00     0.070 A 
ATOM      9  C   UNL d   1      50.652  34.104  52.914  0.00  0.00     0.013 A 
ATOM     10  C   UNL d   1      50.946  34.811  53.214  0.00  0.00     0.026 A 
ATOM     11  O   UNL d   1      53.032  36.295  54.449  0.00  0.00    -0.259 OA
ATOM     12 CL   UNL d   1      50.824  32.712  52.634  0.00  0.00    -0.082 Cl
ATOM     13  C   UNL d   1      52.338  32.779  53.275  0.00  0.00     0.001 C 
ATOM     14  C   UNL d   1      49.888  34.070  52.590  0.00  0.00     0.001 C 
ENDROOT
BRANCH   1  15
ATOM     15  C   UNL d   1      53.387  33.518  53.895  0.00  0.00     0.080 C 
BRANCH  15  16
ATOM     16  N   UNL d   1      54.019  33.468  54.430  0.00  0.00    -0.304 N 
ATOM     17  C   UNL d   1      54.780  33.309  54.154  0.00  0.00     0.064 A 
ATOM     18  C   UNL d   1      54.921  33.199  53.349  0.00  0.00     0.019 C 
ATOM     19  C   UNL d   1      55.400  33.261  54.690  0.00  0.00     0.018 A 
ATOM     20  C   UNL d   1      55.268  33.370  55.493  0.00  0.00     0.003 A 
ATOM     21  C   UNL d   1      54.507  33.529  55.768  0.00  0.00     0.019 A 
ATOM     22  C   UNL d   1      53.877  33.580  55.241  0.00  0.00     0.080 A 
ENDBRANCH  15  16
ENDBRANCH   1  15
TORSDOF 2
ENDMDL
