MODEL 1
REMARK VINA RESULT:      27.8      0.000      0.000
REMARK  2 active torsions:
REMARK  status: ('A' for Active; 'I' for Inactive)
REMARK       I    between atoms: C_7  and  N_1 
REMARK    1  A    between atoms: C_6  and  C_3 
REMARK    2  A    between atoms: C_8  and  C_4 
ROOT
ATOM      1  N   UNL d   1      13.708  12.435  -1.436  0.00  0.00    -0.195 N 
ATOM      2  N   UNL d   1      13.333  12.190  -2.114  0.00  0.00    -0.163 NA
ATOM      3  C   UNL d   1      14.357  12.897  -1.649  0.00  0.00     0.091 A 
ATOM      4  C   UNL d   1      13.752  12.502  -2.754  0.00  0.00     0.104 A 
ATOM      5  C   UNL d   1      14.379  12.934  -2.461  0.00  0.00     0.040 A 
ATOM      6  C   UNL d   1      13.477  12.250  -0.636  0.00  0.00     0.281 C 
ATOM      7  O   UNL d   1      13.899  12.530  -0.014  0.00  0.00    -0.265 OA
ATOM      8  C   UNL d   1      12.811  11.779  -0.519  0.00  0.00     0.068 C 
ENDROOT
BRANCH   3   9
ATOM      9  C   UNL d   1      14.887  13.255  -1.122  0.00  0.00     0.057 A 
ATOM     10  C   UNL d   1      15.587  12.894  -0.950  0.00  0.00     0.197 A 
ATOM     11  O   UNL d   1      15.779  12.183  -1.287  0.00  0.00    -0.286 OA
ATOM     12  C   UNL d   1      16.123  13.248  -0.423  0.00  0.00     0.042 A 
ATOM     13  C   UNL d   1      15.946  13.974  -0.069  0.00  0.00     0.003 A 
ATOM     14  C   UNL d   1      15.229  14.325  -0.257  0.00  0.00     0.000 A 
ATOM     15  C   UNL d   1      14.713  13.979  -0.767  0.00  0.00     0.005 A 
ENDBRANCH   3   9
BRANCH   4  16
ATOM     16  C   UNL d   1      13.569  12.395  -3.551  0.00  0.00     0.039 A 
ATOM     17  C   UNL d   1      14.000  12.792  -4.131  0.00  0.00     0.101 A 
ATOM     18  N   UNL d   1      13.816  12.685  -4.928  0.00  0.00    -0.242 NA
ATOM     19  C   UNL d   1      13.201  12.179  -5.145  0.00  0.00     0.099 A 
ATOM     20  C   UNL d   1      12.770  11.781  -4.564  0.00  0.00     0.021 A 
ATOM     21  C   UNL d   1      12.954  11.889  -3.767  0.00  0.00     0.005 A 
ENDBRANCH   4  16
TORSDOF 2
ENDMDL
