MODEL 1
REMARK VINA RESULT:      57.1      0.000      0.000
REMARK  7 active torsions:
REMARK  status: ('A' for Active; 'I' for Inactive)
REMARK    1  A    between atoms: C_6  and  N_2 
REMARK    2  A    between atoms: C_7  and  C_3 
REMARK    3  A    between atoms: C_15  and  C_6 
REMARK    4  A    between atoms: C_21  and  C_7 
REMARK    5  A    between atoms: C_8  and  O_14 
REMARK    6  A    between atoms: O_14  and  C_15 
REMARK    7  A    between atoms: C_19  and  C_21 
ROOT
ATOM      1  N   UNL d   1      59.128  49.701  51.806  0.00  0.00    -0.227 NA
ATOM      2  N   UNL d   1      59.866  49.530  50.676  0.00  0.00    -0.287 N 
ATOM      3  C   UNL d   1      59.905  49.627  51.505  0.00  0.00     0.148 A 
ATOM      4  C   UNL d   1      59.055  49.545  50.464  0.00  0.00     0.083 A 
ATOM      5  C   UNL d   1      58.609  49.649  51.152  0.00  0.00     0.099 A 
ATOM      6  C   UNL d   1      58.670  49.476  49.733  0.00  0.00     0.019 A 
ATOM      7  C   UNL d   1      57.785  49.685  51.115  0.00  0.00     0.021 A 
ATOM      8  C   UNL d   1      57.846  49.513  49.695  0.00  0.00     0.002 A 
ATOM      9  C   UNL d   1      57.404  49.617  50.386  0.00  0.00     0.002 A 
ENDROOT
BRANCH   2  10
ATOM     10  C   UNL d   1      60.498  49.437  50.160  0.00  0.00     0.108 C 
BRANCH  10  11
ATOM     11  C   UNL d   1      60.702  48.683  49.876  0.00  0.00     0.142 C 
BRANCH  11  12
ATOM     12  O   UNL d   1      61.260  48.234  50.278  0.00  0.00    -0.304 OA
BRANCH  12  13
ATOM     13  C   UNL d   1      61.344  47.434  50.106  0.00  0.00     0.100 A 
ATOM     14  C   UNL d   1      60.925  46.875  50.548  0.00  0.00     0.025 A 
ATOM     15  C   UNL d   1      61.009  46.074  50.377  0.00  0.00     0.002 A 
ATOM     16  C   UNL d   1      61.513  45.828  49.763  0.00  0.00     0.000 A 
ATOM     17  C   UNL d   1      61.930  46.396  49.325  0.00  0.00     0.002 A 
ATOM     18  C   UNL d   1      61.594  45.027  49.596  0.00  0.00     0.000 C 
ATOM     19  C   UNL d   1      61.844  47.199  49.499  0.00  0.00     0.025 A 
ENDBRANCH  12  13
ENDBRANCH  11  12
ENDBRANCH  10  11
ENDBRANCH   2  10
BRANCH   3  20
ATOM     20  C   UNL d   1      60.285  49.695  52.234  0.00  0.00     0.041 C 
BRANCH  20  21
ATOM     21  C   UNL d   1      61.098  49.557  52.286  0.00  0.00     0.049 C 
BRANCH  21  22
ATOM     22  C   UNL d   1      61.493  49.706  52.995  0.00  0.00     0.234 C 
ATOM     23  O   UNL d   1      62.270  49.452  53.094  0.00  0.00    -0.283 OA
ENDBRANCH  21  22
ENDBRANCH  20  21
ENDBRANCH   3  20
TORSDOF 7
ENDMDL
MODEL 2
REMARK VINA RESULT:      58.9      1.373      4.163
REMARK  7 active torsions:
REMARK  status: ('A' for Active; 'I' for Inactive)
REMARK    1  A    between atoms: C_6  and  N_2 
REMARK    2  A    between atoms: C_7  and  C_3 
REMARK    3  A    between atoms: C_15  and  C_6 
REMARK    4  A    between atoms: C_21  and  C_7 
REMARK    5  A    between atoms: C_8  and  O_14 
REMARK    6  A    between atoms: O_14  and  C_15 
REMARK    7  A    between atoms: C_19  and  C_21 
ROOT
ATOM      1  N   UNL d   1      61.182  47.353  51.645  0.00  0.00    -0.227 NA
ATOM      2  N   UNL d   1      60.528  48.263  50.873  0.00  0.00    -0.287 N 
ATOM      3  C   UNL d   1      60.714  47.453  50.958  0.00  0.00     0.148 A 
ATOM      4  C   UNL d   1      60.885  48.667  51.513  0.00  0.00     0.083 A 
ATOM      5  C   UNL d   1      61.282  48.113  51.981  0.00  0.00     0.099 A 
ATOM      6  C   UNL d   1      60.899  49.468  51.729  0.00  0.00     0.019 A 
ATOM      7  C   UNL d   1      61.690  48.351  52.658  0.00  0.00     0.021 A 
ATOM      8  C   UNL d   1      61.306  49.707  52.405  0.00  0.00     0.002 A 
ATOM      9  C   UNL d   1      61.701  49.149  52.870  0.00  0.00     0.002 A 
ENDROOT
BRANCH   2  10
ATOM     10  C   UNL d   1      60.080  48.605  50.275  0.00  0.00     0.108 C 
BRANCH  10  11
ATOM     11  C   UNL d   1      59.763  49.367  50.371  0.00  0.00     0.142 C 
BRANCH  11  12
ATOM     12  O   UNL d   1      59.329  49.708  49.764  0.00  0.00    -0.304 OA
BRANCH  12  13
ATOM     13  C   UNL d   1      58.507  49.683  49.782  0.00  0.00     0.100 A 
ATOM     14  C   UNL d   1      58.083  49.661  49.072  0.00  0.00     0.025 A 
ATOM     15  C   UNL d   1      57.261  49.636  49.089  0.00  0.00     0.002 A 
ATOM     16  C   UNL d   1      56.857  49.632  49.816  0.00  0.00     0.000 A 
ATOM     17  C   UNL d   1      57.290  49.654  50.524  0.00  0.00     0.002 A 
ATOM     18  C   UNL d   1      56.035  49.607  49.828  0.00  0.00     0.000 C 
ATOM     19  C   UNL d   1      58.116  49.680  50.503  0.00  0.00     0.025 A 
ENDBRANCH  12  13
ENDBRANCH  11  12
ENDBRANCH  10  11
ENDBRANCH   2  10
BRANCH   3  20
ATOM     20  C   UNL d   1      60.703  46.656  50.746  0.00  0.00     0.041 C 
BRANCH  20  21
ATOM     21  C   UNL d   1      61.367  46.315  50.394  0.00  0.00     0.049 C 
BRANCH  21  22
ATOM     22  C   UNL d   1      61.331  46.063  49.609  0.00  0.00     0.234 C 
ATOM     23  O   UNL d   1      61.452  45.269  49.426  0.00  0.00    -0.283 OA
ENDBRANCH  21  22
ENDBRANCH  20  21
ENDBRANCH   3  20
TORSDOF 7
ENDMDL
