MODEL 1
REMARK VINA RESULT:      11.5      0.000      0.000
REMARK  2 active torsions:
REMARK  status: ('A' for Active; 'I' for Inactive)
REMARK       I    between atoms: N_3  and  C_1 
REMARK    1  A    between atoms: C_4  and  C_1 
REMARK    2  A    between atoms: C_10  and  N_3 
ROOT
ATOM      1  C   UNL d   1      45.886 -16.878  44.191  0.00  0.00     0.279 C 
ATOM      2  N   UNL d   1      45.771 -16.486  44.909  0.00  0.00    -0.208 NA
ATOM      3  O   UNL d   1      45.814 -16.466  43.477  0.00  0.00    -0.265 OA
ENDROOT
BRANCH   1   4
ATOM      4  C   UNL d   1      46.072 -17.681  44.195  0.00  0.00     0.059 A 
ATOM      5  C   UNL d   1      46.166 -18.080  43.482  0.00  0.00     0.013 A 
ATOM      6  C   UNL d   1      46.351 -18.877  43.472  0.00  0.00     0.049 A 
ATOM      7  S   UNL d   1      46.477 -19.413  42.850  0.00  0.00    -0.064 SA
ATOM      8  C   UNL d   1      46.447 -19.292  44.196  0.00  0.00     0.088 A 
ATOM      9  C   UNL d   1      46.647 -20.149  43.197  0.00  0.00     0.135 A 
ATOM     10  N   UNL d   1      46.631 -20.086  44.015  0.00  0.00    -0.236 NA
ATOM     11  C   UNL d   1      46.355 -18.901  44.923  0.00  0.00     0.020 A 
ATOM     12  C   UNL d   1      46.168 -18.097  44.918  0.00  0.00     0.006 A 
ENDBRANCH   1   4
BRANCH   2  13
ATOM     13  C   UNL d   1      45.578 -15.653  44.897  0.00  0.00     0.087 A 
ATOM     14  C   UNL d   1      46.173 -15.087  44.849  0.00  0.00     0.049 A 
ATOM     15  C   UNL d   1      45.981 -14.293  44.838  0.00  0.00     0.142 A 
ATOM     16  F   UNL d   1      46.577 -13.715  44.790  0.00  0.00    -0.204 F 
ATOM     17  C   UNL d   1      45.198 -14.062  44.875  0.00  0.00     0.030 A 
ATOM     18  C   UNL d   1      44.600 -14.625  44.923  0.00  0.00     0.004 A 
ATOM     19  C   UNL d   1      44.791 -15.431  44.934  0.00  0.00     0.019 A 
ENDBRANCH   2  13
TORSDOF 2
ENDMDL
