MODEL 1
REMARK VINA RESULT:      -1.5      0.000      0.000
REMARK  7 active torsions:
REMARK  status: ('A' for Active; 'I' for Inactive)
REMARK    1  A    between atoms: C_2  and  S_1 
REMARK    2  A    between atoms: N_4  and  S_1 
REMARK    3  A    between atoms: C_13  and  N_4 
REMARK    4  A    between atoms: C_14  and  N_4 
REMARK    5  A    between atoms: O_12  and  C_7 
REMARK    6  A    between atoms: C_16  and  C_13 
REMARK    7  A    between atoms: C_17  and  C_14 
ROOT
ATOM      1  S   UNL d   1      31.051  16.513 -24.236  0.00  0.00     0.271 S 
ATOM      2  O   UNL d   1      30.940  16.296 -23.448  0.00  0.00    -0.200 OA
ATOM      3  O   UNL d   1      31.161  16.730 -25.024  0.00  0.00    -0.200 OA
ENDROOT
BRANCH   1   4
ATOM      4  C   UNL d   1      30.268  16.338 -24.394  0.00  0.00     0.106 A 
ATOM      5  C   UNL d   1      29.675  16.868 -24.182  0.00  0.00     0.038 A 
ATOM      6  C   UNL d   1      28.887  16.692 -24.342  0.00  0.00     0.105 A 
ATOM      7  C   UNL d   1      28.692  15.986 -24.713  0.00  0.00     0.080 A 
ATOM      8  C   UNL d   1      29.282  15.454 -24.926  0.00  0.00     0.014 A 
ATOM      9 CL   UNL d   1      27.903  15.809 -24.873  0.00  0.00    -0.080 Cl
ATOM     10  C   UNL d   1      30.071  15.630 -24.767  0.00  0.00     0.014 A 
BRANCH   6  11
ATOM     11  O   UNL d   1      28.297  17.224 -24.128  0.00  0.00    -0.327 OA
ATOM     12  C   UNL d   1      28.496  17.918 -23.730  0.00  0.00     0.181 C 
ENDBRANCH   6  11
ENDBRANCH   1   4
BRANCH   1  13
ATOM     13  N   UNL d   1      31.840  16.690 -24.076  0.00  0.00    -0.229 N 
BRANCH  13  14
ATOM     14  C   UNL d   1      32.250  17.216 -24.558  0.00  0.00     0.092 C 
BRANCH  14  15
ATOM     15  C   UNL d   1      32.732  17.795 -24.221  0.00  0.00     0.020 C 
ATOM     16  C   UNL d   1      33.025  18.410 -24.684  0.00  0.00     0.002 C 
ENDBRANCH  14  15
ENDBRANCH  13  14
BRANCH  13  17
ATOM     17  C   UNL d   1      32.219  16.340 -23.435  0.00  0.00     0.092 C 
BRANCH  17  18
ATOM     18  C   UNL d   1      32.775  15.743 -23.559  0.00  0.00     0.020 C 
ATOM     19  C   UNL d   1      33.241  15.476 -22.929  0.00  0.00     0.002 C 
ENDBRANCH  17  18
ENDBRANCH  13  17
ENDBRANCH   1  13
TORSDOF 7
ENDMDL
MODEL 2
REMARK VINA RESULT:      -1.4      2.530      3.592
REMARK  7 active torsions:
REMARK  status: ('A' for Active; 'I' for Inactive)
REMARK    1  A    between atoms: C_2  and  S_1 
REMARK    2  A    between atoms: N_4  and  S_1 
REMARK    3  A    between atoms: C_13  and  N_4 
REMARK    4  A    between atoms: C_14  and  N_4 
REMARK    5  A    between atoms: O_12  and  C_7 
REMARK    6  A    between atoms: C_16  and  C_13 
REMARK    7  A    between atoms: C_17  and  C_14 
ROOT
ATOM      1  S   UNL d   1      32.763  18.850 -23.248  0.00  0.00     0.271 S 
ATOM      2  O   UNL d   1      33.240  18.962 -23.911  0.00  0.00    -0.200 OA
ATOM      3  O   UNL d   1      32.285  18.738 -22.584  0.00  0.00    -0.200 OA
ENDROOT
BRANCH   1   4
ATOM      4  C   UNL d   1      32.635  18.075 -23.471  0.00  0.00     0.106 A 
ATOM      5  C   UNL d   1      31.984  17.881 -23.937  0.00  0.00     0.038 A 
ATOM      6  C   UNL d   1      31.855  17.099 -24.162  0.00  0.00     0.105 A 
ATOM      7  C   UNL d   1      32.376  16.512 -23.920  0.00  0.00     0.080 A 
ATOM      8  C   UNL d   1      33.027  16.702 -23.455  0.00  0.00     0.014 A 
ATOM      9 CL   UNL d   1      32.247  15.729 -24.145  0.00  0.00    -0.080 Cl
ATOM     10  C   UNL d   1      33.156  17.484 -23.230  0.00  0.00     0.014 A 
BRANCH   6  11
ATOM     11  O   UNL d   1      31.204  16.909 -24.627  0.00  0.00    -0.327 OA
ATOM     12  C   UNL d   1      30.500  17.329 -24.538  0.00  0.00     0.181 C 
ENDBRANCH   6  11
ENDBRANCH   1   4
BRANCH   1  13
ATOM     13  N   UNL d   1      32.892  19.633 -23.023  0.00  0.00    -0.229 N 
BRANCH  13  14
ATOM     14  C   UNL d   1      33.241  20.161 -23.550  0.00  0.00     0.092 C 
BRANCH  14  15
ATOM     15  C   UNL d   1      32.855  20.864 -23.746  0.00  0.00     0.020 C 
ATOM     16  C   UNL d   1      33.185  21.375 -24.301  0.00  0.00     0.002 C 
ENDBRANCH  14  15
ENDBRANCH  13  14
BRANCH  13  17
ATOM     17  C   UNL d   1      32.673  19.888 -22.272  0.00  0.00     0.092 C 
BRANCH  17  18
ATOM     18  C   UNL d   1      33.240  20.201 -21.760  0.00  0.00     0.020 C 
ATOM     19  C   UNL d   1      33.016  20.465 -21.009  0.00  0.00     0.002 C 
ENDBRANCH  17  18
ENDBRANCH  13  17
ENDBRANCH   1  13
TORSDOF 7
ENDMDL
MODEL 3
REMARK VINA RESULT:      -0.4      3.103      4.387
REMARK  7 active torsions:
REMARK  status: ('A' for Active; 'I' for Inactive)
REMARK    1  A    between atoms: C_2  and  S_1 
REMARK    2  A    between atoms: N_4  and  S_1 
REMARK    3  A    between atoms: C_13  and  N_4 
REMARK    4  A    between atoms: C_14  and  N_4 
REMARK    5  A    between atoms: O_12  and  C_7 
REMARK    6  A    between atoms: C_16  and  C_13 
REMARK    7  A    between atoms: C_17  and  C_14 
ROOT
ATOM      1  S   UNL d   1      32.563  18.597 -23.430  0.00  0.00     0.271 S 
ATOM      2  O   UNL d   1      33.241  18.604 -23.901  0.00  0.00    -0.200 OA
ATOM      3  O   UNL d   1      31.886  18.590 -22.960  0.00  0.00    -0.200 OA
ENDROOT
BRANCH   1   4
ATOM      4  C   UNL d   1      32.731  19.355 -23.177  0.00  0.00     0.106 A 
ATOM      5  C   UNL d   1      32.690  19.542 -22.376  0.00  0.00     0.038 A 
ATOM      6  C   UNL d   1      32.859  20.307 -22.120  0.00  0.00     0.105 A 
ATOM      7  C   UNL d   1      33.070  20.883 -22.666  0.00  0.00     0.080 A 
ATOM      8  C   UNL d   1      33.113  20.700 -23.466  0.00  0.00     0.014 A 
ATOM      9 CL   UNL d   1      33.240  21.649 -22.410  0.00  0.00    -0.080 Cl
ATOM     10  C   UNL d   1      32.943  19.936 -23.722  0.00  0.00     0.014 A 
BRANCH   6  11
ATOM     11  O   UNL d   1      32.817  20.489 -21.320  0.00  0.00    -0.327 OA
ATOM     12  C   UNL d   1      32.118  20.793 -21.005  0.00  0.00     0.181 C 
ENDBRANCH   6  11
ENDBRANCH   1   4
BRANCH   1  13
ATOM     13  N   UNL d   1      32.393  17.832 -23.686  0.00  0.00    -0.229 N 
BRANCH  13  14
ATOM     14  C   UNL d   1      31.637  17.645 -23.954  0.00  0.00     0.092 C 
BRANCH  14  15
ATOM     15  C   UNL d   1      31.525  17.391 -24.730  0.00  0.00     0.020 C 
ATOM     16  C   UNL d   1      30.764  17.266 -25.018  0.00  0.00     0.002 C 
ENDBRANCH  14  15
ENDBRANCH  13  14
BRANCH  13  17
ATOM     17  C   UNL d   1      32.979  17.254 -23.675  0.00  0.00     0.092 C 
BRANCH  17  18
ATOM     18  C   UNL d   1      32.778  16.464 -23.550  0.00  0.00     0.020 C 
ATOM     19  C   UNL d   1      33.183  16.019 -22.982  0.00  0.00     0.002 C 
ENDBRANCH  17  18
ENDBRANCH  13  17
ENDBRANCH   1  13
TORSDOF 7
ENDMDL
MODEL 4
REMARK VINA RESULT:      -0.2      4.553      5.758
REMARK  7 active torsions:
REMARK  status: ('A' for Active; 'I' for Inactive)
REMARK    1  A    between atoms: C_2  and  S_1 
REMARK    2  A    between atoms: N_4  and  S_1 
REMARK    3  A    between atoms: C_13  and  N_4 
REMARK    4  A    between atoms: C_14  and  N_4 
REMARK    5  A    between atoms: O_12  and  C_7 
REMARK    6  A    between atoms: C_16  and  C_13 
REMARK    7  A    between atoms: C_17  and  C_14 
ROOT
ATOM      1  S   UNL d   1      32.856  20.978 -21.855  0.00  0.00     0.271 S 
ATOM      2  O   UNL d   1      33.240  21.247 -22.533  0.00  0.00    -0.200 OA
ATOM      3  O   UNL d   1      32.471  20.709 -21.176  0.00  0.00    -0.200 OA
ENDROOT
BRANCH   1   4
ATOM      4  C   UNL d   1      32.951  20.207 -22.106  0.00  0.00     0.106 A 
ATOM      5  C   UNL d   1      32.861  20.018 -22.902  0.00  0.00     0.038 A 
ATOM      6  C   UNL d   1      32.958  19.240 -23.156  0.00  0.00     0.105 A 
ATOM      7  C   UNL d   1      33.144  18.653 -22.613  0.00  0.00     0.080 A 
ATOM      8  C   UNL d   1      33.235  18.838 -21.818  0.00  0.00     0.014 A 
ATOM      9 CL   UNL d   1      33.241  17.874 -22.868  0.00  0.00    -0.080 Cl
ATOM     10  C   UNL d   1      33.139  19.616 -21.564  0.00  0.00     0.014 A 
BRANCH   6  11
ATOM     11  O   UNL d   1      32.867  19.055 -23.952  0.00  0.00    -0.327 OA
ATOM     12  C   UNL d   1      32.236  18.581 -24.194  0.00  0.00     0.181 C 
ENDBRANCH   6  11
ENDBRANCH   1   4
BRANCH   1  13
ATOM     13  N   UNL d   1      32.759  21.757 -21.600  0.00  0.00    -0.229 N 
BRANCH  13  14
ATOM     14  C   UNL d   1      32.536  22.341 -22.137  0.00  0.00     0.092 C 
BRANCH  14  15
ATOM     15  C   UNL d   1      33.026  22.992 -22.265  0.00  0.00     0.020 C 
ATOM     16  C   UNL d   1      32.720  23.681 -22.595  0.00  0.00     0.002 C 
ENDBRANCH  14  15
ENDBRANCH  13  14
BRANCH  13  17
ATOM     17  C   UNL d   1      32.885  21.952 -20.811  0.00  0.00     0.092 C 
BRANCH  17  18
ATOM     18  C   UNL d   1      32.367  22.464 -20.424  0.00  0.00     0.020 C 
ATOM     19  C   UNL d   1      32.498  22.663 -19.632  0.00  0.00     0.002 C 
ENDBRANCH  17  18
ENDBRANCH  13  17
ENDBRANCH   1  13
TORSDOF 7
ENDMDL
MODEL 5
REMARK VINA RESULT:      -0.2      4.323      5.580
REMARK  7 active torsions:
REMARK  status: ('A' for Active; 'I' for Inactive)
REMARK    1  A    between atoms: C_2  and  S_1 
REMARK    2  A    between atoms: N_4  and  S_1 
REMARK    3  A    between atoms: C_13  and  N_4 
REMARK    4  A    between atoms: C_14  and  N_4 
REMARK    5  A    between atoms: O_12  and  C_7 
REMARK    6  A    between atoms: C_16  and  C_13 
REMARK    7  A    between atoms: C_17  and  C_14 
ROOT
ATOM      1  S   UNL d   1      33.016  19.810 -22.346  0.00  0.00     0.271 S 
ATOM      2  O   UNL d   1      32.792  19.230 -21.805  0.00  0.00    -0.200 OA
ATOM      3  O   UNL d   1      33.241  20.391 -22.887  0.00  0.00    -0.200 OA
ENDROOT
BRANCH   1   4
ATOM      4  C   UNL d   1      33.025  20.366 -21.747  0.00  0.00     0.106 A 
ATOM      5  C   UNL d   1      32.825  21.148 -21.906  0.00  0.00     0.038 A 
ATOM      6  C   UNL d   1      32.833  21.708 -21.302  0.00  0.00     0.105 A 
ATOM      7  C   UNL d   1      33.041  21.484 -20.539  0.00  0.00     0.080 A 
ATOM      8  C   UNL d   1      33.241  20.704 -20.377  0.00  0.00     0.014 A 
ATOM      9 CL   UNL d   1      33.049  22.045 -19.934  0.00  0.00    -0.080 Cl
ATOM     10  C   UNL d   1      33.233  20.144 -20.981  0.00  0.00     0.014 A 
BRANCH   6  11
ATOM     11  O   UNL d   1      32.633  22.489 -21.464  0.00  0.00    -0.327 OA
ATOM     12  C   UNL d   1      31.843  22.693 -21.585  0.00  0.00     0.181 C 
ENDBRANCH   6  11
ENDBRANCH   1   4
BRANCH   1  13
ATOM     13  N   UNL d   1      33.008  19.250 -22.951  0.00  0.00    -0.229 N 
BRANCH  13  14
ATOM     14  C   UNL d   1      32.788  18.473 -22.790  0.00  0.00     0.092 C 
BRANCH  14  15
ATOM     15  C   UNL d   1      33.210  17.847 -23.122  0.00  0.00     0.020 C 
ATOM     16  C   UNL d   1      33.023  17.070 -22.923  0.00  0.00     0.002 C 
ENDBRANCH  14  15
ENDBRANCH  13  14
BRANCH  13  17
ATOM     17  C   UNL d   1      33.220  19.466 -23.716  0.00  0.00     0.092 C 
BRANCH  17  18
ATOM     18  C   UNL d   1      32.661  19.439 -24.323  0.00  0.00     0.020 C 
ATOM     19  C   UNL d   1      32.900  19.272 -25.097  0.00  0.00     0.002 C 
ENDBRANCH  17  18
ENDBRANCH  13  17
ENDBRANCH   1  13
TORSDOF 7
ENDMDL
