MODEL 1
REMARK VINA RESULT:      -5.1      0.000      0.000
REMARK  3 active torsions:
REMARK  status: ('A' for Active; 'I' for Inactive)
REMARK    1  A    between atoms: N_2  and  C_1 
REMARK    2  A    between atoms: N_3  and  C_1 
REMARK       I    between atoms: C_4  and  N_3 
REMARK    3  A    between atoms: C_5  and  C_4 
ROOT
ATOM      1  C   UNL d   1      57.518   0.147  31.085  0.00  0.00     0.209 C 
ATOM      2  S   UNL d   1      58.260   0.423  31.354  0.00  0.00    -0.038 SA
ENDROOT
BRANCH   1   3
ATOM      3  N   UNL d   1      57.071  -0.361  31.569  0.00  0.00    -0.282 N 
ATOM      4  C   UNL d   1      56.581  -0.123  32.184  0.00  0.00     0.066 A 
ATOM      5  C   UNL d   1      56.247  -0.805  32.512  0.00  0.00     0.018 A 
ATOM      6  C   UNL d   1      56.389   0.616  32.493  0.00  0.00     0.018 A 
ATOM      7  C   UNL d   1      55.722  -0.747  33.149  0.00  0.00     0.002 A 
ATOM      8  C   UNL d   1      56.535  -1.456  32.096  0.00  0.00     0.021 A 
ATOM      9  C   UNL d   1      55.532   0.001  33.458  0.00  0.00     0.000 A 
ATOM     10  C   UNL d   1      55.865   0.682  33.130  0.00  0.00     0.002 A 
ATOM     11  C   UNL d   1      57.045  -1.177  31.512  0.00  0.00     0.082 A 
ENDBRANCH   1   3
BRANCH   1  12
ATOM     12  N   UNL d   1      57.234   0.375  30.351  0.00  0.00    -0.178 NA
ATOM     13  C   UNL d   1      57.759   0.451  29.715  0.00  0.00     0.304 C 
ATOM     14  O   UNL d   1      57.471   0.682  28.974  0.00  0.00    -0.263 OA
BRANCH  13  15
ATOM     15  C   UNL d   1      58.564   0.301  29.808  0.00  0.00     0.158 A 
ATOM     16  O   UNL d   1      59.146   0.676  30.242  0.00  0.00    -0.296 OA
ATOM     17  C   UNL d   1      59.860   0.268  30.116  0.00  0.00     0.134 A 
ATOM     18 BR   UNL d   1      60.616   0.436  30.438  0.00  0.00    -0.022 Br
ATOM     19  C   UNL d   1      59.704  -0.355  29.603  0.00  0.00     0.034 A 
ATOM     20  C   UNL d   1      58.904  -0.332  29.414  0.00  0.00     0.032 A 
ENDBRANCH  13  15
ENDBRANCH   1  12
TORSDOF 3
ENDMDL
MODEL 2
REMARK VINA RESULT:      -4.7      2.228      4.063
REMARK  3 active torsions:
REMARK  status: ('A' for Active; 'I' for Inactive)
REMARK    1  A    between atoms: N_2  and  C_1 
REMARK    2  A    between atoms: N_3  and  C_1 
REMARK       I    between atoms: C_4  and  N_3 
REMARK    3  A    between atoms: C_5  and  C_4 
ROOT
ATOM      1  C   UNL d   1      57.007   0.031  31.938  0.00  0.00     0.209 C 
ATOM      2  S   UNL d   1      56.452   0.609  32.178  0.00  0.00    -0.038 SA
ENDROOT
BRANCH   1   3
ATOM      3  N   UNL d   1      57.775   0.267  31.722  0.00  0.00    -0.282 N 
ATOM      4  C   UNL d   1      58.062   0.307  30.954  0.00  0.00     0.066 A 
ATOM      5  C   UNL d   1      58.846   0.566  30.996  0.00  0.00     0.018 A 
ATOM      6  C   UNL d   1      57.723   0.146  30.220  0.00  0.00     0.018 A 
ATOM      7  C   UNL d   1      59.291   0.663  30.305  0.00  0.00     0.002 A 
ATOM      8  C   UNL d   1      59.034   0.682  31.790  0.00  0.00     0.021 A 
ATOM      9  C   UNL d   1      58.945   0.499  29.567  0.00  0.00     0.000 A 
ATOM     10  C   UNL d   1      58.161   0.241  29.524  0.00  0.00     0.002 A 
ATOM     11  C   UNL d   1      58.368   0.496  32.237  0.00  0.00     0.082 A 
ENDBRANCH   1   3
BRANCH   1  12
ATOM     12  N   UNL d   1      56.796  -0.760  31.915  0.00  0.00    -0.178 NA
ATOM     13  C   UNL d   1      56.280  -1.063  32.489  0.00  0.00     0.304 C 
ATOM     14  O   UNL d   1      56.068  -1.862  32.466  0.00  0.00    -0.263 OA
BRANCH  13  15
ATOM     15  C   UNL d   1      55.975  -0.580  33.083  0.00  0.00     0.158 A 
ATOM     16  O   UNL d   1      56.324  -0.203  33.718  0.00  0.00    -0.296 OA
ATOM     17  C   UNL d   1      55.730   0.210  34.129  0.00  0.00     0.134 A 
ATOM     18 BR   UNL d   1      55.807   0.681  34.817  0.00  0.00    -0.022 Br
ATOM     19  C   UNL d   1      55.020   0.079  33.735  0.00  0.00     0.034 A 
ATOM     20  C   UNL d   1      55.174  -0.408  33.091  0.00  0.00     0.032 A 
ENDBRANCH  13  15
ENDBRANCH   1  12
TORSDOF 3
ENDMDL
MODEL 3
REMARK VINA RESULT:      -4.5      1.082      1.374
REMARK  3 active torsions:
REMARK  status: ('A' for Active; 'I' for Inactive)
REMARK    1  A    between atoms: N_2  and  C_1 
REMARK    2  A    between atoms: N_3  and  C_1 
REMARK       I    between atoms: C_4  and  N_3 
REMARK    3  A    between atoms: C_5  and  C_4 
ROOT
ATOM      1  C   UNL d   1      57.420   0.011  31.114  0.00  0.00     0.209 C 
ATOM      2  S   UNL d   1      57.465   0.619  30.542  0.00  0.00    -0.038 SA
ENDROOT
BRANCH   1   3
ATOM      3  N   UNL d   1      57.393   0.210  31.921  0.00  0.00    -0.282 N 
ATOM      4  C   UNL d   1      56.771   0.046  32.432  0.00  0.00     0.066 A 
ATOM      5  C   UNL d   1      56.978   0.339  33.176  0.00  0.00     0.018 A 
ATOM      6  C   UNL d   1      56.045  -0.329  32.326  0.00  0.00     0.018 A 
ATOM      7  C   UNL d   1      56.459   0.258  33.815  0.00  0.00     0.002 A 
ATOM      8  C   UNL d   1      57.726   0.682  33.117  0.00  0.00     0.021 A 
ATOM      9  C   UNL d   1      55.727  -0.120  33.705  0.00  0.00     0.000 A 
ATOM     10  C   UNL d   1      55.520  -0.414  32.961  0.00  0.00     0.002 A 
ATOM     11  C   UNL d   1      57.980   0.600  32.338  0.00  0.00     0.082 A 
ENDBRANCH   1   3
BRANCH   1  12
ATOM     12  N   UNL d   1      57.400  -0.774  30.881  0.00  0.00    -0.178 NA
ATOM     13  C   UNL d   1      57.911  -1.037  30.283  0.00  0.00     0.304 C 
ATOM     14  O   UNL d   1      57.891  -1.829  30.049  0.00  0.00    -0.263 OA
BRANCH  13  15
ATOM     15  C   UNL d   1      58.439  -0.519  29.918  0.00  0.00     0.158 A 
ATOM     16  O   UNL d   1      59.183  -0.255  30.127  0.00  0.00    -0.296 OA
ATOM     17  C   UNL d   1      59.445   0.267  29.534  0.00  0.00     0.134 A 
ATOM     18 BR   UNL d   1      60.171   0.682  29.494  0.00  0.00    -0.022 Br
ATOM     19  C   UNL d   1      58.852   0.314  28.966  0.00  0.00     0.034 A 
ATOM     20  C   UNL d   1      58.233  -0.171  29.205  0.00  0.00     0.032 A 
ENDBRANCH  13  15
ENDBRANCH   1  12
TORSDOF 3
ENDMDL
MODEL 4
REMARK VINA RESULT:      -4.3      1.862      3.924
REMARK  3 active torsions:
REMARK  status: ('A' for Active; 'I' for Inactive)
REMARK    1  A    between atoms: N_2  and  C_1 
REMARK    2  A    between atoms: N_3  and  C_1 
REMARK       I    between atoms: C_4  and  N_3 
REMARK    3  A    between atoms: C_5  and  C_4 
ROOT
ATOM      1  C   UNL d   1      57.512   0.085  31.055  0.00  0.00     0.209 C 
ATOM      2  S   UNL d   1      56.978   0.682  31.292  0.00  0.00    -0.038 SA
ENDROOT
BRANCH   1   3
ATOM      3  N   UNL d   1      58.268   0.297  30.779  0.00  0.00    -0.282 N 
ATOM      4  C   UNL d   1      58.498   0.320  29.991  0.00  0.00     0.066 A 
ATOM      5  C   UNL d   1      59.289   0.559  29.971  0.00  0.00     0.018 A 
ATOM      6  C   UNL d   1      58.102   0.157  29.287  0.00  0.00     0.018 A 
ATOM      7  C   UNL d   1      59.684   0.635  29.248  0.00  0.00     0.002 A 
ATOM      8  C   UNL d   1      59.539   0.681  30.748  0.00  0.00     0.021 A 
ATOM      9  C   UNL d   1      59.280   0.470  28.540  0.00  0.00     0.000 A 
ATOM     10  C   UNL d   1      58.490   0.231  28.560  0.00  0.00     0.002 A 
ATOM     11  C   UNL d   1      58.903   0.518  31.246  0.00  0.00     0.082 A 
ENDBRANCH   1   3
BRANCH   1  12
ATOM     12  N   UNL d   1      57.294  -0.704  31.093  0.00  0.00    -0.178 NA
ATOM     13  C   UNL d   1      56.865  -0.979  31.747  0.00  0.00     0.304 C 
ATOM     14  O   UNL d   1      56.645  -1.775  31.786  0.00  0.00    -0.263 OA
BRANCH  13  15
ATOM     15  C   UNL d   1      56.655  -0.470  32.361  0.00  0.00     0.158 A 
ATOM     16  O   UNL d   1      57.044  -0.238  33.040  0.00  0.00    -0.296 OA
ATOM     17  C   UNL d   1      56.550   0.290  33.451  0.00  0.00     0.134 A 
ATOM     18 BR   UNL d   1      56.698   0.681  34.177  0.00  0.00    -0.022 Br
ATOM     19  C   UNL d   1      55.859   0.374  33.012  0.00  0.00     0.034 A 
ATOM     20  C   UNL d   1      55.926  -0.096  32.341  0.00  0.00     0.032 A 
ENDBRANCH  13  15
ENDBRANCH   1  12
TORSDOF 3
ENDMDL
MODEL 5
REMARK VINA RESULT:      -2.4      1.626      2.476
REMARK  3 active torsions:
REMARK  status: ('A' for Active; 'I' for Inactive)
REMARK    1  A    between atoms: N_2  and  C_1 
REMARK    2  A    between atoms: N_3  and  C_1 
REMARK       I    between atoms: C_4  and  N_3 
REMARK    3  A    between atoms: C_5  and  C_4 
ROOT
ATOM      1  C   UNL d   1      56.421   0.067  32.822  0.00  0.00     0.209 C 
ATOM      2  S   UNL d   1      56.598   0.682  32.284  0.00  0.00    -0.038 SA
ENDROOT
BRANCH   1   3
ATOM      3  N   UNL d   1      56.304   0.248  33.626  0.00  0.00    -0.282 N 
ATOM      4  C   UNL d   1      55.575   0.368  33.986  0.00  0.00     0.066 A 
ATOM      5  C   UNL d   1      55.717   0.533  34.783  0.00  0.00     0.018 A 
ATOM      6  C   UNL d   1      54.802   0.351  33.702  0.00  0.00     0.018 A 
ATOM      7  C   UNL d   1      55.086   0.681  35.297  0.00  0.00     0.002 A 
ATOM      8  C   UNL d   1      56.532   0.513  34.907  0.00  0.00     0.021 A 
ATOM      9  C   UNL d   1      54.307   0.663  35.007  0.00  0.00     0.000 A 
ATOM     10  C   UNL d   1      54.165   0.498  34.210  0.00  0.00     0.002 A 
ATOM     11  C   UNL d   1      56.893   0.336  34.188  0.00  0.00     0.082 A 
ENDBRANCH   1   3
BRANCH   1  12
ATOM     12  N   UNL d   1      56.363  -0.707  32.561  0.00  0.00    -0.178 NA
ATOM     13  C   UNL d   1      56.761  -0.937  31.871  0.00  0.00     0.304 C 
ATOM     14  O   UNL d   1      56.702  -1.719  31.608  0.00  0.00    -0.263 OA
BRANCH  13  15
ATOM     15  C   UNL d   1      57.214  -0.398  31.443  0.00  0.00     0.158 A 
ATOM     16  O   UNL d   1      58.021  -0.308  31.351  0.00  0.00    -0.296 OA
ATOM     17  C   UNL d   1      58.151   0.340  30.847  0.00  0.00     0.134 A 
ATOM     18 BR   UNL d   1      58.882   0.654  30.585  0.00  0.00    -0.022 Br
ATOM     19  C   UNL d   1      57.415   0.641  30.635  0.00  0.00     0.034 A 
ATOM     20  C   UNL d   1      56.839   0.184  31.004  0.00  0.00     0.032 A 
ENDBRANCH  13  15
ENDBRANCH   1  12
TORSDOF 3
ENDMDL
