MODEL 1
REMARK VINA RESULT:      -3.1      0.000      0.000
REMARK  7 active torsions:
REMARK  status: ('A' for Active; 'I' for Inactive)
REMARK    1  A    between atoms: N_5  and  S_1 
REMARK    2  A    between atoms: C_8  and  S_1 
REMARK    3  A    between atoms: C_2  and  C_11 
REMARK    4  A    between atoms: C_9  and  N_5 
REMARK    5  A    between atoms: C_10  and  C_9 
REMARK       I    between atoms: N_14  and  C_10 
REMARK    6  A    between atoms: C_24  and  N_14 
REMARK    7  A    between atoms: C_15  and  C_16 
ROOT
ATOM      1  C   UNL d   1      57.938   0.088  30.012  0.00  0.00     0.299 C 
ATOM      2  N   UNL d   1      57.302  -0.335  30.290  0.00  0.00    -0.207 NA
ATOM      3  O   UNL d   1      58.289   0.676  30.481  0.00  0.00    -0.263 OA
ENDROOT
BRANCH   1   4
ATOM      4  C   UNL d   1      58.248  -0.062  29.253  0.00  0.00     0.174 C 
BRANCH   4   5
ATOM      5  N   UNL d   1      59.047  -0.221  29.177  0.00  0.00    -0.152 NA
BRANCH   5   6
ATOM      6  S   UNL d   1      59.299  -1.006  29.055  0.00  0.00     0.285 S 
ATOM      7  O   UNL d   1      60.046  -0.806  29.342  0.00  0.00    -0.198 OA
ATOM      8  O   UNL d   1      58.550  -1.202  28.769  0.00  0.00    -0.198 OA
BRANCH   6   9
ATOM      9  C   UNL d   1      59.545  -1.784  28.933  0.00  0.00     0.105 A 
ATOM     10  C   UNL d   1      59.040  -2.328  28.587  0.00  0.00     0.013 A 
ATOM     11  C   UNL d   1      59.286  -3.106  28.465  0.00  0.00    -0.004 A 
ATOM     12  C   UNL d   1      60.047  -3.338  28.695  0.00  0.00    -0.023 A 
ATOM     13  C   UNL d   1      60.556  -2.784  29.046  0.00  0.00    -0.004 A 
ATOM     14  C   UNL d   1      60.305  -2.015  29.163  0.00  0.00     0.013 A 
BRANCH  12  15
ATOM     15  C   UNL d   1      60.300  -4.114  28.576  0.00  0.00     0.019 C 
ATOM     16  C   UNL d   1      59.517  -4.361  28.550  0.00  0.00     0.004 C 
ATOM     17  C   UNL d   1      61.089  -3.861  28.604  0.00  0.00     0.004 C 
ATOM     18  C   UNL d   1      60.548  -4.892  28.458  0.00  0.00     0.004 C 
ENDBRANCH  12  15
ENDBRANCH   6   9
ENDBRANCH   5   6
ENDBRANCH   4   5
ENDBRANCH   1   4
BRANCH   2  19
ATOM     19  C   UNL d   1      57.001  -0.180  31.042  0.00  0.00     0.085 A 
ATOM     20  C   UNL d   1      57.207  -0.673  31.666  0.00  0.00     0.019 A 
ATOM     21  C   UNL d   1      56.911  -0.530  32.432  0.00  0.00     0.004 A 
ATOM     22  C   UNL d   1      56.409   0.108  32.565  0.00  0.00     0.024 A 
ATOM     23  C   UNL d   1      56.200   0.603  31.938  0.00  0.00     0.004 A 
ATOM     24  C   UNL d   1      56.492   0.465  31.178  0.00  0.00     0.019 A 
BRANCH  22  25
ATOM     25  C   UNL d   1      56.120   0.240  33.332  0.00  0.00     0.111 A 
ATOM     26  N   UNL d   1      55.322   0.330  33.499  0.00  0.00    -0.239 NA
ATOM     27  C   UNL d   1      55.237   0.452  34.311  0.00  0.00     0.088 A 
ATOM     28  C   UNL d   1      54.575   0.574  34.786  0.00  0.00     0.020 A 
ATOM     29  C   UNL d   1      55.989   0.436  34.646  0.00  0.00     0.049 A 
ATOM     30  C   UNL d   1      54.668   0.681  35.597  0.00  0.00     0.002 A 
ATOM     31  C   UNL d   1      55.421   0.665  35.933  0.00  0.00     0.001 A 
ATOM     32  C   UNL d   1      56.082   0.543  35.458  0.00  0.00     0.008 A 
ATOM     33  S   UNL d   1      56.536   0.305  34.040  0.00  0.00    -0.066 SA
ENDBRANCH  22  25
ENDBRANCH   2  19
TORSDOF 7
ENDMDL
