MODEL 1
REMARK VINA RESULT:     -10.1      0.000      0.000
REMARK  4 active torsions:
REMARK  status: ('A' for Active; 'I' for Inactive)
REMARK    1  A    between atoms: C_4  and  C_1 
REMARK       I    between atoms: N_6  and  C_4 
REMARK    2  A    between atoms: C_9  and  N_6 
REMARK    3  A    between atoms: C_12  and  N_6 
REMARK    4  A    between atoms: C_17  and  C_12 
ROOT
ATOM      1  C   UNL d   1      52.983  31.913  52.861  0.00  0.00     0.272 C 
ATOM      2  N   UNL d   1      53.616  31.705  53.345  0.00  0.00    -0.258 N 
ATOM      3  O   UNL d   1      52.691  31.383  52.313  0.00  0.00    -0.266 OA
ENDROOT
BRANCH   2   4
ATOM      4  C   UNL d   1      53.920  32.244  53.910  0.00  0.00     0.150 A 
ATOM      5  N   UNL d   1      53.558  32.288  54.659  0.00  0.00    -0.227 NA
ATOM      6  C   UNL d   1      53.862  32.825  55.221  0.00  0.00     0.101 A 
ATOM      7  C   UNL d   1      54.509  33.301  55.032  0.00  0.00     0.021 A 
ATOM      8  C   UNL d   1      54.864  33.252  54.284  0.00  0.00     0.005 A 
ATOM      9  C   UNL d   1      54.570  32.723  53.723  0.00  0.00     0.037 A 
ENDBRANCH   2   4
BRANCH   2  10
ATOM     10  C   UNL d   1      53.966  30.951  53.281  0.00  0.00     0.084 C 
BRANCH  10  11
ATOM     11  C   UNL d   1      53.595  30.292  53.606  0.00  0.00     0.018 A 
ATOM     12  C   UNL d   1      53.725  30.094  54.397  0.00  0.00     0.002 A 
ATOM     13  C   UNL d   1      53.354  29.435  54.719  0.00  0.00     0.000 A 
ATOM     14  C   UNL d   1      52.855  28.974  54.258  0.00  0.00     0.000 A 
ATOM     15  C   UNL d   1      52.723  29.175  53.456  0.00  0.00     0.000 A 
ATOM     16  C   UNL d   1      53.098  29.834  53.143  0.00  0.00     0.002 A 
ENDBRANCH  10  11
ENDBRANCH   2  10
BRANCH   1  17
ATOM     17  C   UNL d   1      52.647  32.667  52.938  0.00  0.00     0.132 A 
ATOM     18  C   UNL d   1      51.840  32.735  53.107  0.00  0.00     0.272 A 
ATOM     19  N   UNL d   1      51.490  33.484  53.187  0.00  0.00    -0.265 N 
ATOM     20  O   UNL d   1      51.374  32.060  53.199  0.00  0.00    -0.266 OA
ATOM     21  C   UNL d   1      50.724  33.721  53.350  0.00  0.00     0.123 A 
ATOM     22  C   UNL d   1      51.957  34.158  53.095  0.00  0.00     0.181 A 
ATOM     23  C   UNL d   1      50.704  34.540  53.361  0.00  0.00     0.043 A 
ATOM     24  S   UNL d   1      51.472  34.819  53.202  0.00  0.00    -0.049 SA
ATOM     25  N   UNL d   1      52.759  34.093  52.926  0.00  0.00    -0.220 NA
ATOM     26  C   UNL d   1      53.107  33.347  52.847  0.00  0.00     0.111 A 
ENDBRANCH   1  17
TORSDOF 4
ENDMDL
MODEL 2
REMARK VINA RESULT:      -9.2      1.362      3.508
REMARK  4 active torsions:
REMARK  status: ('A' for Active; 'I' for Inactive)
REMARK    1  A    between atoms: C_4  and  C_1 
REMARK       I    between atoms: N_6  and  C_4 
REMARK    2  A    between atoms: C_9  and  N_6 
REMARK    3  A    between atoms: C_12  and  N_6 
REMARK    4  A    between atoms: C_17  and  C_12 
ROOT
ATOM      1  C   UNL d   1      52.880  32.514  52.743  0.00  0.00     0.272 C 
ATOM      2  N   UNL d   1      53.088  33.212  53.127  0.00  0.00    -0.258 N 
ATOM      3  O   UNL d   1      52.420  32.537  52.068  0.00  0.00    -0.266 OA
ENDROOT
BRANCH   2   4
ATOM      4  C   UNL d   1      53.559  33.197  53.820  0.00  0.00     0.150 A 
ATOM      5  N   UNL d   1      53.187  33.079  54.557  0.00  0.00    -0.227 NA
ATOM      6  C   UNL d   1      53.658  33.064  55.245  0.00  0.00     0.101 A 
ATOM      7  C   UNL d   1      54.475  33.166  55.192  0.00  0.00     0.021 A 
ATOM      8  C   UNL d   1      54.838  33.283  54.455  0.00  0.00     0.005 A 
ATOM      9  C   UNL d   1      54.380  33.299  53.769  0.00  0.00     0.037 A 
ENDBRANCH   2   4
BRANCH   2  10
ATOM     10  C   UNL d   1      52.830  33.949  52.832  0.00  0.00     0.084 C 
BRANCH  10  11
ATOM     11  C   UNL d   1      52.038  34.165  52.887  0.00  0.00     0.018 A 
ATOM     12  C   UNL d   1      51.736  34.451  53.599  0.00  0.00     0.002 A 
ATOM     13  C   UNL d   1      50.944  34.666  53.650  0.00  0.00     0.000 A 
ATOM     14  C   UNL d   1      50.453  34.596  52.996  0.00  0.00     0.000 A 
ATOM     15  C   UNL d   1      50.760  34.305  52.273  0.00  0.00     0.000 A 
ATOM     16  C   UNL d   1      51.551  34.093  52.231  0.00  0.00     0.002 A 
ENDBRANCH  10  11
ENDBRANCH   2  10
BRANCH   1  17
ATOM     17  C   UNL d   1      53.144  31.791  53.049  0.00  0.00     0.132 A 
ATOM     18  C   UNL d   1      52.591  31.200  53.222  0.00  0.00     0.272 A 
ATOM     19  N   UNL d   1      52.842  30.469  53.530  0.00  0.00    -0.265 N 
ATOM     20  O   UNL d   1      51.787  31.328  53.092  0.00  0.00    -0.266 OA
ATOM     21  C   UNL d   1      52.435  29.795  53.750  0.00  0.00     0.123 A 
ATOM     22  C   UNL d   1      53.647  30.342  53.660  0.00  0.00     0.181 A 
ATOM     23  C   UNL d   1      52.977  29.242  54.018  0.00  0.00     0.043 A 
ATOM     24  S   UNL d   1      53.737  29.579  53.964  0.00  0.00    -0.049 SA
ATOM     25  N   UNL d   1      54.197  30.929  53.488  0.00  0.00    -0.220 NA
ATOM     26  C   UNL d   1      53.947  31.655  53.182  0.00  0.00     0.111 A 
ENDBRANCH   1  17
TORSDOF 4
ENDMDL
MODEL 3
REMARK VINA RESULT:      -8.2      1.306      2.026
REMARK  4 active torsions:
REMARK  status: ('A' for Active; 'I' for Inactive)
REMARK    1  A    between atoms: C_4  and  C_1 
REMARK       I    between atoms: N_6  and  C_4 
REMARK    2  A    between atoms: C_9  and  N_6 
REMARK    3  A    between atoms: C_12  and  N_6 
REMARK    4  A    between atoms: C_17  and  C_12 
ROOT
ATOM      1  C   UNL d   1      52.002  32.962  52.735  0.00  0.00     0.272 C 
ATOM      2  N   UNL d   1      52.729  33.171  53.058  0.00  0.00    -0.258 N 
ATOM      3  O   UNL d   1      51.931  32.286  52.281  0.00  0.00    -0.266 OA
ENDROOT
BRANCH   2   4
ATOM      4  C   UNL d   1      52.810  33.863  53.524  0.00  0.00     0.150 A 
ATOM      5  N   UNL d   1      52.619  33.826  54.335  0.00  0.00    -0.227 NA
ATOM      6  C   UNL d   1      52.699  34.515  54.798  0.00  0.00     0.101 A 
ATOM      7  C   UNL d   1      52.963  35.217  54.454  0.00  0.00     0.021 A 
ATOM      8  C   UNL d   1      53.151  35.247  53.647  0.00  0.00     0.005 A 
ATOM      9  C   UNL d   1      53.074  34.570  53.182  0.00  0.00     0.037 A 
ENDBRANCH   2   4
BRANCH   2  10
ATOM     10  C   UNL d   1      53.402  32.695  52.927  0.00  0.00     0.084 C 
BRANCH  10  11
ATOM     11  C   UNL d   1      53.463  31.956  53.282  0.00  0.00     0.018 A 
ATOM     12  C   UNL d   1      53.180  31.286  52.892  0.00  0.00     0.002 A 
ATOM     13  C   UNL d   1      53.243  30.548  53.250  0.00  0.00     0.000 A 
ATOM     14  C   UNL d   1      53.585  30.475  53.992  0.00  0.00     0.000 A 
ATOM     15  C   UNL d   1      53.872  31.155  54.388  0.00  0.00     0.000 A 
ATOM     16  C   UNL d   1      53.805  31.887  54.024  0.00  0.00     0.002 A 
ENDBRANCH  10  11
ENDBRANCH   2  10
BRANCH   1  17
ATOM     17  C   UNL d   1      51.343  33.447  52.875  0.00  0.00     0.132 A 
ATOM     18  C   UNL d   1      50.992  33.844  52.240  0.00  0.00     0.272 A 
ATOM     19  N   UNL d   1      50.332  34.333  52.366  0.00  0.00    -0.265 N 
ATOM     20  O   UNL d   1      51.292  33.761  51.476  0.00  0.00    -0.266 OA
ATOM     21  C   UNL d   1      49.876  34.786  51.860  0.00  0.00     0.123 A 
ATOM     22  C   UNL d   1      50.032  34.415  53.130  0.00  0.00     0.181 A 
ATOM     23  C   UNL d   1      49.291  35.155  52.300  0.00  0.00     0.043 A 
ATOM     24  S   UNL d   1      49.384  34.927  53.095  0.00  0.00    -0.049 SA
ATOM     25  N   UNL d   1      50.381  34.021  53.762  0.00  0.00    -0.220 NA
ATOM     26  C   UNL d   1      51.038  33.535  53.636  0.00  0.00     0.111 A 
ENDBRANCH   1  17
TORSDOF 4
ENDMDL
MODEL 4
REMARK VINA RESULT:      -8.2      1.416      2.457
REMARK  4 active torsions:
REMARK  status: ('A' for Active; 'I' for Inactive)
REMARK    1  A    between atoms: C_4  and  C_1 
REMARK       I    between atoms: N_6  and  C_4 
REMARK    2  A    between atoms: C_9  and  N_6 
REMARK    3  A    between atoms: C_12  and  N_6 
REMARK    4  A    between atoms: C_17  and  C_12 
ROOT
ATOM      1  C   UNL d   1      53.444  32.902  53.227  0.00  0.00     0.272 C 
ATOM      2  N   UNL d   1      52.799  32.545  52.862  0.00  0.00    -0.258 N 
ATOM      3  O   UNL d   1      54.171  32.529  53.236  0.00  0.00    -0.266 OA
ENDROOT
BRANCH   2   4
ATOM      4  C   UNL d   1      52.050  32.922  52.849  0.00  0.00     0.150 A 
ATOM      5  N   UNL d   1      51.527  32.797  53.487  0.00  0.00    -0.227 NA
ATOM      6  C   UNL d   1      50.782  33.172  53.474  0.00  0.00     0.101 A 
ATOM      7  C   UNL d   1      50.573  33.656  52.839  0.00  0.00     0.021 A 
ATOM      8  C   UNL d   1      51.098  33.775  52.208  0.00  0.00     0.005 A 
ATOM      9  C   UNL d   1      51.837  33.408  52.213  0.00  0.00     0.037 A 
ENDBRANCH   2   4
BRANCH   2  10
ATOM     10  C   UNL d   1      52.879  31.800  52.496  0.00  0.00     0.084 C 
BRANCH  10  11
ATOM     11  C   UNL d   1      52.916  31.116  52.951  0.00  0.00     0.018 A 
ATOM     12  C   UNL d   1      52.222  30.729  53.173  0.00  0.00     0.002 A 
ATOM     13  C   UNL d   1      52.262  30.046  53.628  0.00  0.00     0.000 A 
ATOM     14  C   UNL d   1      52.989  29.746  53.862  0.00  0.00     0.000 A 
ATOM     15  C   UNL d   1      53.694  30.138  53.637  0.00  0.00     0.000 A 
ATOM     16  C   UNL d   1      53.645  30.819  53.183  0.00  0.00     0.002 A 
ENDBRANCH  10  11
ENDBRANCH   2  10
BRANCH   1  17
ATOM     17  C   UNL d   1      53.347  33.643  53.586  0.00  0.00     0.132 A 
ATOM     18  C   UNL d   1      53.480  33.719  54.399  0.00  0.00     0.272 A 
ATOM     19  N   UNL d   1      53.386  34.455  54.772  0.00  0.00    -0.265 N 
ATOM     20  O   UNL d   1      53.708  33.065  54.849  0.00  0.00    -0.266 OA
ATOM     21  C   UNL d   1      53.476  34.696  55.549  0.00  0.00     0.123 A 
ATOM     22  C   UNL d   1      53.159  35.108  54.321  0.00  0.00     0.181 A 
ATOM     23  C   UNL d   1      53.307  35.497  55.591  0.00  0.00     0.043 A 
ATOM     24  S   UNL d   1      53.108  35.760  54.827  0.00  0.00    -0.049 SA
ATOM     25  N   UNL d   1      53.026  35.034  53.513  0.00  0.00    -0.220 NA
ATOM     26  C   UNL d   1      53.120  34.301  53.143  0.00  0.00     0.111 A 
ENDBRANCH   1  17
TORSDOF 4
ENDMDL
MODEL 5
REMARK VINA RESULT:      -8.1      1.522      2.925
REMARK  4 active torsions:
REMARK  status: ('A' for Active; 'I' for Inactive)
REMARK    1  A    between atoms: C_4  and  C_1 
REMARK       I    between atoms: N_6  and  C_4 
REMARK    2  A    between atoms: C_9  and  N_6 
REMARK    3  A    between atoms: C_12  and  N_6 
REMARK    4  A    between atoms: C_17  and  C_12 
ROOT
ATOM      1  C   UNL d   1      53.036  33.813  53.394  0.00  0.00     0.272 C 
ATOM      2  N   UNL d   1      53.440  33.095  53.411  0.00  0.00    -0.258 N 
ATOM      3  O   UNL d   1      53.429  34.512  53.547  0.00  0.00    -0.266 OA
ENDROOT
BRANCH   2   4
ATOM      4  C   UNL d   1      53.043  32.374  53.255  0.00  0.00     0.150 A 
ATOM      5  N   UNL d   1      53.082  32.052  52.487  0.00  0.00    -0.227 NA
ATOM      6  C   UNL d   1      52.687  31.334  52.333  0.00  0.00     0.101 A 
ATOM      7  C   UNL d   1      52.266  30.955  52.934  0.00  0.00     0.021 A 
ATOM      8  C   UNL d   1      52.231  31.282  53.695  0.00  0.00     0.005 A 
ATOM      9  C   UNL d   1      52.620  31.991  53.856  0.00  0.00     0.037 A 
ENDBRANCH   2   4
BRANCH   2  10
ATOM     10  C   UNL d   1      54.256  33.076  53.585  0.00  0.00     0.084 C 
BRANCH  10  11
ATOM     11  C   UNL d   1      54.524  33.258  54.341  0.00  0.00     0.018 A 
ATOM     12  C   UNL d   1      54.241  32.838  54.992  0.00  0.00     0.002 A 
ATOM     13  C   UNL d   1      54.511  33.022  55.746  0.00  0.00     0.000 A 
ATOM     14  C   UNL d   1      55.061  33.622  55.854  0.00  0.00     0.000 A 
ATOM     15  C   UNL d   1      55.348  34.048  55.194  0.00  0.00     0.000 A 
ATOM     16  C   UNL d   1      55.073  33.858  54.445  0.00  0.00     0.002 A 
ENDBRANCH  10  11
ENDBRANCH   2  10
BRANCH   1  17
ATOM     17  C   UNL d   1      52.225  33.815  53.220  0.00  0.00     0.132 A 
ATOM     18  C   UNL d   1      51.963  34.170  52.520  0.00  0.00     0.272 A 
ATOM     19  N   UNL d   1      51.154  34.180  52.332  0.00  0.00    -0.265 N 
ATOM     20  O   UNL d   1      52.502  34.519  52.001  0.00  0.00    -0.266 OA
ATOM     21  C   UNL d   1      50.739  34.483  51.696  0.00  0.00     0.123 A 
ATOM     22  C   UNL d   1      50.617  33.831  52.852  0.00  0.00     0.181 A 
ATOM     23  C   UNL d   1      49.942  34.327  51.810  0.00  0.00     0.043 A 
ATOM     24  S   UNL d   1      49.860  33.920  52.531  0.00  0.00    -0.049 SA
ATOM     25  N   UNL d   1      50.875  33.477  53.548  0.00  0.00    -0.220 NA
ATOM     26  C   UNL d   1      51.681  33.468  53.734  0.00  0.00     0.111 A 
ENDBRANCH   1  17
TORSDOF 4
ENDMDL
MODEL 6
REMARK VINA RESULT:      -7.7      1.726      3.958
REMARK  4 active torsions:
REMARK  status: ('A' for Active; 'I' for Inactive)
REMARK    1  A    between atoms: C_4  and  C_1 
REMARK       I    between atoms: N_6  and  C_4 
REMARK    2  A    between atoms: C_9  and  N_6 
REMARK    3  A    between atoms: C_12  and  N_6 
REMARK    4  A    between atoms: C_17  and  C_12 
ROOT
ATOM      1  C   UNL d   1      53.655  32.974  53.276  0.00  0.00     0.272 C 
ATOM      2  N   UNL d   1      53.125  33.603  53.244  0.00  0.00    -0.258 N 
ATOM      3  O   UNL d   1      54.451  33.112  53.398  0.00  0.00    -0.266 OA
ENDROOT
BRANCH   2   4
ATOM      4  C   UNL d   1      52.307  33.469  53.119  0.00  0.00     0.150 A 
ATOM      5  N   UNL d   1      51.839  33.215  53.761  0.00  0.00    -0.227 NA
ATOM      6  C   UNL d   1      51.025  33.082  53.635  0.00  0.00     0.101 A 
ATOM      7  C   UNL d   1      50.695  33.202  52.888  0.00  0.00     0.021 A 
ATOM      8  C   UNL d   1      51.167  33.456  52.255  0.00  0.00     0.005 A 
ATOM      9  C   UNL d   1      51.973  33.589  52.371  0.00  0.00     0.037 A 
ENDBRANCH   2   4
BRANCH   2  10
ATOM     10  C   UNL d   1      53.394  34.387  53.337  0.00  0.00     0.084 C 
BRANCH  10  11
ATOM     11  C   UNL d   1      53.337  34.762  54.067  0.00  0.00     0.018 A 
ATOM     12  C   UNL d   1      53.713  34.441  54.727  0.00  0.00     0.002 A 
ATOM     13  C   UNL d   1      53.654  34.818  55.455  0.00  0.00     0.000 A 
ATOM     14  C   UNL d   1      53.224  35.513  55.527  0.00  0.00     0.000 A 
ATOM     15  C   UNL d   1      52.843  35.840  54.857  0.00  0.00     0.000 A 
ATOM     16  C   UNL d   1      52.907  35.457  54.135  0.00  0.00     0.002 A 
ENDBRANCH  10  11
ENDBRANCH   2  10
BRANCH   1  17
ATOM     17  C   UNL d   1      53.371  32.201  53.182  0.00  0.00     0.132 A 
ATOM     18  C   UNL d   1      53.548  31.633  53.756  0.00  0.00     0.272 A 
ATOM     19  N   UNL d   1      53.270  30.854  53.675  0.00  0.00    -0.265 N 
ATOM     20  O   UNL d   1      54.002  31.832  54.416  0.00  0.00    -0.266 OA
ATOM     21  C   UNL d   1      53.353  30.187  54.142  0.00  0.00     0.123 A 
ATOM     22  C   UNL d   1      52.816  30.656  53.015  0.00  0.00     0.181 A 
ATOM     23  C   UNL d   1      52.954  29.569  53.780  0.00  0.00     0.043 A 
ATOM     24  S   UNL d   1      52.617  29.856  53.076  0.00  0.00    -0.049 SA
ATOM     25  N   UNL d   1      52.639  31.220  52.443  0.00  0.00    -0.220 NA
ATOM     26  C   UNL d   1      52.917  31.994  52.525  0.00  0.00     0.111 A 
ENDBRANCH   1  17
TORSDOF 4
ENDMDL
MODEL 7
REMARK VINA RESULT:      -7.1      1.883      4.068
REMARK  4 active torsions:
REMARK  status: ('A' for Active; 'I' for Inactive)
REMARK    1  A    between atoms: C_4  and  C_1 
REMARK       I    between atoms: N_6  and  C_4 
REMARK    2  A    between atoms: C_9  and  N_6 
REMARK    3  A    between atoms: C_12  and  N_6 
REMARK    4  A    between atoms: C_17  and  C_12 
ROOT
ATOM      1  C   UNL d   1      52.494  34.403  53.257  0.00  0.00     0.272 C 
ATOM      2  N   UNL d   1      52.118  33.873  52.752  0.00  0.00    -0.258 N 
ATOM      3  O   UNL d   1      52.405  35.208  53.151  0.00  0.00    -0.266 OA
ENDROOT
BRANCH   2   4
ATOM      4  C   UNL d   1      52.204  33.046  52.854  0.00  0.00     0.150 A 
ATOM      5  N   UNL d   1      52.781  32.644  52.406  0.00  0.00    -0.227 NA
ATOM      6  C   UNL d   1      52.866  31.820  52.509  0.00  0.00     0.101 A 
ATOM      7  C   UNL d   1      52.386  31.417  53.046  0.00  0.00     0.021 A 
ATOM      8  C   UNL d   1      51.815  31.824  53.488  0.00  0.00     0.005 A 
ATOM      9  C   UNL d   1      51.724  32.639  53.393  0.00  0.00     0.037 A 
ENDBRANCH   2   4
BRANCH   2  10
ATOM     10  C   UNL d   1      51.642  34.152  52.126  0.00  0.00     0.084 C 
BRANCH  10  11
ATOM     11  C   UNL d   1      50.846  34.317  52.252  0.00  0.00     0.018 A 
ATOM     12  C   UNL d   1      50.607  34.701  52.942  0.00  0.00     0.002 A 
ATOM     13  C   UNL d   1      49.811  34.864  53.064  0.00  0.00     0.000 A 
ATOM     14  C   UNL d   1      49.252  34.647  52.503  0.00  0.00     0.000 A 
ATOM     15  C   UNL d   1      49.495  34.257  51.803  0.00  0.00     0.000 A 
ATOM     16  C   UNL d   1      50.291  34.098  51.689  0.00  0.00     0.002 A 
ENDBRANCH  10  11
ENDBRANCH   2  10
BRANCH   1  17
ATOM     17  C   UNL d   1      52.964  34.108  53.874  0.00  0.00     0.132 A 
ATOM     18  C   UNL d   1      53.782  34.227  53.851  0.00  0.00     0.272 A 
ATOM     19  N   UNL d   1      54.265  33.937  54.462  0.00  0.00    -0.265 N 
ATOM     20  O   UNL d   1      54.129  34.633  53.222  0.00  0.00    -0.266 OA
ATOM     21  C   UNL d   1      55.073  33.968  54.589  0.00  0.00     0.123 A 
ATOM     22  C   UNL d   1      53.918  33.531  55.090  0.00  0.00     0.181 A 
ATOM     23  C   UNL d   1      55.238  33.584  55.293  0.00  0.00     0.043 A 
ATOM     24  S   UNL d   1      54.519  33.309  55.612  0.00  0.00    -0.049 SA
ATOM     25  N   UNL d   1      53.104  33.412  55.115  0.00  0.00    -0.220 NA
ATOM     26  C   UNL d   1      52.625  33.701  54.506  0.00  0.00     0.111 A 
ENDBRANCH   1  17
TORSDOF 4
ENDMDL
