MODEL 1
REMARK VINA RESULT:      26.9      0.000      0.000
REMARK  6 active torsions:
REMARK  status: ('A' for Active; 'I' for Inactive)
REMARK    1  A    between atoms: C_9  and  N_1 
REMARK    2  A    between atoms: C_3  and  C_2 
REMARK    3  A    between atoms: C_12  and  C_9 
REMARK    4  A    between atoms: C_15  and  C_9 
REMARK    5  A    between atoms: C_20  and  C_15 
REMARK    6  A    between atoms: C_17  and  C_20 
ROOT
ATOM      1  N   UNL d   1      45.999 -17.689  43.905  0.00  0.00    -0.254 N 
ATOM      2  C   UNL d   1      45.699 -16.557  44.407  0.00  0.00     0.093 A 
ATOM      3  C   UNL d   1      46.260 -17.728  44.621  0.00  0.00     0.153 A 
ATOM      4  C   UNL d   1      45.647 -16.985  43.734  0.00  0.00     0.272 A 
ATOM      5  S   UNL d   1      46.076 -17.016  44.952  0.00  0.00    -0.053 SA
ATOM      6  S   UNL d   1      46.646 -18.387  44.947  0.00  0.00    -0.052 SA
ATOM      7  O   UNL d   1      45.308 -16.741  43.038  0.00  0.00    -0.266 OA
ENDROOT
BRANCH   2   8
ATOM      8  C   UNL d   1      45.416 -15.790  44.515  0.00  0.00     0.070 A 
ATOM      9  C   UNL d   1      44.651 -15.717  44.776  0.00  0.00     0.280 A 
ATOM     10  N   UNL d   1      44.460 -14.907  44.854  0.00  0.00    -0.208 NA
ATOM     11  O   UNL d   1      44.136 -16.344  44.940  0.00  0.00    -0.265 OA
ATOM     12  C   UNL d   1      45.129 -14.481  44.634  0.00  0.00     0.085 A 
ATOM     13  C   UNL d   1      45.725 -15.014  44.423  0.00  0.00     0.023 A 
ATOM     14  C   UNL d   1      45.280 -13.658  44.596  0.00  0.00     0.019 A 
ATOM     15  C   UNL d   1      46.434 -14.753  44.187  0.00  0.00     0.002 A 
ATOM     16  C   UNL d   1      46.593 -13.972  44.146  0.00  0.00     0.000 A 
ATOM     17  C   UNL d   1      46.008 -13.384  44.354  0.00  0.00     0.002 A 
ENDBRANCH   2   8
BRANCH   1  18
ATOM     18  C   UNL d   1      46.100 -18.364  43.374  0.00  0.00     0.133 C 
BRANCH  18  19
ATOM     19  C   UNL d   1      45.922 -19.118  43.689  0.00  0.00     0.228 C 
ATOM     20  O   UNL d   1      45.178 -19.401  43.720  0.00  0.00    -0.643 OA
ATOM     21  O   UNL d   1      46.578 -19.566  43.973  0.00  0.00    -0.643 OA
ENDBRANCH  18  19
BRANCH  18  22
ATOM     22  C   UNL d   1      46.352 -18.265  42.618  0.00  0.00     0.030 C 
BRANCH  22  23
ATOM     23  C   UNL d   1      45.919 -18.646  42.029  0.00  0.00     0.072 C 
BRANCH  23  24
ATOM     24  C   UNL d   1      46.303 -18.683  41.264  0.00  0.00     0.211 C 
ATOM     25  O   UNL d   1      46.639 -18.018  40.926  0.00  0.00    -0.644 OA
ATOM     26  O   UNL d   1      46.314 -19.408  40.901  0.00  0.00    -0.644 OA
ENDBRANCH  23  24
ENDBRANCH  22  23
ENDBRANCH  18  22
ENDBRANCH   1  18
TORSDOF 6
ENDMDL
