MODEL 1
REMARK VINA RESULT:      40.4      0.000      0.000
REMARK  7 active torsions:
REMARK  status: ('A' for Active; 'I' for Inactive)
REMARK    1  A    between atoms: C_8  and  C_1 
REMARK    2  A    between atoms: N_7  and  C_2 
REMARK    3  A    between atoms: C_5  and  N_7 
REMARK    4  A    between atoms: N_9  and  C_5 
REMARK    5  A    between atoms: O_12  and  C_8 
REMARK    6  A    between atoms: C_13  and  N_9 
REMARK    7  A    between atoms: C_16  and  O_12 
ROOT
ATOM      1  C   UNL d   1      44.084 -15.561  36.659  0.00  0.00     0.162 A 
ATOM      2  C   UNL d   1      44.724 -15.915  37.024  0.00  0.00     0.108 A 
ATOM      3  N   UNL d   1      44.301 -14.795  36.439  0.00  0.00    -0.239 NA
ATOM      4  C   UNL d   1      45.344 -15.376  37.036  0.00  0.00     0.037 A 
ATOM      5  C   UNL d   1      45.087 -14.682  36.675  0.00  0.00     0.083 A 
ATOM      6  C   UNL d   1      46.113 -15.427  37.329  0.00  0.00     0.003 A 
ATOM      7  C   UNL d   1      45.597 -14.034  36.605  0.00  0.00     0.019 A 
ATOM      8  C   UNL d   1      46.628 -14.786  37.264  0.00  0.00     0.000 A 
ATOM      9  C   UNL d   1      46.363 -14.088  36.898  0.00  0.00     0.002 A 
ENDROOT
BRANCH   2  10
ATOM     10  N   UNL d   1      44.749 -16.691  37.334  0.00  0.00    -0.216 NA
BRANCH  10  11
ATOM     11  C   UNL d   1      44.872 -16.801  38.145  0.00  0.00     0.221 C 
ATOM     12  S   UNL d   1      44.962 -16.152  38.652  0.00  0.00    -0.037 SA
BRANCH  11  13
ATOM     13  N   UNL d   1      44.906 -17.573  38.446  0.00  0.00    -0.217 NA
BRANCH  13  14
ATOM     14  C   UNL d   1      45.151 -17.694  39.225  0.00  0.00     0.084 A 
ATOM     15  C   UNL d   1      44.635 -17.535  39.847  0.00  0.00     0.019 A 
ATOM     16  C   UNL d   1      44.875 -17.655  40.634  0.00  0.00     0.002 A 
ATOM     17  C   UNL d   1      45.640 -17.935  40.786  0.00  0.00     0.000 A 
ATOM     18  C   UNL d   1      46.163 -18.096  40.165  0.00  0.00     0.002 A 
ATOM     19  C   UNL d   1      45.914 -17.974  39.391  0.00  0.00     0.019 A 
ENDBRANCH  13  14
ENDBRANCH  11  13
ENDBRANCH  10  11
ENDBRANCH   2  10
BRANCH   1  20
ATOM     20  C   UNL d   1      43.344 -15.908  36.530  0.00  0.00     0.320 C 
ATOM     21  O   UNL d   1      43.280 -16.732  36.494  0.00  0.00    -0.257 OA
BRANCH  20  22
ATOM     22  O   UNL d   1      42.671 -15.447  36.436  0.00  0.00    -0.270 OA
BRANCH  22  23
ATOM     23  C   UNL d   1      41.955 -15.700  36.766  0.00  0.00     0.126 C 
ATOM     24  C   UNL d   1      41.454 -16.182  36.331  0.00  0.00     0.029 C 
ENDBRANCH  22  23
ENDBRANCH  20  22
ENDBRANCH   1  20
TORSDOF 7
ENDMDL
MODEL 2
REMARK VINA RESULT:      41.7      4.511      6.783
REMARK  7 active torsions:
REMARK  status: ('A' for Active; 'I' for Inactive)
REMARK    1  A    between atoms: C_8  and  C_1 
REMARK    2  A    between atoms: N_7  and  C_2 
REMARK    3  A    between atoms: C_5  and  N_7 
REMARK    4  A    between atoms: N_9  and  C_5 
REMARK    5  A    between atoms: O_12  and  C_8 
REMARK    6  A    between atoms: C_13  and  N_9 
REMARK    7  A    between atoms: C_16  and  O_12 
ROOT
ATOM      1  C   UNL d   1      46.029 -18.305  44.262  0.00  0.00     0.162 A 
ATOM      2  C   UNL d   1      46.214 -17.773  43.669  0.00  0.00     0.108 A 
ATOM      3  N   UNL d   1      45.598 -17.907  44.843  0.00  0.00    -0.239 NA
ATOM      4  C   UNL d   1      45.903 -17.042  43.873  0.00  0.00     0.037 A 
ATOM      5  C   UNL d   1      45.521 -17.119  44.598  0.00  0.00     0.083 A 
ATOM      6  C   UNL d   1      45.917 -16.311  43.491  0.00  0.00     0.003 A 
ATOM      7  C   UNL d   1      45.150 -16.465  44.947  0.00  0.00     0.019 A 
ATOM      8  C   UNL d   1      45.551 -15.655  43.831  0.00  0.00     0.000 A 
ATOM      9  C   UNL d   1      45.166 -15.739  44.564  0.00  0.00     0.002 A 
ENDROOT
BRANCH   2  10
ATOM     10  N   UNL d   1      46.647 -17.941  42.973  0.00  0.00    -0.216 NA
BRANCH  10  11
ATOM     11  C   UNL d   1      46.251 -18.238  42.310  0.00  0.00     0.221 C 
ATOM     12  S   UNL d   1      45.943 -19.007  42.310  0.00  0.00    -0.037 SA
BRANCH  11  13
ATOM     13  N   UNL d   1      46.165 -17.755  41.642  0.00  0.00    -0.217 NA
BRANCH  13  14
ATOM     14  C   UNL d   1      45.983 -18.098  40.914  0.00  0.00     0.084 A 
ATOM     15  C   UNL d   1      46.491 -18.656  40.584  0.00  0.00     0.019 A 
ATOM     16  C   UNL d   1      46.314 -19.007  39.851  0.00  0.00     0.002 A 
ATOM     17  C   UNL d   1      45.620 -18.788  39.455  0.00  0.00     0.000 A 
ATOM     18  C   UNL d   1      45.105 -18.228  39.782  0.00  0.00     0.002 A 
ATOM     19  C   UNL d   1      45.291 -17.889  40.508  0.00  0.00     0.019 A 
ENDBRANCH  13  14
ENDBRANCH  11  13
ENDBRANCH  10  11
ENDBRANCH   2  10
BRANCH   1  20
ATOM     20  C   UNL d   1      46.236 -19.106  44.280  0.00  0.00     0.320 C 
ATOM     21  O   UNL d   1      46.585 -19.453  43.615  0.00  0.00    -0.257 OA
BRANCH  20  22
ATOM     22  O   UNL d   1      46.099 -19.563  44.948  0.00  0.00    -0.270 OA
BRANCH  22  23
ATOM     23  C   UNL d   1      45.718 -20.294  44.870  0.00  0.00     0.126 C 
ATOM     24  C   UNL d   1      44.903 -20.322  44.794  0.00  0.00     0.029 C 
ENDBRANCH  22  23
ENDBRANCH  20  22
ENDBRANCH   1  20
TORSDOF 7
ENDMDL
MODEL 3
REMARK VINA RESULT:      42.2      1.165      2.568
REMARK  7 active torsions:
REMARK  status: ('A' for Active; 'I' for Inactive)
REMARK    1  A    between atoms: C_8  and  C_1 
REMARK    2  A    between atoms: N_7  and  C_2 
REMARK    3  A    between atoms: C_5  and  N_7 
REMARK    4  A    between atoms: N_9  and  C_5 
REMARK    5  A    between atoms: O_12  and  C_8 
REMARK    6  A    between atoms: C_13  and  N_9 
REMARK    7  A    between atoms: C_16  and  O_12 
ROOT
ATOM      1  C   UNL d   1      45.123 -15.374  36.717  0.00  0.00     0.162 A 
ATOM      2  C   UNL d   1      44.759 -15.963  37.153  0.00  0.00     0.108 A 
ATOM      3  N   UNL d   1      44.538 -14.936  36.334  0.00  0.00    -0.239 NA
ATOM      4  C   UNL d   1      43.948 -15.897  37.046  0.00  0.00     0.037 A 
ATOM      5  C   UNL d   1      43.805 -15.263  36.540  0.00  0.00     0.083 A 
ATOM      6  C   UNL d   1      43.316 -16.334  37.345  0.00  0.00     0.003 A 
ATOM      7  C   UNL d   1      43.030 -15.062  36.330  0.00  0.00     0.019 A 
ATOM      8  C   UNL d   1      42.540 -16.141  37.141  0.00  0.00     0.000 A 
ATOM      9  C   UNL d   1      42.403 -15.500  36.630  0.00  0.00     0.002 A 
ENDROOT
BRANCH   2  10
ATOM     10  N   UNL d   1      45.143 -16.535  37.626  0.00  0.00    -0.216 NA
BRANCH  10  11
ATOM     11  C   UNL d   1      44.809 -16.753  38.351  0.00  0.00     0.221 C 
ATOM     12  S   UNL d   1      44.401 -16.200  38.814  0.00  0.00    -0.037 SA
BRANCH  11  13
ATOM     13  N   UNL d   1      44.887 -17.536  38.611  0.00  0.00    -0.217 NA
BRANCH  13  14
ATOM     14  C   UNL d   1      45.283 -17.691  39.318  0.00  0.00     0.084 A 
ATOM     15  C   UNL d   1      46.083 -17.511  39.389  0.00  0.00     0.019 A 
ATOM     16  C   UNL d   1      46.489 -17.664  40.099  0.00  0.00     0.002 A 
ATOM     17  C   UNL d   1      46.078 -18.001  40.735  0.00  0.00     0.000 A 
ATOM     18  C   UNL d   1      45.274 -18.185  40.670  0.00  0.00     0.002 A 
ATOM     19  C   UNL d   1      44.884 -18.029  39.962  0.00  0.00     0.019 A 
ENDBRANCH  13  14
ENDBRANCH  11  13
ENDBRANCH  10  11
ENDBRANCH   2  10
BRANCH   1  20
ATOM     20  C   UNL d   1      45.937 -15.239  36.666  0.00  0.00     0.320 C 
ATOM     21  O   UNL d   1      46.464 -15.867  36.777  0.00  0.00    -0.257 OA
BRANCH  20  22
ATOM     22  O   UNL d   1      46.233 -14.489  36.507  0.00  0.00    -0.270 OA
BRANCH  22  23
ATOM     23  C   UNL d   1      46.646 -14.081  37.097  0.00  0.00     0.126 C 
ATOM     24  C   UNL d   1      46.543 -13.272  37.182  0.00  0.00     0.029 C 
ENDBRANCH  22  23
ENDBRANCH  20  22
ENDBRANCH   1  20
TORSDOF 7
ENDMDL
