MODEL 1
REMARK VINA RESULT:      -3.6      0.000      0.000
REMARK  6 active torsions:
REMARK  status: ('A' for Active; 'I' for Inactive)
REMARK    1  A    between atoms: S_11  and  C_2 
REMARK    2  A    between atoms: C_5  and  N_8 
REMARK       I    between atoms: N_8  and  C_13 
REMARK    3  A    between atoms: C_17  and  C_10 
REMARK    4  A    between atoms: C_16  and  S_11 
REMARK    5  A    between atoms: C_13  and  C_16 
REMARK    6  A    between atoms: C_18  and  C_17 
ROOT
ATOM      1  C   UNL d   1      32.728  18.372 -23.339  0.00  0.00     0.197 A 
ATOM      2  N   UNL d   1      33.106  17.760 -22.933  0.00  0.00    -0.219 NA
ATOM      3  S   UNL d   1      32.201  18.022 -23.872  0.00  0.00    -0.047 SA
ATOM      4  C   UNL d   1      32.253  17.209 -23.796  0.00  0.00     0.051 A 
ATOM      5  C   UNL d   1      32.815  17.048 -23.213  0.00  0.00     0.108 A 
ENDROOT
BRANCH   1   6
ATOM      6  N   UNL d   1      32.851  19.178 -23.235  0.00  0.00    -0.182 NA
ATOM      7  C   UNL d   1      33.102  19.468 -22.504  0.00  0.00     0.288 C 
ATOM      8  O   UNL d   1      33.230  18.943 -21.875  0.00  0.00    -0.265 OA
BRANCH   7   9
ATOM      9  C   UNL d   1      33.227  20.274 -22.392  0.00  0.00     0.101 C 
BRANCH   9  10
ATOM     10  S   UNL d   1      33.059  20.622 -21.673  0.00  0.00    -0.041 SA
BRANCH  10  11
ATOM     11  C   UNL d   1      33.030  21.448 -21.606  0.00  0.00     0.219 A 
ATOM     12  N   UNL d   1      33.041  21.875 -20.903  0.00  0.00    -0.167 N 
ATOM     13  C   UNL d   1      33.004  22.671 -21.090  0.00  0.00     0.189 A 
ATOM     14  N   UNL d   1      33.084  21.555 -20.143  0.00  0.00    -0.038 N 
ATOM     15  N   UNL d   1      32.968  22.740 -21.915  0.00  0.00    -0.126 NA
ATOM     16  C   UNL d   1      33.001  23.302 -20.553  0.00  0.00     0.044 C 
ATOM     17  N   UNL d   1      32.985  21.983 -22.229  0.00  0.00    -0.120 NA
ENDBRANCH  10  11
ENDBRANCH   9  10
ENDBRANCH   7   9
ENDBRANCH   1   6
BRANCH   4  18
ATOM     18  C   UNL d   1      31.821  16.653 -24.225  0.00  0.00     0.008 C 
BRANCH  18  19
ATOM     19  C   UNL d   1      31.110  16.369 -23.924  0.00  0.00     0.001 A 
ATOM     20  C   UNL d   1      30.395  16.709 -24.161  0.00  0.00     0.002 A 
ATOM     21  C   UNL d   1      29.684  16.425 -23.860  0.00  0.00     0.030 A 
ATOM     22  C   UNL d   1      29.683  15.798 -23.318  0.00  0.00     0.140 A 
ATOM     23  C   UNL d   1      30.394  15.458 -23.081  0.00  0.00     0.030 A 
ATOM     24  F   UNL d   1      28.972  15.517 -23.020  0.00  0.00    -0.204 F 
ATOM     25  C   UNL d   1      31.110  15.742 -23.382  0.00  0.00     0.002 A 
ENDBRANCH  18  19
ENDBRANCH   4  18
TORSDOF 6
ENDMDL
MODEL 2
REMARK VINA RESULT:      -3.1      0.935      1.423
REMARK  6 active torsions:
REMARK  status: ('A' for Active; 'I' for Inactive)
REMARK    1  A    between atoms: S_11  and  C_2 
REMARK    2  A    between atoms: C_5  and  N_8 
REMARK       I    between atoms: N_8  and  C_13 
REMARK    3  A    between atoms: C_17  and  C_10 
REMARK    4  A    between atoms: C_16  and  S_11 
REMARK    5  A    between atoms: C_13  and  C_16 
REMARK    6  A    between atoms: C_18  and  C_17 
ROOT
ATOM      1  C   UNL d   1      32.813  17.414 -23.538  0.00  0.00     0.197 A 
ATOM      2  N   UNL d   1      32.929  17.370 -24.355  0.00  0.00    -0.219 NA
ATOM      3  S   UNL d   1      32.275  16.818 -23.336  0.00  0.00    -0.047 SA
ATOM      4  C   UNL d   1      32.064  16.415 -24.016  0.00  0.00     0.051 A 
ATOM      5  C   UNL d   1      32.470  16.759 -24.647  0.00  0.00     0.108 A 
ENDROOT
BRANCH   1   6
ATOM      6  N   UNL d   1      33.165  17.947 -23.021  0.00  0.00    -0.182 NA
ATOM      7  C   UNL d   1      32.884  18.721 -22.971  0.00  0.00     0.288 C 
ATOM      8  O   UNL d   1      32.247  18.961 -23.445  0.00  0.00    -0.265 OA
BRANCH   7   9
ATOM      9  C   UNL d   1      33.231  19.262 -22.455  0.00  0.00     0.101 C 
BRANCH   9  10
ATOM     10  S   UNL d   1      32.923  20.014 -22.376  0.00  0.00    -0.041 SA
BRANCH  10  11
ATOM     11  C   UNL d   1      33.035  20.438 -21.672  0.00  0.00     0.219 A 
ATOM     12  N   UNL d   1      33.059  21.257 -21.602  0.00  0.00    -0.167 N 
ATOM     13  C   UNL d   1      33.180  21.440 -20.814  0.00  0.00     0.189 A 
ATOM     14  N   UNL d   1      32.977  21.798 -22.221  0.00  0.00    -0.038 N 
ATOM     15  N   UNL d   1      33.230  20.730 -20.390  0.00  0.00    -0.126 NA
ATOM     16  C   UNL d   1      33.241  22.200 -20.490  0.00  0.00     0.044 C 
ATOM     17  N   UNL d   1      33.140  20.115 -20.923  0.00  0.00    -0.120 NA
ENDBRANCH  10  11
ENDBRANCH   9  10
ENDBRANCH   7   9
ENDBRANCH   1   6
BRANCH   4  18
ATOM     18  C   UNL d   1      31.539  15.780 -24.060  0.00  0.00     0.008 C 
BRANCH  18  19
ATOM     19  C   UNL d   1      30.729  15.923 -24.094  0.00  0.00     0.001 A 
ATOM     20  C   UNL d   1      30.261  15.811 -23.422  0.00  0.00     0.002 A 
ATOM     21  C   UNL d   1      29.451  15.954 -23.456  0.00  0.00     0.030 A 
ATOM     22  C   UNL d   1      29.104  16.211 -24.164  0.00  0.00     0.140 A 
ATOM     23  C   UNL d   1      29.569  16.323 -24.834  0.00  0.00     0.030 A 
ATOM     24  F   UNL d   1      28.296  16.352 -24.195  0.00  0.00    -0.204 F 
ATOM     25  C   UNL d   1      30.382  16.180 -24.802  0.00  0.00     0.002 A 
ENDBRANCH  18  19
ENDBRANCH   4  18
TORSDOF 6
ENDMDL
