MODEL 1
REMARK VINA RESULT:       8.9      0.000      0.000
REMARK  5 active torsions:
REMARK  status: ('A' for Active; 'I' for Inactive)
REMARK    1  A    between atoms: N_9  and  C_2 
REMARK    2  A    between atoms: N_11  and  C_6 
REMARK    3  A    between atoms: C_16  and  N_11 
REMARK    4  A    between atoms: C_15  and  N_12 
REMARK    5  A    between atoms: C_24  and  C_15 
ROOT
ATOM      1  N   UNL d   1     -41.473-121.833 -51.156  0.00  0.00    -0.041 NA
ATOM      2  C   UNL d   1     -41.648-122.517 -51.494  0.00  0.00     0.738 A 
ATOM      3  C   UNL d   1     -41.388-121.793 -50.379  0.00  0.00     0.187 A 
ATOM      4  N   UNL d   1     -41.737-123.164 -51.053  0.00  0.00    -0.041 NA
ATOM      5  C   UNL d   1     -41.476-122.438 -49.935  0.00  0.00     0.094 A 
ATOM      6  C   UNL d   1     -41.652-123.131 -50.272  0.00  0.00     0.185 A 
ATOM      7  N   UNL d   1     -41.124-121.061 -49.252  0.00  0.00    -0.162 NA
ATOM      8  N   UNL d   1     -41.211-121.101 -50.043  0.00  0.00    -0.208 N 
ATOM      9  C   UNL d   1     -41.213-121.708 -48.811  0.00  0.00     0.127 A 
ATOM     10  C   UNL d   1     -41.123-120.457 -50.481  0.00  0.00     0.123 C 
ENDROOT
BRANCH   2  11
ATOM     11  N   UNL d   1     -41.740-122.564 -52.318  0.00  0.00    -0.134 N 
ATOM     12  C   UNL d   1     -41.413-123.205 -52.733  0.00  0.00     0.117 A 
ATOM     13  C   UNL d   1     -41.504-123.254 -53.562  0.00  0.00     0.100 A 
ATOM     14  N   UNL d   1     -41.916-122.670 -53.963  0.00  0.00    -0.300 N 
ATOM     15  C   UNL d   1     -42.243-122.029 -53.548  0.00  0.00     0.100 A 
ATOM     16  C   UNL d   1     -42.157-121.974 -52.732  0.00  0.00     0.117 A 
BRANCH  14  17
ATOM     17  C   UNL d   1     -42.012-122.710 -54.786  0.00  0.00     0.080 C 
BRANCH  17  18
ATOM     18  C   UNL d   1     -42.190-122.335 -55.500  0.00  0.00     0.018 A 
ATOM     19  C   UNL d   1     -41.624-121.854 -55.872  0.00  0.00     0.002 A 
ATOM     20  C   UNL d   1     -41.808-121.486 -56.580  0.00  0.00     0.000 A 
ATOM     21  C   UNL d   1     -42.550-121.584 -56.932  0.00  0.00     0.000 A 
ATOM     22  C   UNL d   1     -43.116-122.065 -56.559  0.00  0.00     0.000 A 
ATOM     23  C   UNL d   1     -42.933-122.441 -55.840  0.00  0.00     0.002 A 
ENDBRANCH  17  18
ENDBRANCH  14  17
ENDBRANCH   2  11
BRANCH   6  24
ATOM     24  N   UNL d   1     -41.746-123.807 -49.820  0.00  0.00    -0.226 NA
BRANCH  24  25
ATOM     25  C   UNL d   1     -42.257-123.810 -49.178  0.00  0.00     0.083 A 
ATOM     26  C   UNL d   1     -43.072-123.807 -49.298  0.00  0.00     0.021 A 
ATOM     27  C   UNL d   1     -43.592-123.810 -48.649  0.00  0.00     0.031 A 
ATOM     28  C   UNL d   1     -43.296-123.815 -47.882  0.00  0.00     0.140 A 
ATOM     29  C   UNL d   1     -42.475-123.817 -47.753  0.00  0.00     0.031 A 
ATOM     30  F   UNL d   1     -43.814-123.817 -47.245  0.00  0.00    -0.204 F 
ATOM     31  C   UNL d   1     -41.964-123.815 -48.400  0.00  0.00     0.021 A 
ENDBRANCH  24  25
ENDBRANCH   6  24
TORSDOF 5
ENDMDL
