MODEL 1
REMARK VINA RESULT:      48.9      0.000      0.000
REMARK  5 active torsions:
REMARK  status: ('A' for Active; 'I' for Inactive)
REMARK    1  A    between atoms: C_3  and  C_1 
REMARK    2  A    between atoms: N_2  and  C_10 
REMARK    3  A    between atoms: N_6  and  C_3 
REMARK    4  A    between atoms: C_11  and  C_5 
REMARK    5  A    between atoms: C_20  and  N_7 
ROOT
ATOM      1  C   UNL d   1      13.285  12.392  -3.554  0.00  0.00     0.126 A 
ATOM      2  O   UNL d   1      13.822  12.687  -3.002  0.00  0.00    -0.305 OA
ATOM      3  C   UNL d   1      13.682  12.311  -2.276  0.00  0.00     0.100 A 
ATOM      4  C   UNL d   1      12.813  11.833  -3.171  0.00  0.00     0.029 A 
ATOM      5  C   UNL d   1      13.051  11.779  -2.387  0.00  0.00     0.027 A 
ENDROOT
BRANCH   1   6
ATOM      6  C   UNL d   1      13.221  12.619  -4.385  0.00  0.00     0.143 C 
ATOM      7  S   UNL d   1      12.990  12.059  -4.944  0.00  0.00    -0.057 SA
BRANCH   6   8
ATOM      8  N   UNL d   1      13.399  13.416  -4.601  0.00  0.00    -0.291 N 
ATOM      9  C   UNL d   1      13.019  14.054  -4.251  0.00  0.00     0.100 A 
ATOM     10  C   UNL d   1      13.213  14.813  -4.481  0.00  0.00     0.100 A 
ATOM     11  N   UNL d   1      13.770  14.966  -5.045  0.00  0.00    -0.301 N 
ATOM     12  C   UNL d   1      14.173  14.325  -5.417  0.00  0.00     0.100 A 
ATOM     13  C   UNL d   1      13.984  13.546  -5.192  0.00  0.00     0.100 A 
BRANCH  11  14
ATOM     14  C   UNL d   1      13.950  15.746  -5.262  0.00  0.00     0.064 A 
ATOM     15  C   UNL d   1      14.356  16.220  -4.737  0.00  0.00     0.018 A 
ATOM     16  C   UNL d   1      14.548  16.999  -4.927  0.00  0.00     0.002 A 
ATOM     17  C   UNL d   1      14.325  17.301  -5.657  0.00  0.00     0.000 A 
ATOM     18  C   UNL d   1      13.911  16.823  -6.197  0.00  0.00     0.002 A 
ATOM     19  C   UNL d   1      13.727  16.048  -5.993  0.00  0.00     0.018 A 
ENDBRANCH  11  14
ENDBRANCH   6   8
ENDBRANCH   1   6
BRANCH   3  20
ATOM     20  C   UNL d   1      14.045  12.384  -1.533  0.00  0.00     0.024 A 
ATOM     21  C   UNL d   1      14.483  13.065  -1.348  0.00  0.00     0.025 A 
ATOM     22  C   UNL d   1      14.844  13.137  -0.610  0.00  0.00     0.127 A 
ATOM     23  C   UNL d   1      14.775  12.530  -0.040  0.00  0.00     0.024 A 
ATOM     24  C   UNL d   1      14.336  11.857  -0.236  0.00  0.00     0.002 A 
ATOM     25  C   UNL d   1      13.975  11.784  -0.974  0.00  0.00     0.002 A 
BRANCH  22  26
ATOM     26  N   UNL d   1      15.271  13.808  -0.439  0.00  0.00    -0.114 N 
ATOM     27  O   UNL d   1      14.946  14.564  -0.254  0.00  0.00    -0.532 OA
ATOM     28  O   UNL d   1      16.097  13.828  -0.427  0.00  0.00    -0.532 OA
ENDBRANCH  22  26
ENDBRANCH   3  20
TORSDOF 5
ENDMDL
