MODEL 1
REMARK VINA RESULT:      -7.1      0.000      0.000
REMARK  5 active torsions:
REMARK  status: ('A' for Active; 'I' for Inactive)
REMARK    1  A    between atoms: C_4  and  S_1 
REMARK    2  A    between atoms: N_7  and  S_1 
REMARK    3  A    between atoms: C_8  and  C_2 
REMARK    4  A    between atoms: C_6  and  C_13 
REMARK    5  A    between atoms: C_13  and  N_7 
ROOT
ATOM      1  C   UNL d   1      52.889  33.259  53.847  0.00  0.00     0.112 A 
ATOM      2  N   UNL d   1      52.172  33.679  53.797  0.00  0.00    -0.237 NA
ATOM      3  S   UNL d   1      52.851  32.645  53.301  0.00  0.00    -0.066 SA
ATOM      4  C   UNL d   1      51.706  33.321  53.226  0.00  0.00     0.108 A 
ATOM      5  C   UNL d   1      52.118  32.683  52.917  0.00  0.00     0.058 A 
ENDROOT
BRANCH   4   6
ATOM      6  C   UNL d   1      50.944  33.566  53.001  0.00  0.00     0.132 C 
BRANCH   6   7
ATOM      7  N   UNL d   1      50.829  34.298  52.646  0.00  0.00    -0.155 NA
BRANCH   7   8
ATOM      8  S   UNL d   1      50.081  34.517  52.354  0.00  0.00     0.291 S 
ATOM      9  O   UNL d   1      49.860  34.772  53.106  0.00  0.00    -0.198 OA
ATOM     10  O   UNL d   1      50.313  34.255  51.593  0.00  0.00    -0.198 OA
BRANCH   8  11
ATOM     11  C   UNL d   1      49.345  34.730  52.058  0.00  0.00     0.135 A 
ATOM     12  S   UNL d   1      48.774  35.129  52.455  0.00  0.00    -0.073 SA
ATOM     13  C   UNL d   1      48.124  35.230  51.961  0.00  0.00     0.036 A 
ATOM     14  C   UNL d   1      48.310  34.878  51.237  0.00  0.00     0.008 A 
ATOM     15  C   UNL d   1      49.068  34.566  51.292  0.00  0.00     0.020 A 
ENDBRANCH   8  11
ENDBRANCH   7   8
ENDBRANCH   6   7
ENDBRANCH   4   6
BRANCH   1  16
ATOM     16  C   UNL d   1      53.525  33.430  54.355  0.00  0.00     0.043 A 
ATOM     17  C   UNL d   1      53.645  34.211  54.589  0.00  0.00     0.101 A 
ATOM     18  N   UNL d   1      54.276  34.389  55.095  0.00  0.00    -0.242 NA
ATOM     19  C   UNL d   1      54.762  33.782  55.348  0.00  0.00     0.099 A 
ATOM     20  C   UNL d   1      54.637  32.996  55.109  0.00  0.00     0.021 A 
ATOM     21  C   UNL d   1      54.014  32.824  54.610  0.00  0.00     0.005 A 
ENDBRANCH   1  16
TORSDOF 5
ENDMDL
MODEL 2
REMARK VINA RESULT:      -6.9      1.353      1.764
REMARK  5 active torsions:
REMARK  status: ('A' for Active; 'I' for Inactive)
REMARK    1  A    between atoms: C_4  and  S_1 
REMARK    2  A    between atoms: N_7  and  S_1 
REMARK    3  A    between atoms: C_8  and  C_2 
REMARK    4  A    between atoms: C_6  and  C_13 
REMARK    5  A    between atoms: C_13  and  N_7 
ROOT
ATOM      1  C   UNL d   1      52.370  33.307  53.136  0.00  0.00     0.112 A 
ATOM      2  N   UNL d   1      51.622  33.361  52.773  0.00  0.00    -0.237 NA
ATOM      3  S   UNL d   1      52.611  34.073  53.315  0.00  0.00    -0.066 SA
ATOM      4  C   UNL d   1      51.416  34.154  52.732  0.00  0.00     0.108 A 
ATOM      5  C   UNL d   1      52.020  34.597  53.065  0.00  0.00     0.058 A 
ENDROOT
BRANCH   4   6
ATOM      6  C   UNL d   1      50.711  34.454  52.409  0.00  0.00     0.132 C 
BRANCH   6   7
ATOM      7  N   UNL d   1      50.021  34.470  52.856  0.00  0.00    -0.155 NA
BRANCH   7   8
ATOM      8  S   UNL d   1      49.331  34.830  52.559  0.00  0.00     0.291 S 
ATOM      9  O   UNL d   1      49.424  34.425  51.848  0.00  0.00    -0.198 OA
ATOM     10  O   UNL d   1      49.245  35.238  53.286  0.00  0.00    -0.198 OA
BRANCH   8  11
ATOM     11  C   UNL d   1      48.650  35.189  52.275  0.00  0.00     0.135 A 
ATOM     12  S   UNL d   1      48.211  35.739  52.659  0.00  0.00    -0.073 SA
ATOM     13  C   UNL d   1      47.575  35.956  52.184  0.00  0.00     0.036 A 
ATOM     14  C   UNL d   1      47.633  35.519  51.485  0.00  0.00     0.008 A 
ATOM     15  C   UNL d   1      48.300  35.041  51.537  0.00  0.00     0.020 A 
ENDBRANCH   8  11
ENDBRANCH   7   8
ENDBRANCH   6   7
ENDBRANCH   4   6
BRANCH   1  16
ATOM     16  C   UNL d   1      52.792  32.607  53.290  0.00  0.00     0.043 A 
ATOM     17  C   UNL d   1      52.553  31.912  52.917  0.00  0.00     0.101 A 
ATOM     18  N   UNL d   1      52.969  31.211  53.065  0.00  0.00    -0.242 NA
ATOM     19  C   UNL d   1      53.606  31.230  53.578  0.00  0.00     0.099 A 
ATOM     20  C   UNL d   1      53.843  31.935  53.951  0.00  0.00     0.021 A 
ATOM     21  C   UNL d   1      53.430  32.624  53.803  0.00  0.00     0.005 A 
ENDBRANCH   1  16
TORSDOF 5
ENDMDL
MODEL 3
REMARK VINA RESULT:      -6.9      2.140      4.929
REMARK  5 active torsions:
REMARK  status: ('A' for Active; 'I' for Inactive)
REMARK    1  A    between atoms: C_4  and  S_1 
REMARK    2  A    between atoms: N_7  and  S_1 
REMARK    3  A    between atoms: C_8  and  C_2 
REMARK    4  A    between atoms: C_6  and  C_13 
REMARK    5  A    between atoms: C_13  and  N_7 
ROOT
ATOM      1  C   UNL d   1      50.916  34.244  52.735  0.00  0.00     0.112 A 
ATOM      2  N   UNL d   1      51.102  33.483  53.017  0.00  0.00    -0.237 NA
ATOM      3  S   UNL d   1      51.623  34.661  52.673  0.00  0.00    -0.066 SA
ATOM      4  C   UNL d   1      51.914  33.442  53.124  0.00  0.00     0.108 A 
ATOM      5  C   UNL d   1      52.240  34.165  52.914  0.00  0.00     0.058 A 
ENDROOT
BRANCH   4   6
ATOM      6  C   UNL d   1      52.333  32.779  53.400  0.00  0.00     0.132 C 
BRANCH   6   7
ATOM      7  N   UNL d   1      52.673  32.252  52.869  0.00  0.00    -0.155 NA
BRANCH   7   8
ATOM      8  S   UNL d   1      52.876  31.480  53.107  0.00  0.00     0.291 S 
ATOM      9  O   UNL d   1      53.256  31.784  53.772  0.00  0.00    -0.198 OA
ATOM     10  O   UNL d   1      52.487  31.180  52.429  0.00  0.00    -0.198 OA
BRANCH   8  11
ATOM     11  C   UNL d   1      53.072  30.716  53.335  0.00  0.00     0.135 A 
ATOM     12  S   UNL d   1      52.670  30.049  53.144  0.00  0.00    -0.073 SA
ATOM     13  C   UNL d   1      53.049  29.401  53.481  0.00  0.00     0.036 A 
ATOM     14  C   UNL d   1      53.705  29.689  53.893  0.00  0.00     0.008 A 
ATOM     15  C   UNL d   1      53.723  30.505  53.805  0.00  0.00     0.020 A 
ENDBRANCH   8  11
ENDBRANCH   7   8
ENDBRANCH   6   7
ENDBRANCH   4   6
BRANCH   1  16
ATOM     16  C   UNL d   1      50.157  34.528  52.551  0.00  0.00     0.043 A 
ATOM     17  C   UNL d   1      49.735  34.933  53.131  0.00  0.00     0.101 A 
ATOM     18  N   UNL d   1      48.977  35.219  52.955  0.00  0.00    -0.242 NA
ATOM     19  C   UNL d   1      48.671  35.090  52.207  0.00  0.00     0.099 A 
ATOM     20  C   UNL d   1      49.101  34.681  51.625  0.00  0.00     0.021 A 
ATOM     21  C   UNL d   1      49.847  34.401  51.803  0.00  0.00     0.005 A 
ENDBRANCH   1  16
TORSDOF 5
ENDMDL
MODEL 4
REMARK VINA RESULT:      -6.6      1.555      5.084
REMARK  5 active torsions:
REMARK  status: ('A' for Active; 'I' for Inactive)
REMARK    1  A    between atoms: C_4  and  S_1 
REMARK    2  A    between atoms: N_7  and  S_1 
REMARK    3  A    between atoms: C_8  and  C_2 
REMARK    4  A    between atoms: C_6  and  C_13 
REMARK    5  A    between atoms: C_13  and  N_7 
ROOT
ATOM      1  C   UNL d   1      49.474  34.811  52.518  0.00  0.00     0.112 A 
ATOM      2  N   UNL d   1      49.983  34.627  53.151  0.00  0.00    -0.237 NA
ATOM      3  S   UNL d   1      49.776  34.445  51.846  0.00  0.00    -0.066 SA
ATOM      4  C   UNL d   1      50.587  34.153  52.862  0.00  0.00     0.108 A 
ATOM      5  C   UNL d   1      50.465  34.038  52.059  0.00  0.00     0.058 A 
ENDROOT
BRANCH   4   6
ATOM      6  C   UNL d   1      51.216  33.844  53.309  0.00  0.00     0.132 C 
BRANCH   6   7
ATOM      7  N   UNL d   1      51.992  34.048  53.134  0.00  0.00    -0.155 NA
BRANCH   7   8
ATOM      8  S   UNL d   1      52.616  33.815  53.632  0.00  0.00     0.291 S 
ATOM      9  O   UNL d   1      52.375  33.030  53.570  0.00  0.00    -0.198 OA
ATOM     10  O   UNL d   1      52.855  34.616  53.691  0.00  0.00    -0.198 OA
BRANCH   8  11
ATOM     11  C   UNL d   1      53.235  33.593  54.125  0.00  0.00     0.135 A 
ATOM     12  S   UNL d   1      53.588  34.056  54.676  0.00  0.00    -0.073 SA
ATOM     13  C   UNL d   1      54.182  33.625  55.049  0.00  0.00     0.036 A 
ATOM     14  C   UNL d   1      54.186  32.872  54.710  0.00  0.00     0.008 A 
ATOM     15  C   UNL d   1      53.599  32.847  54.135  0.00  0.00     0.020 A 
ENDBRANCH   8  11
ENDBRANCH   7   8
ENDBRANCH   6   7
ENDBRANCH   4   6
BRANCH   1  16
ATOM     16  C   UNL d   1      48.787  35.279  52.561  0.00  0.00     0.043 A 
ATOM     17  C   UNL d   1      48.281  35.297  51.911  0.00  0.00     0.101 A 
ATOM     18  N   UNL d   1      47.595  35.761  51.946  0.00  0.00    -0.242 NA
ATOM     19  C   UNL d   1      47.442  36.188  52.626  0.00  0.00     0.099 A 
ATOM     20  C   UNL d   1      47.956  36.166  53.279  0.00  0.00     0.021 A 
ATOM     21  C   UNL d   1      48.631  35.708  53.241  0.00  0.00     0.005 A 
ENDBRANCH   1  16
TORSDOF 5
ENDMDL
MODEL 5
REMARK VINA RESULT:      -5.5     10.451     10.887
REMARK  5 active torsions:
REMARK  status: ('A' for Active; 'I' for Inactive)
REMARK    1  A    between atoms: C_4  and  S_1 
REMARK    2  A    between atoms: N_7  and  S_1 
REMARK    3  A    between atoms: C_8  and  C_2 
REMARK    4  A    between atoms: C_6  and  C_13 
REMARK    5  A    between atoms: C_13  and  N_7 
ROOT
ATOM      1  C   UNL d   1      44.593  29.743  61.564  0.00  0.00     0.112 A 
ATOM      2  N   UNL d   1      44.406  29.477  60.797  0.00  0.00    -0.237 NA
ATOM      3  S   UNL d   1      44.821  30.531  61.501  0.00  0.00    -0.066 SA
ATOM      4  C   UNL d   1      44.520  30.100  60.277  0.00  0.00     0.108 A 
ATOM      5  C   UNL d   1      44.776  30.752  60.704  0.00  0.00     0.058 A 
ENDROOT
BRANCH   4   6
ATOM      6  C   UNL d   1      44.396  30.073  59.455  0.00  0.00     0.132 C 
BRANCH   6   7
ATOM      7  N   UNL d   1      45.035  30.024  58.940  0.00  0.00    -0.155 NA
BRANCH   7   8
ATOM      8  S   UNL d   1      44.914  29.934  58.121  0.00  0.00     0.291 S 
ATOM      9  O   UNL d   1      44.578  30.685  58.087  0.00  0.00    -0.198 OA
ATOM     10  O   UNL d   1      45.256  29.171  58.164  0.00  0.00    -0.198 OA
BRANCH   8  11
ATOM     11  C   UNL d   1      44.798  29.837  57.313  0.00  0.00     0.135 A 
ATOM     12  S   UNL d   1      44.784  29.140  56.919  0.00  0.00    -0.073 SA
ATOM     13  C   UNL d   1      44.653  29.285  56.119  0.00  0.00     0.036 A 
ATOM     14  C   UNL d   1      44.586  30.104  56.029  0.00  0.00     0.008 A 
ATOM     15  C   UNL d   1      44.675  30.451  56.768  0.00  0.00     0.020 A 
ENDBRANCH   8  11
ENDBRANCH   7   8
ENDBRANCH   6   7
ENDBRANCH   4   6
BRANCH   1  16
ATOM     16  C   UNL d   1      44.556  29.293  62.262  0.00  0.00     0.043 A 
ATOM     17  C   UNL d   1      44.353  29.672  62.966  0.00  0.00     0.101 A 
ATOM     18  N   UNL d   1      44.314  29.229  63.666  0.00  0.00    -0.242 NA
ATOM     19  C   UNL d   1      44.478  28.429  63.637  0.00  0.00     0.099 A 
ATOM     20  C   UNL d   1      44.682  28.052  62.924  0.00  0.00     0.021 A 
ATOM     21  C   UNL d   1      44.720  28.491  62.237  0.00  0.00     0.005 A 
ENDBRANCH   1  16
TORSDOF 5
ENDMDL
MODEL 6
REMARK VINA RESULT:      -5.4     10.348     10.924
REMARK  5 active torsions:
REMARK  status: ('A' for Active; 'I' for Inactive)
REMARK    1  A    between atoms: C_4  and  S_1 
REMARK    2  A    between atoms: N_7  and  S_1 
REMARK    3  A    between atoms: C_8  and  C_2 
REMARK    4  A    between atoms: C_6  and  C_13 
REMARK    5  A    between atoms: C_13  and  N_7 
ROOT
ATOM      1  C   UNL d   1      44.775  30.069  59.999  0.00  0.00     0.112 A 
ATOM      2  N   UNL d   1      44.563  29.313  59.720  0.00  0.00    -0.237 NA
ATOM      3  S   UNL d   1      45.137  30.467  59.377  0.00  0.00    -0.066 SA
ATOM      4  C   UNL d   1      44.796  29.257  58.936  0.00  0.00     0.108 A 
ATOM      5  C   UNL d   1      45.150  29.964  58.719  0.00  0.00     0.058 A 
ENDROOT
BRANCH   4   6
ATOM      6  C   UNL d   1      44.689  28.594  58.446  0.00  0.00     0.132 C 
BRANCH   6   7
ATOM      7  N   UNL d   1      45.304  28.061  58.327  0.00  0.00    -0.155 NA
BRANCH   7   8
ATOM      8  S   UNL d   1      45.188  27.373  57.873  0.00  0.00     0.291 S 
ATOM      9  O   UNL d   1      45.233  26.914  58.556  0.00  0.00    -0.198 OA
ATOM     10  O   UNL d   1      45.143  27.847  57.184  0.00  0.00    -0.198 OA
BRANCH   8  11
ATOM     11  C   UNL d   1      45.073  26.699  57.418  0.00  0.00     0.135 A 
ATOM     12  S   UNL d   1      44.891  25.969  57.694  0.00  0.00    -0.073 SA
ATOM     13  C   UNL d   1      44.824  25.450  57.059  0.00  0.00     0.036 A 
ATOM     14  C   UNL d   1      44.971  25.885  56.372  0.00  0.00     0.008 A 
ATOM     15  C   UNL d   1      45.127  26.662  56.591  0.00  0.00     0.020 A 
ENDBRANCH   8  11
ENDBRANCH   7   8
ENDBRANCH   6   7
ENDBRANCH   4   6
BRANCH   1  16
ATOM     16  C   UNL d   1      44.643  30.364  60.765  0.00  0.00     0.043 A 
ATOM     17  C   UNL d   1      44.720  29.850  61.405  0.00  0.00     0.101 A 
ATOM     18  N   UNL d   1      44.591  30.138  62.172  0.00  0.00    -0.242 NA
ATOM     19  C   UNL d   1      44.390  30.924  62.270  0.00  0.00     0.099 A 
ATOM     20  C   UNL d   1      44.314  31.438  61.621  0.00  0.00     0.021 A 
ATOM     21  C   UNL d   1      44.442  31.152  60.867  0.00  0.00     0.005 A 
ENDBRANCH   1  16
TORSDOF 5
ENDMDL
MODEL 7
REMARK VINA RESULT:      -5.0     10.723     11.468
REMARK  5 active torsions:
REMARK  status: ('A' for Active; 'I' for Inactive)
REMARK    1  A    between atoms: C_4  and  S_1 
REMARK    2  A    between atoms: N_7  and  S_1 
REMARK    3  A    between atoms: C_8  and  C_2 
REMARK    4  A    between atoms: C_6  and  C_13 
REMARK    5  A    between atoms: C_13  and  N_7 
ROOT
ATOM      1  C   UNL d   1      44.705  24.339  55.709  0.00  0.00     0.112 A 
ATOM      2  N   UNL d   1      44.722  25.170  55.673  0.00  0.00    -0.237 NA
ATOM      3  S   UNL d   1      44.512  24.131  56.482  0.00  0.00    -0.066 SA
ATOM      4  C   UNL d   1      44.541  25.462  56.418  0.00  0.00     0.108 A 
ATOM      5  C   UNL d   1      44.411  24.826  56.920  0.00  0.00     0.058 A 
ENDROOT
BRANCH   4   6
ATOM      6  C   UNL d   1      44.498  26.265  56.625  0.00  0.00     0.132 C 
BRANCH   6   7
ATOM      7  N   UNL d   1      45.183  26.699  56.756  0.00  0.00    -0.155 NA
BRANCH   7   8
ATOM      8  S   UNL d   1      45.145  27.475  57.056  0.00  0.00     0.291 S 
ATOM      9  O   UNL d   1      45.738  27.296  57.599  0.00  0.00    -0.198 OA
ATOM     10  O   UNL d   1      44.543  27.649  56.500  0.00  0.00    -0.198 OA
BRANCH   8  11
ATOM     11  C   UNL d   1      45.101  28.243  57.345  0.00  0.00     0.135 A 
ATOM     12  S   UNL d   1      45.165  28.461  58.113  0.00  0.00    -0.073 SA
ATOM     13  C   UNL d   1      45.089  29.279  58.167  0.00  0.00     0.036 A 
ATOM     14  C   UNL d   1      44.975  29.565  57.400  0.00  0.00     0.008 A 
ATOM     15  C   UNL d   1      44.981  28.924  56.886  0.00  0.00     0.020 A 
ENDBRANCH   8  11
ENDBRANCH   7   8
ENDBRANCH   6   7
ENDBRANCH   4   6
BRANCH   1  16
ATOM     16  C   UNL d   1      44.855  23.816  55.080  0.00  0.00     0.043 A 
ATOM     17  C   UNL d   1      44.619  24.034  54.321  0.00  0.00     0.101 A 
ATOM     18  N   UNL d   1      44.765  23.518  53.689  0.00  0.00    -0.242 NA
ATOM     19  C   UNL d   1      45.140  22.807  53.839  0.00  0.00     0.099 A 
ATOM     20  C   UNL d   1      45.376  22.592  54.606  0.00  0.00     0.021 A 
ATOM     21  C   UNL d   1      45.230  23.103  55.227  0.00  0.00     0.005 A 
ENDBRANCH   1  16
TORSDOF 5
ENDMDL
MODEL 8
REMARK VINA RESULT:      -4.8     10.171     10.884
REMARK  5 active torsions:
REMARK  status: ('A' for Active; 'I' for Inactive)
REMARK    1  A    between atoms: C_4  and  S_1 
REMARK    2  A    between atoms: N_7  and  S_1 
REMARK    3  A    between atoms: C_8  and  C_2 
REMARK    4  A    between atoms: C_6  and  C_13 
REMARK    5  A    between atoms: C_13  and  N_7 
ROOT
ATOM      1  C   UNL d   1      44.752  28.874  58.125  0.00  0.00     0.112 A 
ATOM      2  N   UNL d   1      44.550  28.342  57.517  0.00  0.00    -0.237 NA
ATOM      3  S   UNL d   1      44.870  28.432  58.808  0.00  0.00    -0.066 SA
ATOM      4  C   UNL d   1      44.547  27.585  57.832  0.00  0.00     0.108 A 
ATOM      5  C   UNL d   1      44.743  27.634  58.627  0.00  0.00     0.058 A 
ENDROOT
BRANCH   4   6
ATOM      6  C   UNL d   1      44.373  26.888  57.414  0.00  0.00     0.132 C 
BRANCH   6   7
ATOM      7  N   UNL d   1      44.973  26.365  57.209  0.00  0.00    -0.155 NA
BRANCH   7   8
ATOM      8  S   UNL d   1      44.816  25.709  56.720  0.00  0.00     0.291 S 
ATOM      9  O   UNL d   1      45.250  26.057  56.112  0.00  0.00    -0.198 OA
ATOM     10  O   UNL d   1      44.377  25.362  57.343  0.00  0.00    -0.198 OA
BRANCH   8  11
ATOM     11  C   UNL d   1      44.658  25.059  56.244  0.00  0.00     0.135 A 
ATOM     12  S   UNL d   1      44.410  24.339  56.496  0.00  0.00    -0.073 SA
ATOM     13  C   UNL d   1      44.316  23.844  55.846  0.00  0.00     0.036 A 
ATOM     14  C   UNL d   1      44.515  24.283  55.175  0.00  0.00     0.008 A 
ATOM     15  C   UNL d   1      44.728  25.039  55.417  0.00  0.00     0.020 A 
ENDBRANCH   8  11
ENDBRANCH   7   8
ENDBRANCH   6   7
ENDBRANCH   4   6
BRANCH   1  16
ATOM     16  C   UNL d   1      44.821  29.700  58.052  0.00  0.00     0.043 A 
ATOM     17  C   UNL d   1      45.126  30.128  58.686  0.00  0.00     0.101 A 
ATOM     18  N   UNL d   1      45.198  30.951  58.621  0.00  0.00    -0.242 NA
ATOM     19  C   UNL d   1      44.963  31.314  57.927  0.00  0.00     0.099 A 
ATOM     20  C   UNL d   1      44.655  30.877  57.290  0.00  0.00     0.021 A 
ATOM     21  C   UNL d   1      44.586  30.066  57.358  0.00  0.00     0.005 A 
ENDBRANCH   1  16
TORSDOF 5
ENDMDL
