MODEL 1
REMARK VINA RESULT:      -2.1      0.000      0.000
REMARK  4 active torsions:
REMARK  status: ('A' for Active; 'I' for Inactive)
REMARK    1  A    between atoms: C_5  and  N_1 
REMARK    2  A    between atoms: C_9  and  C_3 
REMARK    3  A    between atoms: C_7  and  C_5 
REMARK    4  A    between atoms: O_10  and  C_8 
ROOT
ATOM      1  N   UNL d   1      57.996   0.649  31.226  0.00  0.00    -0.289 N 
ATOM      2  N   UNL d   1      58.838   0.623  30.170  0.00  0.00    -0.227 NA
ATOM      3  C   UNL d   1      58.031   0.627  30.393  0.00  0.00     0.148 A 
ATOM      4  C   UNL d   1      58.778   0.657  31.521  0.00  0.00     0.083 A 
ATOM      5  C   UNL d   1      59.300   0.641  30.868  0.00  0.00     0.099 A 
ATOM      6  C   UNL d   1      59.096   0.678  32.291  0.00  0.00     0.019 A 
ATOM      7  C   UNL d   1      60.117   0.645  30.985  0.00  0.00     0.021 A 
ATOM      8  C   UNL d   1      59.915   0.682  32.409  0.00  0.00     0.002 A 
ATOM      9  C   UNL d   1      60.425   0.665  31.758  0.00  0.00     0.002 A 
ENDROOT
BRANCH   1  10
ATOM     10  C   UNL d   1      57.313   0.660  31.690  0.00  0.00     0.083 C 
BRANCH  10  11
ATOM     11  C   UNL d   1      56.958  -0.035  31.924  0.00  0.00     0.040 A 
ATOM     12  C   UNL d   1      56.506  -0.051  32.604  0.00  0.00     0.096 A 
ATOM     13  C   UNL d   1      56.147  -0.754  32.843  0.00  0.00     0.024 A 
ATOM     14  C   UNL d   1      56.243  -1.441  32.394  0.00  0.00     0.002 A 
ATOM     15  C   UNL d   1      56.699  -1.423  31.709  0.00  0.00     0.000 A 
ATOM     16  C   UNL d   1      57.057  -0.718  31.474  0.00  0.00     0.004 A 
BRANCH  12  17
ATOM     17  O   UNL d   1      56.410   0.629  33.049  0.00  0.00    -0.328 OA
ATOM     18  C   UNL d   1      55.804   0.680  33.610  0.00  0.00     0.181 C 
ENDBRANCH  12  17
ENDBRANCH  10  11
ENDBRANCH   1  10
BRANCH   3  19
ATOM     19  C   UNL d   1      57.387   0.614  29.880  0.00  0.00     0.037 C 
ATOM     20  C   UNL d   1      57.511   0.667  29.067  0.00  0.00     0.003 C 
ENDBRANCH   3  19
TORSDOF 4
ENDMDL
MODEL 2
REMARK VINA RESULT:      -1.8      1.747      2.990
REMARK  4 active torsions:
REMARK  status: ('A' for Active; 'I' for Inactive)
REMARK    1  A    between atoms: C_5  and  N_1 
REMARK    2  A    between atoms: C_9  and  C_3 
REMARK    3  A    between atoms: C_7  and  C_5 
REMARK    4  A    between atoms: O_10  and  C_8 
ROOT
ATOM      1  N   UNL d   1      56.186  -0.285  32.467  0.00  0.00    -0.289 N 
ATOM      2  N   UNL d   1      56.717  -1.425  31.973  0.00  0.00    -0.227 NA
ATOM      3  C   UNL d   1      56.193  -1.115  32.549  0.00  0.00     0.148 A 
ATOM      4  C   UNL d   1      56.704  -0.078  31.844  0.00  0.00     0.083 A 
ATOM      5  C   UNL d   1      57.033  -0.783  31.538  0.00  0.00     0.099 A 
ATOM      6  C   UNL d   1      56.926   0.651  31.508  0.00  0.00     0.019 A 
ATOM      7  C   UNL d   1      57.569  -0.756  30.912  0.00  0.00     0.021 A 
ATOM      8  C   UNL d   1      57.464   0.679  30.880  0.00  0.00     0.002 A 
ATOM      9  C   UNL d   1      57.785  -0.023  30.582  0.00  0.00     0.002 A 
ENDROOT
BRANCH   1  10
ATOM     10  C   UNL d   1      55.748   0.249  32.919  0.00  0.00     0.083 C 
BRANCH  10  11
ATOM     11  C   UNL d   1      55.924   0.372  33.706  0.00  0.00     0.040 A 
ATOM     12  C   UNL d   1      55.327   0.554  34.232  0.00  0.00     0.096 A 
ATOM     13  C   UNL d   1      55.504   0.679  35.028  0.00  0.00     0.024 A 
ATOM     14  C   UNL d   1      56.284   0.618  35.292  0.00  0.00     0.002 A 
ATOM     15  C   UNL d   1      56.885   0.434  34.760  0.00  0.00     0.000 A 
ATOM     16  C   UNL d   1      56.704   0.311  33.966  0.00  0.00     0.004 A 
BRANCH  12  17
ATOM     17  O   UNL d   1      54.554   0.614  33.971  0.00  0.00    -0.328 OA
ATOM     18  C   UNL d   1      53.931   0.668  34.513  0.00  0.00     0.181 C 
ENDBRANCH  12  17
ENDBRANCH  10  11
ENDBRANCH   1  10
BRANCH   3  19
ATOM     19  C   UNL d   1      55.762  -1.554  33.096  0.00  0.00     0.037 C 
ATOM     20  C   UNL d   1      55.353  -2.226  32.851  0.00  0.00     0.003 C 
ENDBRANCH   3  19
TORSDOF 4
ENDMDL
MODEL 3
REMARK VINA RESULT:      -1.2      1.681      3.308
REMARK  4 active torsions:
REMARK  status: ('A' for Active; 'I' for Inactive)
REMARK    1  A    between atoms: C_5  and  N_1 
REMARK    2  A    between atoms: C_9  and  C_3 
REMARK    3  A    between atoms: C_7  and  C_5 
REMARK    4  A    between atoms: O_10  and  C_8 
ROOT
ATOM      1  N   UNL d   1      56.420   0.644  33.246  0.00  0.00    -0.289 N 
ATOM      2  N   UNL d   1      55.743   0.641  34.415  0.00  0.00    -0.227 NA
ATOM      3  C   UNL d   1      55.656   0.635  33.582  0.00  0.00     0.148 A 
ATOM      4  C   UNL d   1      56.979   0.656  33.866  0.00  0.00     0.083 A 
ATOM      5  C   UNL d   1      56.561   0.654  34.590  0.00  0.00     0.099 A 
ATOM      6  C   UNL d   1      57.812   0.669  33.881  0.00  0.00     0.019 A 
ATOM      7  C   UNL d   1      56.967   0.664  35.308  0.00  0.00     0.021 A 
ATOM      8  C   UNL d   1      58.221   0.679  34.601  0.00  0.00     0.002 A 
ATOM      9  C   UNL d   1      57.800   0.677  35.313  0.00  0.00     0.002 A 
ENDROOT
BRANCH   1  10
ATOM     10  C   UNL d   1      56.602   0.642  32.440  0.00  0.00     0.083 C 
BRANCH  10  11
ATOM     11  C   UNL d   1      56.751  -0.058  32.049  0.00  0.00     0.040 A 
ATOM     12  C   UNL d   1      57.209  -0.055  31.374  0.00  0.00     0.096 A 
ATOM     13  C   UNL d   1      57.360  -0.762  30.977  0.00  0.00     0.024 A 
ATOM     14  C   UNL d   1      57.049  -1.472  31.263  0.00  0.00     0.002 A 
ATOM     15  C   UNL d   1      56.587  -1.472  31.945  0.00  0.00     0.000 A 
ATOM     16  C   UNL d   1      56.439  -0.763  32.338  0.00  0.00     0.004 A 
BRANCH  12  17
ATOM     17  O   UNL d   1      57.518   0.647  31.089  0.00  0.00    -0.328 OA
ATOM     18  C   UNL d   1      58.212   0.648  30.639  0.00  0.00     0.181 C 
ENDBRANCH  12  17
ENDBRANCH  10  11
ENDBRANCH   1  10
BRANCH   3  19
ATOM     19  C   UNL d   1      54.944   0.622  33.169  0.00  0.00     0.037 C 
ATOM     20  C   UNL d   1      54.232   0.599  33.583  0.00  0.00     0.003 C 
ENDBRANCH   3  19
TORSDOF 4
ENDMDL
MODEL 4
REMARK VINA RESULT:      -0.7      1.487      3.539
REMARK  4 active torsions:
REMARK  status: ('A' for Active; 'I' for Inactive)
REMARK    1  A    between atoms: C_5  and  N_1 
REMARK    2  A    between atoms: C_9  and  C_3 
REMARK    3  A    between atoms: C_7  and  C_5 
REMARK    4  A    between atoms: O_10  and  C_8 
ROOT
ATOM      1  N   UNL d   1      57.466  -0.314  30.923  0.00  0.00    -0.289 N 
ATOM      2  N   UNL d   1      57.024  -1.498  31.401  0.00  0.00    -0.227 NA
ATOM      3  C   UNL d   1      57.488  -1.140  30.803  0.00  0.00     0.148 A 
ATOM      4  C   UNL d   1      56.991  -0.159  31.593  0.00  0.00     0.083 A 
ATOM      5  C   UNL d   1      56.717  -0.891  31.889  0.00  0.00     0.099 A 
ATOM      6  C   UNL d   1      56.765   0.543  31.979  0.00  0.00     0.019 A 
ATOM      7  C   UNL d   1      56.230  -0.917  32.555  0.00  0.00     0.021 A 
ATOM      8  C   UNL d   1      56.276   0.518  32.647  0.00  0.00     0.002 A 
ATOM      9  C   UNL d   1      56.010  -0.210  32.934  0.00  0.00     0.002 A 
ENDROOT
BRANCH   1  10
ATOM     10  C   UNL d   1      57.845   0.259  30.465  0.00  0.00     0.083 C 
BRANCH  10  11
ATOM     11  C   UNL d   1      58.645   0.395  30.546  0.00  0.00     0.040 A 
ATOM     12  C   UNL d   1      59.100   0.544  29.886  0.00  0.00     0.096 A 
ATOM     13  C   UNL d   1      59.910   0.681  29.966  0.00  0.00     0.024 A 
ATOM     14  C   UNL d   1      60.259   0.668  30.714  0.00  0.00     0.002 A 
ATOM     15  C   UNL d   1      59.798   0.517  31.380  0.00  0.00     0.000 A 
ATOM     16  C   UNL d   1      58.990   0.380  31.295  0.00  0.00     0.004 A 
BRANCH  12  17
ATOM     17  O   UNL d   1      58.756   0.558  29.144  0.00  0.00    -0.328 OA
ATOM     18  C   UNL d   1      59.221   0.656  28.467  0.00  0.00     0.181 C 
ENDBRANCH  12  17
ENDBRANCH  10  11
ENDBRANCH   1  10
BRANCH   3  19
ATOM     19  C   UNL d   1      57.893  -1.533  30.204  0.00  0.00     0.037 C 
ATOM     20  C   UNL d   1      57.808  -2.348  30.120  0.00  0.00     0.003 C 
ENDBRANCH   3  19
TORSDOF 4
ENDMDL
MODEL 5
REMARK VINA RESULT:      -0.5      1.478      3.307
REMARK  4 active torsions:
REMARK  status: ('A' for Active; 'I' for Inactive)
REMARK    1  A    between atoms: C_5  and  N_1 
REMARK    2  A    between atoms: C_9  and  C_3 
REMARK    3  A    between atoms: C_7  and  C_5 
REMARK    4  A    between atoms: O_10  and  C_8 
ROOT
ATOM      1  N   UNL d   1      57.826   0.398  31.596  0.00  0.00    -0.289 N 
ATOM      2  N   UNL d   1      58.165   0.369  32.903  0.00  0.00    -0.227 NA
ATOM      3  C   UNL d   1      58.472   0.397  32.124  0.00  0.00     0.148 A 
ATOM      4  C   UNL d   1      57.121   0.372  32.043  0.00  0.00     0.083 A 
ATOM      5  C   UNL d   1      57.329   0.354  32.852  0.00  0.00     0.099 A 
ATOM      6  C   UNL d   1      56.315   0.362  31.834  0.00  0.00     0.019 A 
ATOM      7  C   UNL d   1      56.746   0.326  33.435  0.00  0.00     0.021 A 
ATOM      8  C   UNL d   1      55.728   0.334  32.417  0.00  0.00     0.002 A 
ATOM      9  C   UNL d   1      55.942   0.316  33.215  0.00  0.00     0.002 A 
ENDROOT
BRANCH   1  10
ATOM     10  C   UNL d   1      57.867   0.422  30.771  0.00  0.00     0.083 C 
BRANCH  10  11
ATOM     11  C   UNL d   1      58.016  -0.255  30.342  0.00  0.00     0.040 A 
ATOM     12  C   UNL d   1      58.328  -0.199  29.591  0.00  0.00     0.096 A 
ATOM     13  C   UNL d   1      58.480  -0.883  29.156  0.00  0.00     0.024 A 
ATOM     14  C   UNL d   1      58.315  -1.624  29.480  0.00  0.00     0.002 A 
ATOM     15  C   UNL d   1      57.999  -1.679  30.239  0.00  0.00     0.000 A 
ATOM     16  C   UNL d   1      57.850  -0.993  30.670  0.00  0.00     0.004 A 
BRANCH  12  17
ATOM     17  O   UNL d   1      58.492   0.535  29.268  0.00  0.00    -0.328 OA
ATOM     18  C   UNL d   1      58.350   0.682  28.466  0.00  0.00     0.181 C 
ENDBRANCH  12  17
ENDBRANCH  10  11
ENDBRANCH   1  10
BRANCH   3  19
ATOM     19  C   UNL d   1      59.268   0.418  31.919  0.00  0.00     0.037 C 
ATOM     20  C   UNL d   1      59.829   0.652  32.476  0.00  0.00     0.003 C 
ENDBRANCH   3  19
TORSDOF 4
ENDMDL
MODEL 6
REMARK VINA RESULT:       0.3      8.955     10.110
REMARK  4 active torsions:
REMARK  status: ('A' for Active; 'I' for Inactive)
REMARK    1  A    between atoms: C_5  and  N_1 
REMARK    2  A    between atoms: C_9  and  C_3 
REMARK    3  A    between atoms: C_7  and  C_5 
REMARK    4  A    between atoms: O_10  and  C_8 
ROOT
ATOM      1  N   UNL d   1      59.709  -8.889  35.179  0.00  0.00    -0.289 N 
ATOM      2  N   UNL d   1      59.069  -8.408  36.267  0.00  0.00    -0.227 NA
ATOM      3  C   UNL d   1      59.135  -9.069  35.757  0.00  0.00     0.148 A 
ATOM      4  C   UNL d   1      59.999  -8.119  35.328  0.00  0.00     0.083 A 
ATOM      5  C   UNL d   1      59.604  -7.821  36.001  0.00  0.00     0.099 A 
ATOM      6  C   UNL d   1      60.568  -7.643  34.950  0.00  0.00     0.019 A 
ATOM      7  C   UNL d   1      59.775  -7.066  36.287  0.00  0.00     0.021 A 
ATOM      8  C   UNL d   1      60.740  -6.885  35.235  0.00  0.00     0.002 A 
ATOM      9  C   UNL d   1      60.345  -6.597  35.902  0.00  0.00     0.002 A 
ENDROOT
BRANCH   1  10
ATOM     10  C   UNL d   1      59.955  -9.379  34.561  0.00  0.00     0.083 C 
BRANCH  10  11
ATOM     11  C   UNL d   1      59.529  -9.419  33.867  0.00  0.00     0.040 A 
ATOM     12  C   UNL d   1      59.916  -9.552  33.161  0.00  0.00     0.096 A 
ATOM     13  C   UNL d   1      59.486  -9.593  32.458  0.00  0.00     0.024 A 
ATOM     14  C   UNL d   1      58.666  -9.499  32.468  0.00  0.00     0.002 A 
ATOM     15  C   UNL d   1      58.277  -9.365  33.182  0.00  0.00     0.000 A 
ATOM     16  C   UNL d   1      58.710  -9.325  33.882  0.00  0.00     0.004 A 
BRANCH  12  17
ATOM     17  O   UNL d   1      60.729  -9.645  33.149  0.00  0.00    -0.328 OA
ATOM     18  C   UNL d   1      61.121  -9.813  32.440  0.00  0.00     0.181 C 
ENDBRANCH  12  17
ENDBRANCH  10  11
ENDBRANCH   1  10
BRANCH   3  19
ATOM     19  C   UNL d   1      58.708  -9.770  35.816  0.00  0.00     0.037 C 
ATOM     20  C   UNL d   1      58.064  -9.815  36.328  0.00  0.00     0.003 C 
ENDBRANCH   3  19
TORSDOF 4
ENDMDL
MODEL 7
REMARK VINA RESULT:       0.5      8.981     10.104
REMARK  4 active torsions:
REMARK  status: ('A' for Active; 'I' for Inactive)
REMARK    1  A    between atoms: C_5  and  N_1 
REMARK    2  A    between atoms: C_9  and  C_3 
REMARK    3  A    between atoms: C_7  and  C_5 
REMARK    4  A    between atoms: O_10  and  C_8 
ROOT
ATOM      1  N   UNL d   1      59.175  -9.751  32.919  0.00  0.00    -0.289 N 
ATOM      2  N   UNL d   1      58.651  -9.697  31.675  0.00  0.00    -0.227 NA
ATOM      3  C   UNL d   1      58.460  -9.730  32.490  0.00  0.00     0.148 A 
ATOM      4  C   UNL d   1      59.809  -9.731  32.374  0.00  0.00     0.083 A 
ATOM      5  C   UNL d   1      59.485  -9.698  31.604  0.00  0.00     0.099 A 
ATOM      6  C   UNL d   1      60.637  -9.739  32.464  0.00  0.00     0.019 A 
ATOM      7  C   UNL d   1      59.978  -9.673  30.943  0.00  0.00     0.021 A 
ATOM      8  C   UNL d   1      61.133  -9.714  31.802  0.00  0.00     0.002 A 
ATOM      9  C   UNL d   1      60.805  -9.681  31.043  0.00  0.00     0.002 A 
ENDROOT
BRANCH   1  10
ATOM     10  C   UNL d   1      59.255  -9.785  33.740  0.00  0.00     0.083 C 
BRANCH  10  11
ATOM     11  C   UNL d   1      59.237  -9.105  34.189  0.00  0.00     0.040 A 
ATOM     12  C   UNL d   1      59.512  -9.118  34.957  0.00  0.00     0.096 A 
ATOM     13  C   UNL d   1      59.494  -8.430  35.412  0.00  0.00     0.024 A 
ATOM     14  C   UNL d   1      59.198  -7.729  35.091  0.00  0.00     0.002 A 
ATOM     15  C   UNL d   1      58.921  -7.718  34.315  0.00  0.00     0.000 A 
ATOM     16  C   UNL d   1      58.941  -8.408  33.865  0.00  0.00     0.004 A 
BRANCH  12  17
ATOM     17  O   UNL d   1      59.805  -9.812  35.277  0.00  0.00    -0.328 OA
ATOM     18  C   UNL d   1      60.448  -9.795  35.797  0.00  0.00     0.181 C 
ENDBRANCH  12  17
ENDBRANCH  10  11
ENDBRANCH   1  10
BRANCH   3  19
ATOM     19  C   UNL d   1      57.702  -9.739  32.809  0.00  0.00     0.037 C 
ATOM     20  C   UNL d   1      57.049  -9.818  32.312  0.00  0.00     0.003 C 
ENDBRANCH   3  19
TORSDOF 4
ENDMDL
