MODEL 1
REMARK VINA RESULT:      46.8      0.000      0.000
REMARK  7 active torsions:
REMARK  status: ('A' for Active; 'I' for Inactive)
REMARK    1  A    between atoms: C_6  and  N_1 
REMARK    2  A    between atoms: C_12  and  C_6 
REMARK    3  A    between atoms: C_7  and  C_8 
REMARK    4  A    between atoms: C_22  and  C_7 
REMARK    5  A    between atoms: C_15  and  C_12 
REMARK    6  A    between atoms: O_13  and  C_15 
REMARK    7  A    between atoms: C_14  and  O_13 
ROOT
ATOM      1  C   UNL d   1     -49.831  27.203  34.145  0.00  0.00     0.238 C 
ATOM      2  O   UNL d   1     -50.249  27.024  34.835  0.00  0.00    -0.283 OA
ENDROOT
BRANCH   1   3
ATOM      3  C   UNL d   1     -50.079  26.900  33.417  0.00  0.00     0.126 C 
BRANCH   3   4
ATOM      4  N   UNL d   1     -50.763  26.427  33.385  0.00  0.00    -0.286 N 
ATOM      5  C   UNL d   1     -51.544  26.711  33.370  0.00  0.00     0.148 A 
ATOM      6  N   UNL d   1     -52.053  26.054  33.337  0.00  0.00    -0.227 NA
ATOM      7  C   UNL d   1     -51.777  27.500  33.383  0.00  0.00     0.041 C 
ATOM      8  C   UNL d   1     -51.592  25.372  33.333  0.00  0.00     0.099 A 
ATOM      9  C   UNL d   1     -50.791  25.606  33.363  0.00  0.00     0.083 A 
ATOM     10  C   UNL d   1     -51.786  24.580  33.307  0.00  0.00     0.021 A 
ATOM     11  C   UNL d   1     -50.198  25.027  33.365  0.00  0.00     0.019 A 
ATOM     12  C   UNL d   1     -50.403  24.225  33.338  0.00  0.00     0.002 A 
ATOM     13  C   UNL d   1     -51.197  24.005  33.309  0.00  0.00     0.002 A 
ENDBRANCH   3   4
ENDBRANCH   1   3
BRANCH   1  14
ATOM     14  C   UNL d   1     -49.157  27.692  34.190  0.00  0.00     0.166 C 
BRANCH  14  15
ATOM     15  O   UNL d   1     -48.820  27.872  34.951  0.00  0.00    -0.302 OA
BRANCH  15  16
ATOM     16  C   UNL d   1     -48.443  28.602  35.096  0.00  0.00     0.100 A 
ATOM     17  C   UNL d   1     -48.388  28.893  35.862  0.00  0.00     0.025 A 
ATOM     18  C   UNL d   1     -48.012  29.617  36.003  0.00  0.00     0.005 A 
ATOM     19  C   UNL d   1     -47.699  30.039  35.382  0.00  0.00     0.039 A 
ATOM     20  C   UNL d   1     -47.757  29.742  34.611  0.00  0.00     0.005 A 
ATOM     21  C   UNL d   1     -48.130  29.024  34.476  0.00  0.00     0.025 A 
BRANCH  19  22
ATOM     22  C   UNL d   1     -47.325  30.760  35.519  0.00  0.00     0.196 C 
ATOM     23  O   UNL d   1     -46.923  30.891  36.221  0.00  0.00    -0.287 OA
BRANCH  22  24
ATOM     24  C   UNL d   1     -47.356  31.354  34.946  0.00  0.00     0.042 C 
ATOM     25  C   UNL d   1     -47.087  32.106  35.121  0.00  0.00     0.003 C 
ENDBRANCH  22  24
ENDBRANCH  19  22
ENDBRANCH  15  16
ENDBRANCH  14  15
ENDBRANCH   1  14
TORSDOF 7
ENDMDL
