MODEL 1
REMARK VINA RESULT:      -5.1      0.000      0.000
REMARK  2 active torsions:
REMARK  status: ('A' for Active; 'I' for Inactive)
REMARK       I    between atoms: C_6  and  N_1 
REMARK    1  A    between atoms: C_7  and  C_3 
REMARK    2  A    between atoms: C_8  and  C_4 
ROOT
ATOM      1  N   UNL d   1      57.734   0.301  32.237  0.00  0.00    -0.195 N 
ATOM      2  N   UNL d   1      58.216   0.313  31.583  0.00  0.00    -0.163 NA
ATOM      3  C   UNL d   1      57.750   0.107  30.933  0.00  0.00     0.106 A 
ATOM      4  C   UNL d   1      56.974   0.090  31.997  0.00  0.00     0.088 A 
ATOM      5  C   UNL d   1      56.992  -0.028  31.193  0.00  0.00     0.040 A 
ATOM      6  C   UNL d   1      57.964   0.476  33.040  0.00  0.00     0.281 C 
ATOM      7  O   UNL d   1      57.431   0.443  33.635  0.00  0.00    -0.265 OA
ATOM      8  C   UNL d   1      58.751   0.679  33.184  0.00  0.00     0.068 C 
ENDROOT
BRANCH   3   9
ATOM      9  C   UNL d   1      58.011   0.049  30.153  0.00  0.00     0.058 A 
ATOM     10  C   UNL d   1      58.402  -0.631  29.898  0.00  0.00     0.197 A 
ATOM     11  O   UNL d   1      58.519  -1.228  30.432  0.00  0.00    -0.286 OA
ATOM     12  C   UNL d   1      58.649  -0.664  29.126  0.00  0.00     0.042 A 
ATOM     13  C   UNL d   1      58.530  -0.076  28.616  0.00  0.00     0.003 A 
ATOM     14  C   UNL d   1      58.138   0.603  28.871  0.00  0.00     0.000 A 
ATOM     15  C   UNL d   1      57.880   0.672  29.628  0.00  0.00     0.005 A 
ENDBRANCH   3   9
BRANCH   4  16
ATOM     16  C   UNL d   1      56.315   0.013  32.495  0.00  0.00     0.018 A 
ATOM     17  C   UNL d   1      56.018  -0.720  32.706  0.00  0.00     0.002 A 
ATOM     18  C   UNL d   1      56.403  -1.385  32.400  0.00  0.00     0.000 C 
ATOM     19  C   UNL d   1      55.382  -0.803  33.186  0.00  0.00     0.000 A 
ATOM     20  C   UNL d   1      54.998  -0.138  33.490  0.00  0.00     0.000 A 
ATOM     21  C   UNL d   1      55.269   0.624  33.300  0.00  0.00     0.000 A 
ATOM     22  C   UNL d   1      55.927   0.676  32.802  0.00  0.00     0.002 A 
ENDBRANCH   4  16
TORSDOF 2
ENDMDL
MODEL 2
REMARK VINA RESULT:      -4.2      0.884      3.653
REMARK  2 active torsions:
REMARK  status: ('A' for Active; 'I' for Inactive)
REMARK       I    between atoms: C_6  and  N_1 
REMARK    1  A    between atoms: C_7  and  C_3 
REMARK    2  A    between atoms: C_8  and  C_4 
ROOT
ATOM      1  N   UNL d   1      58.341   0.243  31.469  0.00  0.00    -0.195 N 
ATOM      2  N   UNL d   1      57.886   0.200  32.140  0.00  0.00    -0.163 NA
ATOM      3  C   UNL d   1      57.134  -0.050  31.909  0.00  0.00     0.106 A 
ATOM      4  C   UNL d   1      57.877   0.022  30.824  0.00  0.00     0.088 A 
ATOM      5  C   UNL d   1      57.134  -0.157  31.103  0.00  0.00     0.040 A 
ATOM      6  C   UNL d   1      59.162   0.477  31.425  0.00  0.00     0.281 C 
ATOM      7  O   UNL d   1      59.545   0.495  30.724  0.00  0.00    -0.265 OA
ATOM      8  C   UNL d   1      59.545   0.682  32.127  0.00  0.00     0.068 C 
ENDROOT
BRANCH   3   9
ATOM      9  C   UNL d   1      56.491  -0.170  32.412  0.00  0.00     0.058 A 
ATOM     10  C   UNL d   1      56.189  -0.930  32.521  0.00  0.00     0.197 A 
ATOM     11  O   UNL d   1      56.540  -1.543  32.124  0.00  0.00    -0.286 OA
ATOM     12  C   UNL d   1      55.557  -1.023  33.020  0.00  0.00     0.042 A 
ATOM     13  C   UNL d   1      55.223  -0.419  33.400  0.00  0.00     0.003 A 
ATOM     14  C   UNL d   1      55.526   0.340  33.291  0.00  0.00     0.000 A 
ATOM     15  C   UNL d   1      56.151   0.470  32.805  0.00  0.00     0.005 A 
ENDBRANCH   3   9
BRANCH   4  16
ATOM     16  C   UNL d   1      58.131  -0.009  30.035  0.00  0.00     0.018 A 
ATOM     17  C   UNL d   1      58.277  -0.720  29.658  0.00  0.00     0.002 A 
ATOM     18  C   UNL d   1      58.161  -1.411  30.098  0.00  0.00     0.000 C 
ATOM     19  C   UNL d   1      58.522  -0.760  28.896  0.00  0.00     0.000 A 
ATOM     20  C   UNL d   1      58.638  -0.069  28.459  0.00  0.00     0.000 A 
ATOM     21  C   UNL d   1      58.500   0.673  28.804  0.00  0.00     0.000 A 
ATOM     22  C   UNL d   1      58.248   0.680  29.592  0.00  0.00     0.002 A 
ENDBRANCH   4  16
TORSDOF 2
ENDMDL
MODEL 3
REMARK VINA RESULT:      -4.0      1.446      4.142
REMARK  2 active torsions:
REMARK  status: ('A' for Active; 'I' for Inactive)
REMARK       I    between atoms: C_6  and  N_1 
REMARK    1  A    between atoms: C_7  and  C_3 
REMARK    2  A    between atoms: C_8  and  C_4 
ROOT
ATOM      1  N   UNL d   1      58.076   0.213  29.926  0.00  0.00    -0.195 N 
ATOM      2  N   UNL d   1      57.384   0.219  30.352  0.00  0.00    -0.163 NA
ATOM      3  C   UNL d   1      57.566  -0.038  31.115  0.00  0.00     0.106 A 
ATOM      4  C   UNL d   1      58.684  -0.046  30.418  0.00  0.00     0.088 A 
ATOM      5  C   UNL d   1      58.362  -0.199  31.150  0.00  0.00     0.040 A 
ATOM      6  C   UNL d   1      58.170   0.434  29.106  0.00  0.00     0.281 C 
ATOM      7  O   UNL d   1      58.886   0.401  28.753  0.00  0.00    -0.265 OA
ATOM      8  C   UNL d   1      57.500   0.682  28.691  0.00  0.00     0.068 C 
ENDROOT
BRANCH   3   9
ATOM      9  C   UNL d   1      57.029  -0.118  31.736  0.00  0.00     0.058 A 
ATOM     10  C   UNL d   1      56.674  -0.848  31.884  0.00  0.00     0.197 A 
ATOM     11  O   UNL d   1      56.867  -1.472  31.405  0.00  0.00    -0.286 OA
ATOM     12  C   UNL d   1      56.150  -0.901  32.500  0.00  0.00     0.042 A 
ATOM     13  C   UNL d   1      55.970  -0.287  32.959  0.00  0.00     0.003 A 
ATOM     14  C   UNL d   1      56.325   0.443  32.812  0.00  0.00     0.000 A 
ATOM     15  C   UNL d   1      56.849   0.533  32.210  0.00  0.00     0.005 A 
ENDBRANCH   3   9
BRANCH   4  16
ATOM     16  C   UNL d   1      59.479  -0.133  30.199  0.00  0.00     0.018 A 
ATOM     17  C   UNL d   1      60.083   0.226  30.620  0.00  0.00     0.002 A 
ATOM     18  C   UNL d   1      59.867   0.682  31.276  0.00  0.00     0.000 C 
ATOM     19  C   UNL d   1      60.853   0.149  30.416  0.00  0.00     0.000 A 
ATOM     20  C   UNL d   1      61.067  -0.306  29.760  0.00  0.00     0.000 A 
ATOM     21  C   UNL d   1      60.485  -0.687  29.307  0.00  0.00     0.000 A 
ATOM     22  C   UNL d   1      59.699  -0.587  29.544  0.00  0.00     0.002 A 
ENDBRANCH   4  16
TORSDOF 2
ENDMDL
MODEL 4
REMARK VINA RESULT:      -2.3      1.733      3.036
REMARK  2 active torsions:
REMARK  status: ('A' for Active; 'I' for Inactive)
REMARK       I    between atoms: C_6  and  N_1 
REMARK    1  A    between atoms: C_7  and  C_3 
REMARK    2  A    between atoms: C_8  and  C_4 
ROOT
ATOM      1  N   UNL d   1      58.208  -0.344  29.495  0.00  0.00    -0.195 N 
ATOM      2  N   UNL d   1      58.695  -0.781  29.013  0.00  0.00    -0.163 NA
ATOM      3  C   UNL d   1      59.078  -1.334  29.492  0.00  0.00     0.106 A 
ATOM      4  C   UNL d   1      58.286  -0.622  30.267  0.00  0.00     0.088 A 
ATOM      5  C   UNL d   1      58.824  -1.232  30.257  0.00  0.00     0.040 A 
ATOM      6  C   UNL d   1      57.697   0.297  29.254  0.00  0.00     0.281 C 
ATOM      7  O   UNL d   1      57.244   0.682  29.788  0.00  0.00    -0.265 OA
ATOM      8  C   UNL d   1      57.686   0.506  28.455  0.00  0.00     0.068 C 
ENDROOT
BRANCH   3   9
ATOM      9  C   UNL d   1      59.626  -1.895  29.236  0.00  0.00     0.058 A 
ATOM     10  C   UNL d   1      59.385  -2.670  29.090  0.00  0.00     0.197 A 
ATOM     11  O   UNL d   1      58.605  -2.858  29.205  0.00  0.00    -0.286 OA
ATOM     12  C   UNL d   1      59.942  -3.203  28.838  0.00  0.00     0.042 A 
ATOM     13  C   UNL d   1      60.697  -3.009  28.730  0.00  0.00     0.003 A 
ATOM     14  C   UNL d   1      60.938  -2.234  28.876  0.00  0.00     0.000 A 
ATOM     15  C   UNL d   1      60.414  -1.679  29.126  0.00  0.00     0.005 A 
ENDBRANCH   3   9
BRANCH   4  16
ATOM     16  C   UNL d   1      57.883  -0.326  30.930  0.00  0.00     0.018 A 
ATOM     17  C   UNL d   1      58.220   0.233  31.423  0.00  0.00     0.002 A 
ATOM     18  C   UNL d   1      58.983   0.493  31.234  0.00  0.00     0.000 C 
ATOM     19  C   UNL d   1      57.840   0.524  32.065  0.00  0.00     0.000 A 
ATOM     20  C   UNL d   1      57.079   0.263  32.252  0.00  0.00     0.000 A 
ATOM     21  C   UNL d   1      56.701  -0.304  31.777  0.00  0.00     0.000 A 
ATOM     22  C   UNL d   1      57.121  -0.584  31.122  0.00  0.00     0.002 A 
ENDBRANCH   4  16
TORSDOF 2
ENDMDL
