MODEL 1
REMARK VINA RESULT:       0.6      0.000      0.000
REMARK  4 active torsions:
REMARK  status: ('A' for Active; 'I' for Inactive)
REMARK    1  A    between atoms: C_3  and  C_14 
REMARK    2  A    between atoms: C_21  and  C_4 
REMARK    3  A    between atoms: S_15  and  C_5 
REMARK    4  A    between atoms: C_14  and  S_15 
ROOT
ATOM      1  C   UNL d   1      32.845  20.323 -21.809  0.00  0.00     0.092 A 
ATOM      2  C   UNL d   1      33.015  21.647 -22.306  0.00  0.00     0.057 A 
ATOM      3  C   UNL d   1      32.969  21.126 -21.671  0.00  0.00     0.016 A 
ATOM      4  C   UNL d   1      32.766  20.045 -22.582  0.00  0.00     0.120 A 
ATOM      5  N   UNL d   1      32.811  20.557 -23.215  0.00  0.00    -0.239 NA
ATOM      6  C   UNL d   1      32.937  21.367 -23.079  0.00  0.00     0.081 A 
ATOM      7  C   UNL d   1      33.140  22.453 -22.169  0.00  0.00     0.193 A 
ATOM      8  C   UNL d   1      32.798  19.800 -21.173  0.00  0.00     0.103 C 
ATOM      9  N   UNL d   1      32.752  19.276 -20.537  0.00  0.00    -0.191 NA
ATOM     10  C   UNL d   1      33.108  22.696 -23.586  0.00  0.00     0.042 A 
ATOM     11  C   UNL d   1      33.188  22.985 -22.806  0.00  0.00     0.019 A 
ATOM     12  C   UNL d   1      32.982  21.889 -23.727  0.00  0.00    -0.003 A 
ATOM     13  O   UNL d   1      33.219  22.732 -21.394  0.00  0.00    -0.287 OA
ATOM     14  C   UNL d   1      33.059  22.634 -24.404  0.00  0.00     0.009 C 
ATOM     15  C   UNL d   1      33.233  23.501 -23.440  0.00  0.00     0.009 C 
ENDROOT
BRANCH   3  16
ATOM     16  C   UNL d   1      33.047  21.406 -20.897  0.00  0.00     0.001 C 
ATOM     17  C   UNL d   1      32.377  21.628 -20.482  0.00  0.00     0.000 C 
ENDBRANCH   3  16
BRANCH   4  18
ATOM     18  S   UNL d   1      32.642  19.239 -22.715  0.00  0.00    -0.067 SA
BRANCH  18  19
ATOM     19  C   UNL d   1      32.588  18.957 -23.489  0.00  0.00     0.041 C 
BRANCH  19  20
ATOM     20  C   UNL d   1      32.363  18.177 -23.631  0.00  0.00     0.051 A 
ATOM     21  C   UNL d   1      32.696  17.542 -23.427  0.00  0.00     0.127 A 
ATOM     22  O   UNL d   1      32.340  16.855 -23.649  0.00  0.00    -0.211 OA
ATOM     23  C   UNL d   1      33.240  17.151 -23.091  0.00  0.00     0.029 C 
ATOM     24  N   UNL d   1      31.686  17.125 -24.052  0.00  0.00    -0.126 NA
ATOM     25  C   UNL d   1      31.695  17.941 -24.044  0.00  0.00     0.111 A 
ATOM     26  C   UNL d   1      31.140  18.437 -24.386  0.00  0.00     0.023 C 
ENDBRANCH  19  20
ENDBRANCH  18  19
ENDBRANCH   4  18
TORSDOF 4
ENDMDL
