MODEL 1
REMARK VINA RESULT:      -2.3      0.000      0.000
REMARK  5 active torsions:
REMARK  status: ('A' for Active; 'I' for Inactive)
REMARK    1  A    between atoms: C_4  and  N_1 
REMARK    2  A    between atoms: C_9  and  C_2 
REMARK    3  A    between atoms: C_14  and  C_6 
REMARK    4  A    between atoms: C_7  and  C_9 
REMARK    5  A    between atoms: O_26  and  C_22 
ROOT
ATOM      1  N   UNL d   1      30.548  16.931 -24.400  0.00  0.00    -0.254 N 
ATOM      2  C   UNL d   1      31.579  17.775 -24.521  0.00  0.00     0.101 A 
ATOM      3  C   UNL d   1      30.251  17.660 -24.649  0.00  0.00     0.305 A 
ATOM      4  C   UNL d   1      30.886  18.186 -24.725  0.00  0.00     0.256 A 
ATOM      5  C   UNL d   1      31.370  17.002 -24.321  0.00  0.00     0.081 A 
ATOM      6  O   UNL d   1      29.459  17.843 -24.798  0.00  0.00    -0.263 OA
ATOM      7  O   UNL d   1      30.837  18.980 -24.963  0.00  0.00    -0.281 OA
ENDROOT
BRANCH   2   8
ATOM      8  C   UNL d   1      32.344  18.091 -24.521  0.00  0.00     0.223 C 
ATOM      9  O   UNL d   1      32.907  17.805 -25.044  0.00  0.00    -0.284 OA
BRANCH   8  10
ATOM     10  C   UNL d   1      32.543  18.695 -23.993  0.00  0.00     0.139 A 
ATOM     11  O   UNL d   1      32.740  19.470 -24.197  0.00  0.00    -0.302 OA
ATOM     12  C   UNL d   1      32.898  19.884 -23.497  0.00  0.00     0.122 A 
ATOM     13  C   UNL d   1      33.119  20.663 -23.359  0.00  0.00     0.117 A 
ATOM     14  C   UNL d   1      32.799  19.364 -22.867  0.00  0.00     0.027 A 
ATOM     15  C   UNL d   1      33.241  20.924 -22.589  0.00  0.00     0.026 A 
ATOM     16  C   UNL d   1      33.140  20.400 -21.951  0.00  0.00     0.002 A 
ATOM     17  C   UNL d   1      32.920  19.623 -22.094  0.00  0.00     0.002 A 
ATOM     18  C   UNL d   1      32.580  18.631 -23.171  0.00  0.00     0.030 A 
BRANCH  13  19
ATOM     19  O   UNL d   1      33.219  21.183 -23.990  0.00  0.00    -0.326 OA
ATOM     20  C   UNL d   1      33.185  22.003 -23.864  0.00  0.00     0.181 C 
ENDBRANCH  13  19
ENDBRANCH   8  10
ENDBRANCH   2   8
BRANCH   5  21
ATOM     21  C   UNL d   1      31.891  16.410 -24.085  0.00  0.00     0.046 A 
ATOM     22  S   UNL d   1      32.477  16.067 -24.556  0.00  0.00    -0.085 SA
ATOM     23  C   UNL d   1      32.872  15.499 -24.106  0.00  0.00     0.035 A 
ATOM     24  C   UNL d   1      32.527  15.490 -23.350  0.00  0.00     0.007 A 
ATOM     25  C   UNL d   1      31.924  16.053 -23.344  0.00  0.00     0.009 A 
ENDBRANCH   5  21
BRANCH   1  26
ATOM     26  C   UNL d   1      29.834  16.509 -24.363  0.00  0.00     0.179 A 
ATOM     27  N   UNL d   1      29.430  16.167 -24.999  0.00  0.00    -0.108 NA
ATOM     28  O   UNL d   1      28.744  15.802 -24.707  0.00  0.00    -0.210 OA
ATOM     29  C   UNL d   1      28.723  15.919 -23.879  0.00  0.00     0.128 A 
ATOM     30  C   UNL d   1      29.392  16.353 -23.669  0.00  0.00     0.067 A 
ATOM     31  C   UNL d   1      28.135  15.647 -23.370  0.00  0.00     0.029 C 
ENDBRANCH   1  26
TORSDOF 5
ENDMDL
