MODEL 1
REMARK VINA RESULT:      17.9      0.000      0.000
REMARK  3 active torsions:
REMARK  status: ('A' for Active; 'I' for Inactive)
REMARK    1  A    between atoms: C_4  and  C_1 
REMARK    2  A    between atoms: N_2  and  C_3 
REMARK    3  A    between atoms: C_5  and  N_2 
ROOT
ATOM      1  C   UNL d   1      45.486 -12.878  43.644  0.00  0.00     0.082 A 
ATOM      2  C   UNL d   1      45.884 -13.552  43.934  0.00  0.00     0.087 A 
ATOM      3  C   UNL d   1      45.588 -12.150  44.009  0.00  0.00     0.008 A 
ATOM      4  C   UNL d   1      46.379 -13.477  44.590  0.00  0.00     0.019 A 
ATOM      5  C   UNL d   1      46.090 -12.081  44.671  0.00  0.00     0.000 A 
ATOM      6  C   UNL d   1      46.482 -12.749  44.955  0.00  0.00     0.002 A 
ENDROOT
BRANCH   2   7
ATOM      7  N   UNL d   1      45.782 -14.280  43.569  0.00  0.00    -0.245 NA
BRANCH   7   8
ATOM      8  C   UNL d   1      45.504 -14.938  43.994  0.00  0.00     0.081 A 
ATOM      9  C   UNL d   1      45.835 -15.677  43.891  0.00  0.00     0.018 A 
ATOM     10  C   UNL d   1      45.556 -16.330  44.315  0.00  0.00     0.002 A 
ATOM     11  C   UNL d   1      46.448 -15.766  43.362  0.00  0.00     0.002 C 
ATOM     12  C   UNL d   1      45.885 -17.063  44.213  0.00  0.00     0.000 C 
ATOM     13  C   UNL d   1      44.929 -16.217  44.851  0.00  0.00     0.000 A 
ATOM     14  C   UNL d   1      44.598 -15.478  44.954  0.00  0.00     0.002 A 
ATOM     15  C   UNL d   1      44.879 -14.818  44.526  0.00  0.00     0.019 A 
ENDBRANCH   7   8
ENDBRANCH   2   7
BRANCH   1  16
ATOM     16  C   UNL d   1      44.990 -12.952  42.988  0.00  0.00     0.212 C 
ATOM     17  O   UNL d   1      45.305 -12.998  42.231  0.00  0.00    -0.644 OA
ATOM     18  O   UNL d   1      44.178 -12.981  43.082  0.00  0.00    -0.644 OA
ENDBRANCH   1  16
TORSDOF 3
ENDMDL
