MODEL 1
REMARK VINA RESULT:      -4.6      0.000      0.000
REMARK  5 active torsions:
REMARK  status: ('A' for Active; 'I' for Inactive)
REMARK    1  A    between atoms: C_2  and  N_8 
REMARK    2  A    between atoms: C_14  and  C_4 
REMARK    3  A    between atoms: S_13  and  C_5 
REMARK       I    between atoms: N_8  and  C_11 
REMARK    4  A    between atoms: C_11  and  C_17 
REMARK    5  A    between atoms: C_17  and  S_13 
ROOT
ATOM      1  O   UNL d   1      58.129   0.021  31.027  0.00  0.00    -0.263 OA
ATOM      2  N   UNL d   1      57.008   0.526  30.509  0.00  0.00    -0.120 NA
ATOM      3  C   UNL d   1      57.314   0.129  31.154  0.00  0.00     0.205 A 
ATOM      4  C   UNL d   1      58.311   0.358  30.295  0.00  0.00     0.236 A 
ATOM      5  N   UNL d   1      57.623   0.670  29.975  0.00  0.00    -0.114 NA
ENDROOT
BRANCH   4   6
ATOM      6  S   UNL d   1      59.065   0.384  29.932  0.00  0.00    -0.036 SA
BRANCH   6   7
ATOM      7  C   UNL d   1      59.332  -0.257  29.485  0.00  0.00     0.101 C 
BRANCH   7   8
ATOM      8  C   UNL d   1      60.010  -0.177  29.022  0.00  0.00     0.288 C 
ATOM      9  N   UNL d   1      60.341  -0.837  28.651  0.00  0.00    -0.182 NA
ATOM     10  O   UNL d   1      60.366   0.569  28.924  0.00  0.00    -0.265 OA
BRANCH   9  11
ATOM     11  C   UNL d   1      59.993  -1.570  28.746  0.00  0.00     0.197 A 
ATOM     12  N   UNL d   1      59.277  -1.887  28.455  0.00  0.00    -0.221 NA
ATOM     13  C   UNL d   1      59.221  -2.655  28.735  0.00  0.00     0.090 A 
ATOM     14  C   UNL d   1      58.588  -3.183  28.579  0.00  0.00     0.021 C 
ATOM     15  C   UNL d   1      59.877  -2.822  29.187  0.00  0.00     0.058 A 
ATOM     16  S   UNL d   1      60.353  -2.153  29.194  0.00  0.00    -0.046 SA
ENDBRANCH   9  11
ENDBRANCH   7   8
ENDBRANCH   6   7
ENDBRANCH   4   6
BRANCH   3  17
ATOM     17  C   UNL d   1      56.936  -0.142  31.839  0.00  0.00     0.046 A 
ATOM     18  C   UNL d   1      56.838   0.354  32.491  0.00  0.00     0.024 A 
ATOM     19  C   UNL d   1      56.462   0.081  33.170  0.00  0.00     0.099 A 
ATOM     20  N   UNL d   1      56.177  -0.699  33.200  0.00  0.00    -0.242 NA
ATOM     21  C   UNL d   1      56.276  -1.192  32.545  0.00  0.00     0.099 A 
ATOM     22  C   UNL d   1      56.655  -0.913  31.867  0.00  0.00     0.024 A 
ENDBRANCH   3  17
TORSDOF 5
ENDMDL
MODEL 2
REMARK VINA RESULT:      -3.9      1.233      1.591
REMARK  5 active torsions:
REMARK  status: ('A' for Active; 'I' for Inactive)
REMARK    1  A    between atoms: C_2  and  N_8 
REMARK    2  A    between atoms: C_14  and  C_4 
REMARK    3  A    between atoms: S_13  and  C_5 
REMARK       I    between atoms: N_8  and  C_11 
REMARK    4  A    between atoms: C_11  and  C_17 
REMARK    5  A    between atoms: C_17  and  S_13 
ROOT
ATOM      1  O   UNL d   1      57.054   0.304  31.335  0.00  0.00    -0.263 OA
ATOM      2  N   UNL d   1      57.897   0.439  32.361  0.00  0.00    -0.120 NA
ATOM      3  C   UNL d   1      57.127   0.251  32.162  0.00  0.00     0.205 A 
ATOM      4  C   UNL d   1      57.793   0.526  31.037  0.00  0.00     0.236 A 
ATOM      5  N   UNL d   1      58.312   0.609  31.667  0.00  0.00    -0.114 NA
ENDROOT
BRANCH   4   6
ATOM      6  S   UNL d   1      57.988   0.648  30.232  0.00  0.00    -0.036 SA
BRANCH   6   7
ATOM      7  C   UNL d   1      58.220   0.011  29.761  0.00  0.00     0.101 C 
BRANCH   7   8
ATOM      8  C   UNL d   1      58.144   0.060  28.942  0.00  0.00     0.288 C 
ATOM      9  N   UNL d   1      58.496  -0.507  28.455  0.00  0.00    -0.182 NA
ATOM     10  O   UNL d   1      57.710   0.682  28.598  0.00  0.00    -0.265 OA
BRANCH   9  11
ATOM     11  C   UNL d   1      58.923  -1.118  28.791  0.00  0.00     0.197 A 
ATOM     12  N   UNL d   1      59.658  -1.130  29.186  0.00  0.00    -0.221 NA
ATOM     13  C   UNL d   1      59.803  -1.908  29.401  0.00  0.00     0.090 A 
ATOM     14  C   UNL d   1      60.483  -2.178  29.813  0.00  0.00     0.021 C 
ATOM     15  C   UNL d   1      59.184  -2.374  29.152  0.00  0.00     0.058 A 
ATOM     16  S   UNL d   1      58.640  -1.887  28.776  0.00  0.00    -0.046 SA
ENDBRANCH   9  11
ENDBRANCH   7   8
ENDBRANCH   6   7
ENDBRANCH   4   6
BRANCH   3  17
ATOM     17  C   UNL d   1      56.489   0.040  32.647  0.00  0.00     0.046 A 
ATOM     18  C   UNL d   1      56.239  -0.745  32.696  0.00  0.00     0.024 A 
ATOM     19  C   UNL d   1      55.606  -0.952  33.179  0.00  0.00     0.099 A 
ATOM     20  N   UNL d   1      55.214  -0.367  33.621  0.00  0.00    -0.242 NA
ATOM     21  C   UNL d   1      55.468   0.418  33.569  0.00  0.00     0.099 A 
ATOM     22  C   UNL d   1      56.103   0.619  33.084  0.00  0.00     0.024 A 
ENDBRANCH   3  17
TORSDOF 5
ENDMDL
