MODEL 1
REMARK VINA RESULT:      39.0      0.000      0.000
REMARK  1 active torsions:
REMARK  status: ('A' for Active; 'I' for Inactive)
REMARK    1  A    between atoms: C_11  and  C_2 
ROOT
ATOM      1  C   UNL d   1     -52.528  25.386  33.325  0.00  0.00     0.026 A 
ATOM      2  C   UNL d   1     -51.717  25.367  33.331  0.00  0.00     0.007 A 
ATOM      3  C   UNL d   1     -52.924  26.099  33.313  0.00  0.00     0.103 A 
ATOM      4  C   UNL d   1     -51.285  26.063  33.325  0.00  0.00     0.026 A 
ATOM      5  C   UNL d   1     -52.957  24.679  33.331  0.00  0.00     0.047 A 
ATOM      6  C   UNL d   1     -51.683  26.780  33.313  0.00  0.00     0.103 A 
ATOM      7  O   UNL d   1     -52.513  26.801  33.307  0.00  0.00    -0.307 OA
ATOM      8  C   UNL d   1     -53.744  26.121  33.306  0.00  0.00     0.070 A 
ATOM      9  C   UNL d   1     -53.776  24.681  33.325  0.00  0.00     0.234 A 
ATOM     10  C   UNL d   1     -54.180  25.403  33.313  0.00  0.00     0.236 A 
ATOM     11  C   UNL d   1     -50.464  26.062  33.331  0.00  0.00     0.047 A 
ATOM     12  C   UNL d   1     -51.257  27.501  33.307  0.00  0.00     0.070 A 
ATOM     13  C   UNL d   1     -50.025  26.775  33.325  0.00  0.00     0.234 A 
ATOM     14  C   UNL d   1     -50.435  27.492  33.313  0.00  0.00     0.236 A 
ATOM     15  O   UNL d   1     -54.998  25.397  33.307  0.00  0.00    -0.283 OA
ATOM     16  O   UNL d   1     -54.182  23.971  33.331  0.00  0.00    -0.283 OA
ATOM     17  O   UNL d   1     -49.207  26.767  33.331  0.00  0.00    -0.283 OA
ATOM     18  O   UNL d   1     -50.023  28.206  33.306  0.00  0.00    -0.283 OA
ENDROOT
BRANCH   2  19
ATOM     19  C   UNL d   1     -51.319  24.650  33.343  0.00  0.00     0.039 A 
ATOM     20  C   UNL d   1     -51.753  23.937  33.394  0.00  0.00     0.196 A 
ATOM     21  O   UNL d   1     -52.562  23.941  33.432  0.00  0.00    -0.287 OA
ATOM     22  C   UNL d   1     -51.351  23.214  33.406  0.00  0.00     0.042 A 
ATOM     23  C   UNL d   1     -50.513  23.197  33.367  0.00  0.00     0.003 A 
ATOM     24  C   UNL d   1     -50.097  23.908  33.317  0.00  0.00     0.000 A 
ATOM     25  C   UNL d   1     -50.507  24.626  33.306  0.00  0.00     0.003 A 
ENDBRANCH   2  19
TORSDOF 1
ENDMDL
