MODEL 1
REMARK VINA RESULT:      31.1      0.000      0.000
REMARK  2 active torsions:
REMARK  status: ('A' for Active; 'I' for Inactive)
REMARK    1  A    between atoms: C_6  and  C_1 
REMARK    2  A    between atoms: C_7  and  C_5 
ROOT
ATOM      1  C   UNL d   1     -47.667  32.503  34.029  0.00  0.00     0.169 A 
ATOM      2  C   UNL d   1     -48.066  31.873  33.914  0.00  0.00     0.048 A 
ATOM      3  N   UNL d   1     -47.078  31.942  35.060  0.00  0.00    -0.148 NA
ATOM      4  N   UNL d   1     -47.171  32.543  34.601  0.00  0.00    -0.142 NA
ATOM      5  C   UNL d   1     -47.477  31.313  34.945  0.00  0.00     0.105 A 
ENDROOT
BRANCH   5   6
ATOM      6  C   UNL d   1     -47.526  30.578  35.311  0.00  0.00     0.020 A 
ATOM      7  C   UNL d   1     -48.192  30.099  35.201  0.00  0.00     0.004 A 
ATOM      8  C   UNL d   1     -48.241  29.360  35.570  0.00  0.00     0.030 A 
ATOM      9  C   UNL d   1     -47.621  29.096  36.051  0.00  0.00     0.140 A 
ATOM     10  C   UNL d   1     -46.949  29.581  36.160  0.00  0.00     0.030 A 
ATOM     11  F   UNL d   1     -47.664  28.367  36.416  0.00  0.00    -0.204 F 
ATOM     12  C   UNL d   1     -46.908  30.317  35.789  0.00  0.00     0.004 A 
ENDBRANCH   5   6
BRANCH   1  13
ATOM     13  C   UNL d   1     -47.760  33.104  33.571  0.00  0.00     0.231 C 
ATOM     14  O   UNL d   1     -48.448  33.289  33.323  0.00  0.00    -0.643 OA
ATOM     15  O   UNL d   1     -47.156  33.513  33.367  0.00  0.00    -0.643 OA
ENDBRANCH   1  13
TORSDOF 2
ENDMDL
