MODEL 1
REMARK VINA RESULT:      -8.9      0.000      0.000
REMARK  4 active torsions:
REMARK  status: ('A' for Active; 'I' for Inactive)
REMARK    1  A    between atoms: C_9  and  N_2 
REMARK    2  A    between atoms: C_6  and  C_3 
REMARK    3  A    between atoms: C_8  and  C_4 
REMARK    4  A    between atoms: O_18  and  C_15 
ROOT
ATOM      1  N   UNL d   1      52.312  31.981  53.071  0.00  0.00    -0.165 NA
ATOM      2  N   UNL d   1      52.194  32.822  53.144  0.00  0.00    -0.230 N 
ATOM      3  C   UNL d   1      53.014  31.784  53.449  0.00  0.00     0.109 A 
ATOM      4  C   UNL d   1      52.857  33.105  53.580  0.00  0.00     0.084 A 
ATOM      5  C   UNL d   1      53.352  32.471  53.763  0.00  0.00     0.041 A 
ENDROOT
BRANCH   4   6
ATOM      6  C   UNL d   1      52.997  33.885  53.795  0.00  0.00     0.018 A 
ATOM      7  C   UNL d   1      52.788  34.110  54.560  0.00  0.00     0.004 A 
ATOM      8  C   UNL d   1      52.917  34.880  54.797  0.00  0.00     0.024 A 
ATOM      9  C   UNL d   1      53.250  35.422  54.282  0.00  0.00     0.094 A 
ATOM     10  C   UNL d   1      53.460  35.198  53.516  0.00  0.00     0.024 A 
ATOM     11  C   UNL d   1      53.330  34.422  53.276  0.00  0.00     0.004 A 
BRANCH   9  12
ATOM     12  O   UNL d   1      53.397  36.235  54.503  0.00  0.00    -0.328 OA
ATOM     13  C   UNL d   1      52.874  36.614  55.071  0.00  0.00     0.181 C 
ENDBRANCH   9  12
ENDBRANCH   4   6
BRANCH   2  14
ATOM     14  C   UNL d   1      51.609  33.337  52.889  0.00  0.00     0.083 A 
ATOM     15  C   UNL d   1      51.669  33.758  52.168  0.00  0.00     0.019 A 
ATOM     16  C   UNL d   1      51.061  34.274  51.934  0.00  0.00     0.002 A 
ATOM     17  C   UNL d   1      50.405  34.378  52.395  0.00  0.00     0.000 A 
ATOM     18  C   UNL d   1      50.342  33.960  53.114  0.00  0.00     0.002 A 
ATOM     19  C   UNL d   1      50.946  33.439  53.361  0.00  0.00     0.019 A 
ENDBRANCH   2  14
BRANCH   3  20
ATOM     20  C   UNL d   1      53.030  30.964  53.320  0.00  0.00     0.049 A 
ATOM     21  S   UNL d   1      52.683  30.339  52.918  0.00  0.00    -0.085 SA
ATOM     22  C   UNL d   1      53.076  29.652  53.130  0.00  0.00     0.035 A 
ATOM     23  C   UNL d   1      53.658  29.838  53.654  0.00  0.00     0.007 A 
ATOM     24  C   UNL d   1      53.654  30.647  53.792  0.00  0.00     0.009 A 
ENDBRANCH   3  20
TORSDOF 4
ENDMDL
MODEL 2
REMARK VINA RESULT:      -8.7      1.130      2.435
REMARK  4 active torsions:
REMARK  status: ('A' for Active; 'I' for Inactive)
REMARK    1  A    between atoms: C_9  and  N_2 
REMARK    2  A    between atoms: C_6  and  C_3 
REMARK    3  A    between atoms: C_8  and  C_4 
REMARK    4  A    between atoms: O_18  and  C_15 
ROOT
ATOM      1  N   UNL d   1      53.113  32.339  53.556  0.00  0.00    -0.165 NA
ATOM      2  N   UNL d   1      52.695  33.078  53.488  0.00  0.00    -0.230 N 
ATOM      3  C   UNL d   1      52.658  31.752  53.202  0.00  0.00     0.109 A 
ATOM      4  C   UNL d   1      51.980  32.897  53.081  0.00  0.00     0.084 A 
ATOM      5  C   UNL d   1      51.962  32.090  52.910  0.00  0.00     0.041 A 
ENDROOT
BRANCH   4   6
ATOM      6  C   UNL d   1      51.388  33.431  52.882  0.00  0.00     0.018 A 
ATOM      7  C   UNL d   1      50.760  33.513  53.410  0.00  0.00     0.004 A 
ATOM      8  C   UNL d   1      50.160  34.037  53.235  0.00  0.00     0.024 A 
ATOM      9  C   UNL d   1      50.181  34.475  52.544  0.00  0.00     0.094 A 
ATOM     10  C   UNL d   1      50.808  34.394  52.015  0.00  0.00     0.024 A 
ATOM     11  C   UNL d   1      51.414  33.866  52.191  0.00  0.00     0.004 A 
BRANCH   9  12
ATOM     12  O   UNL d   1      49.566  35.031  52.335  0.00  0.00    -0.328 OA
ATOM     13  C   UNL d   1      49.009  35.284  52.939  0.00  0.00     0.181 C 
ENDBRANCH   9  12
ENDBRANCH   4   6
BRANCH   2  14
ATOM     14  C   UNL d   1      52.858  33.846  53.727  0.00  0.00     0.083 A 
ATOM     15  C   UNL d   1      53.171  34.419  53.203  0.00  0.00     0.019 A 
ATOM     16  C   UNL d   1      53.327  35.189  53.473  0.00  0.00     0.002 A 
ATOM     17  C   UNL d   1      53.181  35.399  54.240  0.00  0.00     0.000 A 
ATOM     18  C   UNL d   1      52.869  34.830  54.764  0.00  0.00     0.002 A 
ATOM     19  C   UNL d   1      52.708  34.052  54.507  0.00  0.00     0.019 A 
ENDBRANCH   2  14
BRANCH   3  20
ATOM     20  C   UNL d   1      53.146  31.091  53.323  0.00  0.00     0.049 A 
ATOM     21  S   UNL d   1      53.910  30.838  53.484  0.00  0.00    -0.085 SA
ATOM     22  C   UNL d   1      53.905  30.019  53.511  0.00  0.00     0.035 A 
ATOM     23  C   UNL d   1      53.157  29.760  53.369  0.00  0.00     0.007 A 
ATOM     24  C   UNL d   1      52.661  30.404  53.248  0.00  0.00     0.009 A 
ENDBRANCH   3  20
TORSDOF 4
ENDMDL
MODEL 3
REMARK VINA RESULT:      -8.2      2.125      4.300
REMARK  4 active torsions:
REMARK  status: ('A' for Active; 'I' for Inactive)
REMARK    1  A    between atoms: C_9  and  N_2 
REMARK    2  A    between atoms: C_6  and  C_3 
REMARK    3  A    between atoms: C_8  and  C_4 
REMARK    4  A    between atoms: O_18  and  C_15 
ROOT
ATOM      1  N   UNL d   1      52.325  33.505  53.211  0.00  0.00    -0.165 NA
ATOM      2  N   UNL d   1      52.889  32.934  53.498  0.00  0.00    -0.230 N 
ATOM      3  C   UNL d   1      51.673  33.100  52.917  0.00  0.00     0.109 A 
ATOM      4  C   UNL d   1      52.538  32.181  53.358  0.00  0.00     0.084 A 
ATOM      5  C   UNL d   1      51.800  32.287  53.005  0.00  0.00     0.041 A 
ENDROOT
BRANCH   4   6
ATOM      6  C   UNL d   1      52.869  31.451  53.540  0.00  0.00     0.018 A 
ATOM      7  C   UNL d   1      53.209  31.026  52.920  0.00  0.00     0.004 A 
ATOM      8  C   UNL d   1      53.544  30.299  53.075  0.00  0.00     0.024 A 
ATOM      9  C   UNL d   1      53.544  29.995  53.835  0.00  0.00     0.094 A 
ATOM     10  C   UNL d   1      53.204  30.420  54.455  0.00  0.00     0.024 A 
ATOM     11  C   UNL d   1      52.865  31.154  54.300  0.00  0.00     0.004 A 
BRANCH   9  12
ATOM     12  O   UNL d   1      53.888  29.236  54.026  0.00  0.00    -0.328 OA
ATOM     13  C   UNL d   1      53.492  28.730  54.597  0.00  0.00     0.181 C 
ENDBRANCH   9  12
ENDBRANCH   4   6
BRANCH   2  14
ATOM     14  C   UNL d   1      53.629  32.993  53.846  0.00  0.00     0.083 A 
ATOM     15  C   UNL d   1      54.336  32.953  53.401  0.00  0.00     0.019 A 
ATOM     16  C   UNL d   1      55.073  33.016  53.780  0.00  0.00     0.002 A 
ATOM     17  C   UNL d   1      55.120  33.116  54.581  0.00  0.00     0.000 A 
ATOM     18  C   UNL d   1      54.417  33.156  55.028  0.00  0.00     0.002 A 
ATOM     19  C   UNL d   1      53.670  33.094  54.660  0.00  0.00     0.019 A 
ENDBRANCH   2  14
BRANCH   3  20
ATOM     20  C   UNL d   1      51.200  33.736  52.670  0.00  0.00     0.049 A 
ATOM     21  S   UNL d   1      51.168  34.413  52.208  0.00  0.00    -0.085 SA
ATOM     22  C   UNL d   1      50.423  34.743  52.292  0.00  0.00     0.035 A 
ATOM     23  C   UNL d   1      49.994  34.285  52.796  0.00  0.00     0.007 A 
ATOM     24  C   UNL d   1      50.450  33.651  53.048  0.00  0.00     0.009 A 
ENDBRANCH   3  20
TORSDOF 4
ENDMDL
MODEL 4
REMARK VINA RESULT:      -7.8      1.547      2.768
REMARK  4 active torsions:
REMARK  status: ('A' for Active; 'I' for Inactive)
REMARK    1  A    between atoms: C_9  and  N_2 
REMARK    2  A    between atoms: C_6  and  C_3 
REMARK    3  A    between atoms: C_8  and  C_4 
REMARK    4  A    between atoms: O_18  and  C_15 
ROOT
ATOM      1  N   UNL d   1      53.759  30.982  54.138  0.00  0.00    -0.165 NA
ATOM      2  N   UNL d   1      53.603  31.809  54.001  0.00  0.00    -0.230 N 
ATOM      3  C   UNL d   1      53.162  30.543  53.782  0.00  0.00     0.109 A 
ATOM      4  C   UNL d   1      52.891  31.831  53.550  0.00  0.00     0.084 A 
ATOM      5  C   UNL d   1      52.627  31.061  53.420  0.00  0.00     0.041 A 
ENDROOT
BRANCH   4   6
ATOM      6  C   UNL d   1      52.512  32.508  53.279  0.00  0.00     0.018 A 
ATOM      7  C   UNL d   1      51.882  32.793  53.729  0.00  0.00     0.004 A 
ATOM      8  C   UNL d   1      51.489  33.464  53.481  0.00  0.00     0.024 A 
ATOM      9  C   UNL d   1      51.717  33.848  52.794  0.00  0.00     0.094 A 
ATOM     10  C   UNL d   1      52.347  33.563  52.345  0.00  0.00     0.024 A 
ATOM     11  C   UNL d   1      52.744  32.887  52.594  0.00  0.00     0.004 A 
BRANCH   9  12
ATOM     12  O   UNL d   1      51.324  34.552  52.511  0.00  0.00    -0.328 OA
ATOM     13  C   UNL d   1      50.466  34.592  52.542  0.00  0.00     0.181 C 
ENDBRANCH   9  12
ENDBRANCH   4   6
BRANCH   2  14
ATOM     14  C   UNL d   1      53.988  32.502  54.212  0.00  0.00     0.083 A 
ATOM     15  C   UNL d   1      53.803  32.919  54.912  0.00  0.00     0.019 A 
ATOM     16  C   UNL d   1      54.209  33.619  55.101  0.00  0.00     0.002 A 
ATOM     17  C   UNL d   1      54.787  33.908  54.614  0.00  0.00     0.000 A 
ATOM     18  C   UNL d   1      54.974  33.493  53.915  0.00  0.00     0.002 A 
ATOM     19  C   UNL d   1      54.573  32.789  53.714  0.00  0.00     0.019 A 
ENDBRANCH   2  14
BRANCH   3  20
ATOM     20  C   UNL d   1      53.407  29.773  53.973  0.00  0.00     0.049 A 
ATOM     21  S   UNL d   1      53.943  29.176  53.804  0.00  0.00    -0.085 SA
ATOM     22  C   UNL d   1      53.780  28.541  54.297  0.00  0.00     0.035 A 
ATOM     23  C   UNL d   1      53.155  28.734  54.766  0.00  0.00     0.007 A 
ATOM     24  C   UNL d   1      52.901  29.494  54.588  0.00  0.00     0.009 A 
ENDBRANCH   3  20
TORSDOF 4
ENDMDL
MODEL 5
REMARK VINA RESULT:      -7.5      1.650      3.376
REMARK  4 active torsions:
REMARK  status: ('A' for Active; 'I' for Inactive)
REMARK    1  A    between atoms: C_9  and  N_2 
REMARK    2  A    between atoms: C_6  and  C_3 
REMARK    3  A    between atoms: C_8  and  C_4 
REMARK    4  A    between atoms: O_18  and  C_15 
ROOT
ATOM      1  N   UNL d   1      51.354  33.086  52.647  0.00  0.00    -0.165 NA
ATOM      2  N   UNL d   1      52.051  32.750  53.002  0.00  0.00    -0.230 N 
ATOM      3  C   UNL d   1      51.353  33.895  52.792  0.00  0.00     0.109 A 
ATOM      4  C   UNL d   1      52.455  33.397  53.360  0.00  0.00     0.084 A 
ATOM      5  C   UNL d   1      52.028  34.090  53.230  0.00  0.00     0.041 A 
ENDROOT
BRANCH   4   6
ATOM      6  C   UNL d   1      53.163  33.354  53.775  0.00  0.00     0.018 A 
ATOM      7  C   UNL d   1      53.117  33.339  54.599  0.00  0.00     0.004 A 
ATOM      8  C   UNL d   1      53.806  33.297  55.034  0.00  0.00     0.024 A 
ATOM      9  C   UNL d   1      54.534  33.271  54.658  0.00  0.00     0.094 A 
ATOM     10  C   UNL d   1      54.580  33.286  53.835  0.00  0.00     0.024 A 
ATOM     11  C   UNL d   1      53.886  33.328  53.395  0.00  0.00     0.004 A 
BRANCH   9  12
ATOM     12  O   UNL d   1      55.271  33.227  55.089  0.00  0.00    -0.328 OA
ATOM     13  C   UNL d   1      55.586  33.940  55.451  0.00  0.00     0.181 C 
ENDBRANCH   9  12
ENDBRANCH   4   6
BRANCH   2  14
ATOM     14  C   UNL d   1      52.355  31.989  53.047  0.00  0.00     0.083 A 
ATOM     15  C   UNL d   1      52.952  31.716  52.527  0.00  0.00     0.019 A 
ATOM     16  C   UNL d   1      53.241  30.940  52.595  0.00  0.00     0.002 A 
ATOM     17  C   UNL d   1      52.954  30.438  53.160  0.00  0.00     0.000 A 
ATOM     18  C   UNL d   1      52.360  30.707  53.679  0.00  0.00     0.002 A 
ATOM     19  C   UNL d   1      52.060  31.484  53.622  0.00  0.00     0.019 A 
ENDBRANCH   2  14
BRANCH   3  20
ATOM     20  C   UNL d   1      50.649  34.116  52.411  0.00  0.00     0.049 A 
ATOM     21  S   UNL d   1      50.222  34.080  51.713  0.00  0.00    -0.085 SA
ATOM     22  C   UNL d   1      49.516  34.481  51.826  0.00  0.00     0.035 A 
ATOM     23  C   UNL d   1      49.498  34.764  52.579  0.00  0.00     0.007 A 
ATOM     24  C   UNL d   1      50.189  34.553  52.968  0.00  0.00     0.009 A 
ENDBRANCH   3  20
TORSDOF 4
ENDMDL
