MODEL 1
REMARK VINA RESULT:      61.7      0.000      0.000
REMARK  6 active torsions:
REMARK  status: ('A' for Active; 'I' for Inactive)
REMARK    1  A    between atoms: C_5  and  C_1 
REMARK    2  A    between atoms: N_8  and  C_5 
REMARK    3  A    between atoms: C_9  and  C_5 
REMARK    4  A    between atoms: C_19  and  C_7 
REMARK    5  A    between atoms: C_10  and  N_8 
REMARK    6  A    between atoms: O_20  and  C_16 
ROOT
ATOM      1  C   UNL d   1     -57.815 -99.120 -44.616  0.00  0.00     0.109 C 
ENDROOT
BRANCH   1   2
ATOM      2  C   UNL d   1     -57.121 -99.555 -44.505  0.00  0.00     0.160 A 
ATOM      3  C   UNL d   1     -56.425 -99.377 -44.923  0.00  0.00     0.258 A 
ATOM      4  C   UNL d   1     -55.735 -99.839 -44.788  0.00  0.00     0.238 A 
ATOM      5  O   UNL d   1     -56.414 -98.761 -45.457  0.00  0.00    -0.281 OA
ATOM      6  O   UNL d   1     -55.038 -99.660 -45.206  0.00  0.00    -0.283 OA
ATOM      7  C   UNL d   1     -55.746-100.456 -44.253  0.00  0.00     0.073 A 
ATOM      8  C   UNL d   1     -56.442-100.634 -43.834  0.00  0.00     0.146 A 
ATOM      9  O   UNL d   1     -57.119-100.193 -43.956  0.00  0.00    -0.299 OA
BRANCH   8  10
ATOM     10  C   UNL d   1     -56.444-101.266 -43.290  0.00  0.00     0.259 C 
ATOM     11  O   UNL d   1     -55.729-101.640 -43.052  0.00  0.00    -0.281 OA
ENDBRANCH   8  10
ENDBRANCH   1   2
BRANCH   1  12
ATOM     12  N   UNL d   1     -57.984 -98.755 -45.340  0.00  0.00    -0.225 NA
BRANCH  12  13
ATOM     13  C   UNL d   1     -58.640 -98.986 -45.776  0.00  0.00     0.163 A 
ATOM     14  N   UNL d   1     -58.707 -98.775 -46.571  0.00  0.00    -0.225 NA
ATOM     15  C   UNL d   1     -59.360 -99.005 -47.003  0.00  0.00     0.101 A 
ATOM     16  C   UNL d   1     -59.954 -99.448 -46.645  0.00  0.00     0.021 A 
ATOM     17  C   UNL d   1     -59.906 -99.668 -45.851  0.00  0.00     0.005 A 
ATOM     18  C   UNL d   1     -59.249 -99.437 -45.415  0.00  0.00     0.039 A 
ENDBRANCH  12  13
ENDBRANCH   1  12
BRANCH   1  19
ATOM     19  C   UNL d   1     -58.353 -99.049 -43.981  0.00  0.00     0.020 A 
ATOM     20  C   UNL d   1     -59.133 -98.823 -44.122  0.00  0.00     0.004 A 
ATOM     21  C   UNL d   1     -59.657 -98.755 -43.492  0.00  0.00     0.024 A 
ATOM     22  C   UNL d   1     -59.404 -98.912 -42.724  0.00  0.00     0.094 A 
ATOM     23  C   UNL d   1     -58.625 -99.138 -42.577  0.00  0.00     0.024 A 
ATOM     24  C   UNL d   1     -58.100 -99.206 -43.212  0.00  0.00     0.004 A 
BRANCH  22  25
ATOM     25  O   UNL d   1     -59.941 -98.842 -42.084  0.00  0.00    -0.328 OA
ATOM     26  C   UNL d   1     -59.959 -99.420 -41.462  0.00  0.00     0.181 C 
ENDBRANCH  22  25
ENDBRANCH   1  19
TORSDOF 6
ENDMDL
