MODEL 1
REMARK VINA RESULT:       1.7      0.000      0.000
REMARK  1 active torsions:
REMARK  status: ('A' for Active; 'I' for Inactive)
REMARK    1  A    between atoms: C_2  and  C_1 
ROOT
ATOM      1  C   UNL d   1     -52.358  23.957  33.332  0.00  0.00     0.169 A 
ATOM      2  N   UNL d   1     -51.894  23.286  33.306  0.00  0.00    -0.142 NA
ATOM      3  N   UNL d   1     -51.099  23.512  33.314  0.00  0.00    -0.146 NA
ATOM      4  C   UNL d   1     -51.861  24.615  33.357  0.00  0.00     0.050 A 
ATOM      5  C   UNL d   1     -51.084  24.341  33.347  0.00  0.00     0.124 A 
ENDROOT
BRANCH   1   6
ATOM      6  C   UNL d   1     -53.184  23.979  33.333  0.00  0.00     0.231 C 
ATOM      7  O   UNL d   1     -53.613  23.276  33.361  0.00  0.00    -0.643 OA
ATOM      8  O   UNL d   1     -53.577  24.701  33.306  0.00  0.00    -0.643 OA
ENDBRANCH   1   6
TORSDOF 1
ENDMDL
MODEL 2
REMARK VINA RESULT:       2.0      1.622      2.135
REMARK  1 active torsions:
REMARK  status: ('A' for Active; 'I' for Inactive)
REMARK    1  A    between atoms: C_2  and  C_1 
ROOT
ATOM      1  C   UNL d   1     -51.592  24.668  33.311  0.00  0.00     0.169 A 
ATOM      2  N   UNL d   1     -51.408  23.873  33.306  0.00  0.00    -0.142 NA
ATOM      3  N   UNL d   1     -52.109  23.437  33.309  0.00  0.00    -0.146 NA
ATOM      4  C   UNL d   1     -52.414  24.743  33.317  0.00  0.00     0.050 A 
ATOM      5  C   UNL d   1     -52.733  23.983  33.316  0.00  0.00     0.124 A 
ENDROOT
BRANCH   1   6
ATOM      6  C   UNL d   1     -51.053  25.295  33.311  0.00  0.00     0.231 C 
ATOM      7  O   UNL d   1     -51.329  26.072  33.312  0.00  0.00    -0.643 OA
ATOM      8  O   UNL d   1     -50.245  25.144  33.310  0.00  0.00    -0.643 OA
ENDBRANCH   1   6
TORSDOF 1
ENDMDL
MODEL 3
REMARK VINA RESULT:       3.3      2.270      2.518
REMARK  1 active torsions:
REMARK  status: ('A' for Active; 'I' for Inactive)
REMARK    1  A    between atoms: C_2  and  C_1 
ROOT
ATOM      1  C   UNL d   1     -51.254  25.653  33.312  0.00  0.00     0.169 A 
ATOM      2  N   UNL d   1     -51.815  26.245  33.312  0.00  0.00    -0.142 NA
ATOM      3  N   UNL d   1     -51.430  26.976  33.309  0.00  0.00    -0.146 NA
ATOM      4  C   UNL d   1     -50.507  26.003  33.309  0.00  0.00     0.050 A 
ATOM      5  C   UNL d   1     -50.615  26.820  33.307  0.00  0.00     0.124 A 
ENDROOT
BRANCH   1   6
ATOM      6  C   UNL d   1     -51.402  24.839  33.315  0.00  0.00     0.231 C 
ATOM      7  O   UNL d   1     -52.180  24.564  33.316  0.00  0.00    -0.643 OA
ATOM      8  O   UNL d   1     -50.776  24.306  33.316  0.00  0.00    -0.643 OA
ENDBRANCH   1   6
TORSDOF 1
ENDMDL
