MODEL 1
REMARK VINA RESULT:      -2.3      0.000      0.000
REMARK  4 active torsions:
REMARK  status: ('A' for Active; 'I' for Inactive)
REMARK    1  A    between atoms: C_6  and  C_1 
REMARK    2  A    between atoms: C_9  and  N_3 
REMARK    3  A    between atoms: C_17  and  C_9 
REMARK    4  A    between atoms: O_15  and  C_10 
ROOT
ATOM      1  C   UNL d   1      56.537   0.191  32.419  0.00  0.00     0.148 A 
ATOM      2  N   UNL d   1      55.692   0.093  32.490  0.00  0.00    -0.227 NA
ATOM      3  N   UNL d   1      56.816   0.427  33.165  0.00  0.00    -0.289 N 
ATOM      4  C   UNL d   1      56.194   0.477  33.681  0.00  0.00     0.083 A 
ATOM      5  C   UNL d   1      55.485   0.266  33.255  0.00  0.00     0.099 A 
ATOM      6  C   UNL d   1      56.147   0.682  34.480  0.00  0.00     0.019 A 
ATOM      7  C   UNL d   1      54.760   0.278  33.682  0.00  0.00     0.021 A 
ATOM      8  C   UNL d   1      55.432   0.680  34.849  0.00  0.00     0.002 A 
ATOM      9  C   UNL d   1      54.747   0.476  34.438  0.00  0.00     0.002 A 
ENDROOT
BRANCH   1  10
ATOM     10  C   UNL d   1      56.966   0.066  31.719  0.00  0.00     0.035 A 
ATOM     11  C   UNL d   1      57.325  -0.650  31.569  0.00  0.00     0.005 A 
ATOM     12  C   UNL d   1      57.758  -0.798  30.877  0.00  0.00     0.024 A 
ATOM     13  C   UNL d   1      57.832  -0.229  30.334  0.00  0.00     0.094 A 
ATOM     14  C   UNL d   1      57.466   0.518  30.476  0.00  0.00     0.024 A 
ATOM     15  C   UNL d   1      57.032   0.665  31.168  0.00  0.00     0.005 A 
BRANCH  13  16
ATOM     16  O   UNL d   1      58.129   0.029  29.603  0.00  0.00    -0.328 OA
ATOM     17  C   UNL d   1      58.670  -0.442  29.185  0.00  0.00     0.181 C 
ENDBRANCH  13  16
ENDBRANCH   1  10
BRANCH   3  18
ATOM     18  C   UNL d   1      57.600   0.542  33.185  0.00  0.00     0.082 C 
BRANCH  18  19
ATOM     19  C   UNL d   1      58.004   0.650  33.888  0.00  0.00     0.019 C 
ATOM     20  C   UNL d   1      58.824   0.682  33.935  0.00  0.00     0.002 C 
ENDBRANCH  18  19
ENDBRANCH   3  18
TORSDOF 4
ENDMDL
MODEL 2
REMARK VINA RESULT:      -1.6      1.993      4.894
REMARK  4 active torsions:
REMARK  status: ('A' for Active; 'I' for Inactive)
REMARK    1  A    between atoms: C_6  and  C_1 
REMARK    2  A    between atoms: C_9  and  N_3 
REMARK    3  A    between atoms: C_17  and  C_9 
REMARK    4  A    between atoms: O_15  and  C_10 
ROOT
ATOM      1  C   UNL d   1      58.875   0.107  30.239  0.00  0.00     0.148 A 
ATOM      2  N   UNL d   1      59.489   0.682  30.096  0.00  0.00    -0.227 NA
ATOM      3  N   UNL d   1      59.044  -0.552  29.763  0.00  0.00    -0.289 N 
ATOM      4  C   UNL d   1      59.721  -0.412  29.342  0.00  0.00     0.083 A 
ATOM      5  C   UNL d   1      60.002   0.367  29.552  0.00  0.00     0.099 A 
ATOM      6  C   UNL d   1      60.141  -0.865  28.793  0.00  0.00     0.019 A 
ATOM      7  C   UNL d   1      60.708   0.636  29.180  0.00  0.00     0.021 A 
ATOM      8  C   UNL d   1      60.811  -0.567  28.461  0.00  0.00     0.002 A 
ATOM      9  C   UNL d   1      61.083   0.185  28.664  0.00  0.00     0.002 A 
ENDROOT
BRANCH   1  10
ATOM     10  C   UNL d   1      58.241   0.221  30.763  0.00  0.00     0.035 A 
ATOM     11  C   UNL d   1      58.320   0.059  31.558  0.00  0.00     0.005 A 
ATOM     12  C   UNL d   1      57.700   0.165  32.100  0.00  0.00     0.024 A 
ATOM     13  C   UNL d   1      57.002   0.433  31.848  0.00  0.00     0.094 A 
ATOM     14  C   UNL d   1      56.905   0.604  31.027  0.00  0.00     0.024 A 
ATOM     15  C   UNL d   1      57.525   0.498  30.485  0.00  0.00     0.005 A 
BRANCH  13  16
ATOM     16  O   UNL d   1      56.219   0.656  32.010  0.00  0.00    -0.328 OA
ATOM     17  C   UNL d   1      55.919   0.585  32.781  0.00  0.00     0.181 C 
ENDBRANCH  13  16
ENDBRANCH   1  10
BRANCH   3  18
ATOM     18  C   UNL d   1      58.515  -1.138  29.837  0.00  0.00     0.082 C 
BRANCH  18  19
ATOM     19  C   UNL d   1      58.630  -1.870  29.493  0.00  0.00     0.019 C 
ATOM     20  C   UNL d   1      58.097  -2.491  29.570  0.00  0.00     0.002 C 
ENDBRANCH  18  19
ENDBRANCH   3  18
TORSDOF 4
ENDMDL
MODEL 3
REMARK VINA RESULT:      -0.9      2.187      4.832
REMARK  4 active torsions:
REMARK  status: ('A' for Active; 'I' for Inactive)
REMARK    1  A    between atoms: C_6  and  C_1 
REMARK    2  A    between atoms: C_9  and  N_3 
REMARK    3  A    between atoms: C_17  and  C_9 
REMARK    4  A    between atoms: O_15  and  C_10 
ROOT
ATOM      1  C   UNL d   1      58.413  -1.140  29.928  0.00  0.00     0.148 A 
ATOM      2  N   UNL d   1      58.129  -1.897  29.652  0.00  0.00    -0.227 NA
ATOM      3  N   UNL d   1      59.192  -1.060  29.653  0.00  0.00    -0.289 N 
ATOM      4  C   UNL d   1      59.397  -1.719  29.229  0.00  0.00     0.083 A 
ATOM      5  C   UNL d   1      58.726  -2.247  29.229  0.00  0.00     0.099 A 
ATOM      6  C   UNL d   1      60.090  -1.936  28.835  0.00  0.00     0.019 A 
ATOM      7  C   UNL d   1      58.810  -2.977  28.818  0.00  0.00     0.021 A 
ATOM      8  C   UNL d   1      60.126  -2.644  28.455  0.00  0.00     0.002 A 
ATOM      9  C   UNL d   1      59.478  -3.155  28.455  0.00  0.00     0.002 A 
ENDROOT
BRANCH   1  10
ATOM     10  C   UNL d   1      57.965  -0.610  30.383  0.00  0.00     0.035 A 
ATOM     11  C   UNL d   1      57.773   0.130  30.100  0.00  0.00     0.005 A 
ATOM     12  C   UNL d   1      57.326   0.675  30.537  0.00  0.00     0.024 A 
ATOM     13  C   UNL d   1      57.071   0.481  31.258  0.00  0.00     0.094 A 
ATOM     14  C   UNL d   1      57.262  -0.281  31.566  0.00  0.00     0.024 A 
ATOM     15  C   UNL d   1      57.708  -0.827  31.128  0.00  0.00     0.005 A 
BRANCH  13  16
ATOM     16  O   UNL d   1      56.657   0.682  31.949  0.00  0.00    -0.328 OA
ATOM     17  C   UNL d   1      55.907   0.357  32.093  0.00  0.00     0.181 C 
ENDBRANCH  13  16
ENDBRANCH   1  10
BRANCH   3  18
ATOM     18  C   UNL d   1      59.532  -0.377  29.867  0.00  0.00     0.082 C 
BRANCH  18  19
ATOM     19  C   UNL d   1      60.283  -0.170  29.620  0.00  0.00     0.019 C 
ATOM     20  C   UNL d   1      60.708   0.455  29.944  0.00  0.00     0.002 C 
ENDBRANCH  18  19
ENDBRANCH   3  18
TORSDOF 4
ENDMDL
MODEL 4
REMARK VINA RESULT:      -0.6      1.899      4.205
REMARK  4 active torsions:
REMARK  status: ('A' for Active; 'I' for Inactive)
REMARK    1  A    between atoms: C_6  and  C_1 
REMARK    2  A    between atoms: C_9  and  N_3 
REMARK    3  A    between atoms: C_17  and  C_9 
REMARK    4  A    between atoms: O_15  and  C_10 
ROOT
ATOM      1  C   UNL d   1      56.322   0.100  32.969  0.00  0.00     0.148 A 
ATOM      2  N   UNL d   1      56.761   0.681  32.524  0.00  0.00    -0.227 NA
ATOM      3  N   UNL d   1      56.385  -0.618  32.556  0.00  0.00    -0.289 N 
ATOM      4  C   UNL d   1      56.834  -0.507  31.892  0.00  0.00     0.083 A 
ATOM      5  C   UNL d   1      57.071   0.313  31.871  0.00  0.00     0.099 A 
ATOM      6  C   UNL d   1      57.074  -1.018  31.288  0.00  0.00     0.019 A 
ATOM      7  C   UNL d   1      57.547   0.561  31.223  0.00  0.00     0.021 A 
ATOM      8  C   UNL d   1      57.529  -0.738  30.687  0.00  0.00     0.002 A 
ATOM      9  C   UNL d   1      57.758   0.054  30.667  0.00  0.00     0.002 A 
ENDROOT
BRANCH   1  10
ATOM     10  C   UNL d   1      55.919   0.259  33.677  0.00  0.00     0.035 A 
ATOM     11  C   UNL d   1      55.118   0.409  33.681  0.00  0.00     0.005 A 
ATOM     12  C   UNL d   1      54.695   0.570  34.377  0.00  0.00     0.024 A 
ATOM     13  C   UNL d   1      55.074   0.581  35.069  0.00  0.00     0.094 A 
ATOM     14  C   UNL d   1      55.904   0.428  35.081  0.00  0.00     0.024 A 
ATOM     15  C   UNL d   1      56.326   0.267  34.386  0.00  0.00     0.005 A 
BRANCH  13  16
ATOM     16  O   UNL d   1      55.057   0.682  35.893  0.00  0.00    -0.328 OA
ATOM     17  C   UNL d   1      54.338   0.617  36.304  0.00  0.00     0.181 C 
ENDBRANCH  13  16
ENDBRANCH   1  10
BRANCH   3  18
ATOM     18  C   UNL d   1      56.001  -1.217  32.906  0.00  0.00     0.082 C 
BRANCH  18  19
ATOM     19  C   UNL d   1      55.867  -1.927  32.524  0.00  0.00     0.019 C 
ATOM     20  C   UNL d   1      55.443  -2.546  32.862  0.00  0.00     0.002 C 
ENDBRANCH  18  19
ENDBRANCH   3  18
TORSDOF 4
ENDMDL
