MODEL 1
REMARK VINA RESULT:      88.1      0.000      0.000
REMARK  4 active torsions:
REMARK  status: ('A' for Active; 'I' for Inactive)
REMARK    1  A    between atoms: C_2  and  C_1 
REMARK    2  A    between atoms: N_8  and  C_3 
REMARK    3  A    between atoms: C_15  and  N_8 
REMARK    4  A    between atoms: O_18  and  C_16 
ROOT
ATOM      1  C   UNL d   1     -50.810  24.841  33.601  0.00  0.00     0.077 A 
ATOM      2  C   UNL d   1     -50.717  25.659  33.540  0.00  0.00     0.185 A 
ATOM      3  C   UNL d   1     -50.153  24.349  33.575  0.00  0.00     0.009 A 
ATOM      4  O   UNL d   1     -49.967  25.984  33.454  0.00  0.00    -0.289 OA
ATOM      5  C   UNL d   1     -49.397  24.672  33.488  0.00  0.00     0.025 A 
ATOM      6  C   UNL d   1     -49.304  25.489  33.427  0.00  0.00     0.102 A 
ATOM      7  C   UNL d   1     -48.764  24.182  33.463  0.00  0.00     0.026 A 
ATOM      8  C   UNL d   1     -48.578  25.817  33.343  0.00  0.00     0.027 A 
ATOM      9  C   UNL d   1     -48.003  24.505  33.376  0.00  0.00     0.094 A 
ATOM     10  C   UNL d   1     -47.910  25.322  33.316  0.00  0.00     0.026 A 
ENDROOT
BRANCH   1  11
ATOM     11  C   UNL d   1     -51.553  24.523  33.686  0.00  0.00     0.166 A 
ATOM     12  N   UNL d   1     -52.203  24.780  33.310  0.00  0.00    -0.225 NA
ATOM     13  C   UNL d   1     -52.832  24.342  33.524  0.00  0.00     0.101 A 
ATOM     14  C   UNL d   1     -53.640  24.341  33.326  0.00  0.00     0.021 A 
ATOM     15  C   UNL d   1     -52.544  23.779  34.069  0.00  0.00     0.101 A 
ATOM     16  C   UNL d   1     -54.142  23.768  33.685  0.00  0.00     0.002 A 
ATOM     17  C   UNL d   1     -53.842  23.210  34.229  0.00  0.00     0.002 A 
ATOM     18  C   UNL d   1     -53.083  23.202  34.423  0.00  0.00     0.021 A 
ATOM     19  N   UNL d   1     -51.728  23.910  34.160  0.00  0.00    -0.225 NA
ENDBRANCH   1  11
BRANCH   2  20
ATOM     20  N   UNL d   1     -51.379  26.153  33.567  0.00  0.00    -0.222 NA
BRANCH  20  21
ATOM     21  C   UNL d   1     -51.287  26.959  33.509  0.00  0.00     0.084 A 
ATOM     22  C   UNL d   1     -50.543  27.279  33.589  0.00  0.00     0.019 A 
ATOM     23  C   UNL d   1     -50.451  28.080  33.532  0.00  0.00     0.002 A 
ATOM     24  C   UNL d   1     -51.085  28.575  33.396  0.00  0.00     0.000 A 
ATOM     25  C   UNL d   1     -51.824  28.238  33.318  0.00  0.00     0.002 A 
ATOM     26  C   UNL d   1     -51.929  27.422  33.375  0.00  0.00     0.019 A 
ENDBRANCH  20  21
ENDBRANCH   2  20
BRANCH   9  27
ATOM     27  O   UNL d   1     -47.363  24.020  33.351  0.00  0.00    -0.328 OA
ATOM     28  C   UNL d   1     -47.074  23.705  34.016  0.00  0.00     0.181 C 
ENDBRANCH   9  27
TORSDOF 4
ENDMDL
