MODEL 1
REMARK VINA RESULT:      98.0      0.000      0.000
REMARK  5 active torsions:
REMARK  status: ('A' for Active; 'I' for Inactive)
REMARK    1  A    between atoms: C_11  and  N_1 
REMARK    2  A    between atoms: S_8  and  C_4 
REMARK    3  A    between atoms: C_6  and  S_8 
REMARK    4  A    between atoms: C_9  and  C_7 
REMARK    5  A    between atoms: N_10  and  C_13 
ROOT
ATOM      1  N   UNL d   1     -55.932 -99.995 -44.091  0.00  0.00    -0.241 N 
ATOM      2  C   UNL d   1     -55.222 -99.577 -44.101  0.00  0.00     0.268 A 
ATOM      3  C   UNL d   1     -55.860-100.609 -43.564  0.00  0.00     0.273 A 
ATOM      4  C   UNL d   1     -55.094-100.577 -43.238  0.00  0.00     0.092 A 
ATOM      5  C   UNL d   1     -54.712 -99.936 -43.577  0.00  0.00     0.072 A 
ATOM      6  O   UNL d   1     -55.030 -98.910 -44.548  0.00  0.00    -0.267 OA
ATOM      7  O   UNL d   1     -56.434-101.163 -43.383  0.00  0.00    -0.266 OA
ENDROOT
BRANCH   1   8
ATOM      8  C   UNL d   1     -56.587 -99.794 -44.555  0.00  0.00     0.070 A 
ATOM      9  C   UNL d   1     -56.954 -99.075 -44.443  0.00  0.00     0.019 A 
ATOM     10  C   UNL d   1     -57.621 -98.870 -44.915  0.00  0.00     0.019 A 
ATOM     11  C   UNL d   1     -57.892 -99.392 -45.479  0.00  0.00     0.064 A 
ATOM     12  C   UNL d   1     -57.512-100.133 -45.593  0.00  0.00     0.019 A 
ATOM     13  C   UNL d   1     -56.858-100.319 -45.120  0.00  0.00     0.019 A 
BRANCH  11  14
ATOM     14  N   UNL d   1     -58.541 -99.183 -45.932  0.00  0.00    -0.300 N 
ATOM     15  C   UNL d   1     -59.311 -99.174 -45.595  0.00  0.00     0.107 A 
ATOM     16  C   UNL d   1     -59.957 -98.960 -46.068  0.00  0.00     0.142 A 
ATOM     17  O   UNL d   1     -59.867 -98.756 -46.859  0.00  0.00    -0.300 OA
ATOM     18  C   UNL d   1     -59.097 -98.765 -47.196  0.00  0.00     0.142 A 
ATOM     19  C   UNL d   1     -58.444 -98.980 -46.722  0.00  0.00     0.107 A 
ENDBRANCH  11  14
ENDBRANCH   1   8
BRANCH   4  20
ATOM     20  S   UNL d   1     -54.761-101.083 -42.677  0.00  0.00    -0.063 SA
BRANCH  20  21
ATOM     21  C   UNL d   1     -54.771-100.896 -41.872  0.00  0.00     0.117 A 
ATOM     22  C   UNL d   1     -54.841-101.494 -41.304  0.00  0.00     0.088 A 
ATOM     23  C   UNL d   1     -54.850-101.301 -40.511  0.00  0.00     0.010 A 
ATOM     24  C   UNL d   1     -54.792-100.528 -40.273  0.00  0.00     0.021 A 
ATOM     25  C   UNL d   1     -54.723 -99.927 -40.822  0.00  0.00     0.100 A 
ATOM     26  N   UNL d   1     -54.713-100.120 -41.633  0.00  0.00    -0.237 NA
BRANCH  22  27
ATOM     27  C   UNL d   1     -54.900-102.285 -41.545  0.00  0.00     0.213 C 
ATOM     28  O   UNL d   1     -54.713-102.484 -42.323  0.00  0.00    -0.644 OA
ATOM     29  O   UNL d   1     -55.146-102.864 -41.007  0.00  0.00    -0.644 OA
ENDBRANCH  22  27
ENDBRANCH  20  21
ENDBRANCH   4  20
TORSDOF 5
ENDMDL
MODEL 2
REMARK VINA RESULT:     100.3      1.354      5.447
REMARK  5 active torsions:
REMARK  status: ('A' for Active; 'I' for Inactive)
REMARK    1  A    between atoms: C_11  and  N_1 
REMARK    2  A    between atoms: S_8  and  C_4 
REMARK    3  A    between atoms: C_6  and  S_8 
REMARK    4  A    between atoms: C_9  and  C_7 
REMARK    5  A    between atoms: N_10  and  C_13 
ROOT
ATOM      1  N   UNL d   1     -55.894-100.179 -44.022  0.00  0.00    -0.241 N 
ATOM      2  C   UNL d   1     -55.499-100.308 -44.733  0.00  0.00     0.268 A 
ATOM      3  C   UNL d   1     -56.486 -99.639 -44.153  0.00  0.00     0.273 A 
ATOM      4  C   UNL d   1     -56.463 -99.425 -44.959  0.00  0.00     0.092 A 
ATOM      5  C   UNL d   1     -55.850 -99.845 -45.304  0.00  0.00     0.072 A 
ATOM      6  O   UNL d   1     -54.858-100.810 -44.877  0.00  0.00    -0.267 OA
ATOM      7  O   UNL d   1     -57.013 -99.353 -43.597  0.00  0.00    -0.266 OA
ENDROOT
BRANCH   1   8
ATOM      8  C   UNL d   1     -55.692-100.555 -43.313  0.00  0.00     0.070 A 
ATOM      9  C   UNL d   1     -56.182-100.484 -42.666  0.00  0.00     0.019 A 
ATOM     10  C   UNL d   1     -55.977-100.867 -41.943  0.00  0.00     0.019 A 
ATOM     11  C   UNL d   1     -55.291-101.304 -41.900  0.00  0.00     0.064 A 
ATOM     12  C   UNL d   1     -54.786-101.376 -42.569  0.00  0.00     0.019 A 
ATOM     13  C   UNL d   1     -55.003-100.993 -43.271  0.00  0.00     0.019 A 
BRANCH  11  14
ATOM     14  N   UNL d   1     -55.101-101.672 -41.194  0.00  0.00    -0.300 N 
ATOM     15  C   UNL d   1     -54.924-101.216 -40.510  0.00  0.00     0.107 A 
ATOM     16  C   UNL d   1     -54.734-101.603 -39.803  0.00  0.00     0.142 A 
ATOM     17  O   UNL d   1     -54.712-102.423 -39.750  0.00  0.00    -0.300 OA
ATOM     18  C   UNL d   1     -54.888-102.879 -40.434  0.00  0.00     0.142 A 
ATOM     19  C   UNL d   1     -55.081-102.491 -41.148  0.00  0.00     0.107 A 
ENDBRANCH  11  14
ENDBRANCH   1   8
BRANCH   4  20
ATOM     20  S   UNL d   1     -56.955 -98.894 -45.355  0.00  0.00    -0.063 SA
BRANCH  20  21
ATOM     21  C   UNL d   1     -57.763 -98.851 -45.186  0.00  0.00     0.117 A 
ATOM     22  C   UNL d   1     -58.319 -98.844 -45.799  0.00  0.00     0.088 A 
ATOM     23  C   UNL d   1     -59.115 -98.801 -45.623  0.00  0.00     0.010 A 
ATOM     24  C   UNL d   1     -59.367 -98.765 -44.853  0.00  0.00     0.021 A 
ATOM     25  C   UNL d   1     -58.830 -98.771 -44.238  0.00  0.00     0.100 A 
ATOM     26  N   UNL d   1     -58.016 -98.814 -44.413  0.00  0.00    -0.237 NA
BRANCH  22  27
ATOM     27  C   UNL d   1     -58.063 -98.881 -46.587  0.00  0.00     0.213 C 
ATOM     28  O   UNL d   1     -57.264 -98.766 -46.757  0.00  0.00    -0.644 OA
ATOM     29  O   UNL d   1     -58.608 -99.031 -47.191  0.00  0.00    -0.644 OA
ENDBRANCH  22  27
ENDBRANCH  20  21
ENDBRANCH   4  20
TORSDOF 5
ENDMDL
