MODEL 1
REMARK VINA RESULT:     121.2      0.000      0.000
REMARK  5 active torsions:
REMARK  status: ('A' for Active; 'I' for Inactive)
REMARK    1  A    between atoms: C_10  and  N_2 
REMARK       I    between atoms: N_3  and  C_6 
REMARK    2  A    between atoms: C_6  and  C_14 
REMARK    3  A    between atoms: C_17  and  C_10 
REMARK    4  A    between atoms: O_13  and  C_12 
REMARK    5  A    between atoms: C_14  and  O_13 
ROOT
ATOM      1  C   UNL d   1      60.842  48.877  50.362  0.00  0.00     0.265 A 
ATOM      2  N   UNL d   1      60.220  48.857  50.916  0.00  0.00    -0.272 N 
ATOM      3  C   UNL d   1      61.260  48.175  50.207  0.00  0.00     0.059 A 
ATOM      4  C   UNL d   1      61.062  47.471  50.597  0.00  0.00     0.029 A 
ATOM      5  C   UNL d   1      60.446  47.461  51.144  0.00  0.00     0.021 A 
ATOM      6  C   UNL d   1      60.022  48.154  51.307  0.00  0.00     0.083 A 
ATOM      7  O   UNL d   1      61.039  49.574  49.975  0.00  0.00    -0.267 OA
ATOM      8  C   UNL d   1      61.481  46.773  50.441  0.00  0.00     0.100 A 
ATOM      9  C   UNL d   1      61.881  48.192  49.654  0.00  0.00     0.005 A 
ATOM     10  C   UNL d   1      62.300  47.490  49.499  0.00  0.00     0.002 A 
ATOM     11  C   UNL d   1      62.100  46.782  49.892  0.00  0.00     0.025 A 
ENDROOT
BRANCH   8  12
ATOM     12  O   UNL d   1      61.283  46.072  50.829  0.00  0.00    -0.300 OA
BRANCH  12  13
ATOM     13  C   UNL d   1      60.930  45.411  50.371  0.00  0.00     0.184 C 
BRANCH  13  14
ATOM     14  C   UNL d   1      61.523  44.706  50.375  0.00  0.00     0.290 C 
ATOM     15  N   UNL d   1      61.489  44.155  50.964  0.00  0.00    -0.272 N 
ATOM     16  C   UNL d   1      62.011  43.540  50.963  0.00  0.00     0.067 A 
ATOM     17  C   UNL d   1      60.939  44.223  51.545  0.00  0.00     0.083 A 
ATOM     18  C   UNL d   1      61.988  42.972  51.557  0.00  0.00     0.016 A 
ATOM     19  C   UNL d   1      62.568  43.462  50.385  0.00  0.00     0.018 A 
ATOM     20  C   UNL d   1      62.504  42.353  51.566  0.00  0.00     0.001 A 
ATOM     21  C   UNL d   1      61.421  43.055  52.141  0.00  0.00     0.003 A 
ATOM     22  C   UNL d   1      63.055  42.295  50.975  0.00  0.00     0.000 A 
ATOM     23  C   UNL d   1      63.095  42.852  50.374  0.00  0.00     0.002 A 
ATOM     24  C   UNL d   1      60.904  43.672  52.135  0.00  0.00     0.019 A 
ATOM     25  O   UNL d   1      62.144  44.643  49.708  0.00  0.00    -0.264 OA
ENDBRANCH  13  14
ENDBRANCH  12  13
ENDBRANCH   8  12
BRANCH   2  26
ATOM     26  C   UNL d   1      59.798  49.546  51.078  0.00  0.00     0.083 C 
BRANCH  26  27
ATOM     27  C   UNL d   1      58.991  49.586  50.913  0.00  0.00     0.018 A 
ATOM     28  C   UNL d   1      58.456  49.546  51.522  0.00  0.00     0.002 A 
ATOM     29  C   UNL d   1      57.653  49.585  51.361  0.00  0.00     0.007 A 
ATOM     30  C   UNL d   1      57.385  49.666  50.582  0.00  0.00     0.035 A 
ATOM     31  C   UNL d   1      57.932  49.707  49.962  0.00  0.00     0.007 A 
ATOM     32 BR   UNL d   1      56.579  49.707  50.412  0.00  0.00    -0.049 Br
ATOM     33  C   UNL d   1      58.745  49.667  50.121  0.00  0.00     0.002 A 
ENDBRANCH  26  27
ENDBRANCH   2  26
TORSDOF 5
ENDMDL
