MODEL 1
REMARK VINA RESULT:      -8.8      0.000      0.000
REMARK  5 active torsions:
REMARK  status: ('A' for Active; 'I' for Inactive)
REMARK    1  A    between atoms: O_8  and  C_2 
REMARK    2  A    between atoms: C_9  and  C_5 
REMARK    3  A    between atoms: C_14  and  O_8 
REMARK    4  A    between atoms: N_11  and  C_9 
REMARK    5  A    between atoms: O_21  and  C_18 
ROOT
ATOM      1  C   UNL d   1      53.114  33.545  53.622  0.00  0.00     0.108 A 
ATOM      2  C   UNL d   1      53.739  32.002  53.619  0.00  0.00     0.161 A 
ATOM      3  C   UNL d   1      53.478  33.240  54.309  0.00  0.00     0.064 A 
ATOM      4  C   UNL d   1      53.785  32.479  54.305  0.00  0.00     0.222 A 
ATOM      5  C   UNL d   1      52.801  34.316  53.622  0.00  0.00     0.079 A 
ATOM      6  O   UNL d   1      53.060  33.083  52.932  0.00  0.00    -0.305 OA
ATOM      7  C   UNL d   1      53.373  32.308  52.928  0.00  0.00     0.126 A 
ATOM      8  C   UNL d   1      53.520  33.719  54.987  0.00  0.00     0.009 A 
ATOM      9  C   UNL d   1      52.850  34.781  54.302  0.00  0.00     0.199 A 
ATOM     10  O   UNL d   1      54.146  32.173  54.982  0.00  0.00    -0.284 OA
ATOM     11  C   UNL d   1      53.210  34.483  54.984  0.00  0.00     0.042 A 
ATOM     12  O   UNL d   1      52.539  35.546  54.298  0.00  0.00    -0.286 OA
ATOM     13  C   UNL d   1      53.325  31.842  52.249  0.00  0.00     0.029 C 
ENDROOT
BRANCH   2  14
ATOM     14  O   UNL d   1      54.048  31.239  53.619  0.00  0.00    -0.302 OA
BRANCH  14  15
ATOM     15  C   UNL d   1      53.548  30.590  53.714  0.00  0.00     0.102 A 
ATOM     16  C   UNL d   1      53.628  30.104  54.376  0.00  0.00     0.049 A 
ATOM     17  C   UNL d   1      53.127  29.454  54.471  0.00  0.00     0.096 A 
ATOM     18  C   UNL d   1      52.549  29.291  53.904  0.00  0.00     0.024 A 
ATOM     19  C   UNL d   1      52.473  29.787  53.235  0.00  0.00     0.004 A 
ATOM     20  C   UNL d   1      52.973  30.430  53.148  0.00  0.00     0.025 A 
BRANCH  17  21
ATOM     21  O   UNL d   1      53.207  28.969  55.133  0.00  0.00    -0.328 OA
ATOM     22  C   UNL d   1      53.601  28.247  55.067  0.00  0.00     0.181 C 
ENDBRANCH  17  21
ENDBRANCH  14  15
ENDBRANCH   2  14
BRANCH   5  23
ATOM     23  C   UNL d   1      52.446  34.611  52.947  0.00  0.00     0.086 C 
BRANCH  23  24
ATOM     24  N   UNL d   1      51.627  34.534  52.844  0.00  0.00    -0.299 N 
ATOM     25  C   UNL d   1      51.326  34.335  52.100  0.00  0.00     0.107 A 
ATOM     26  C   UNL d   1      50.512  34.257  51.995  0.00  0.00     0.142 A 
ATOM     27  O   UNL d   1      49.998  34.379  52.634  0.00  0.00    -0.300 OA
ATOM     28  C   UNL d   1      50.303  34.578  53.376  0.00  0.00     0.142 A 
ATOM     29  C   UNL d   1      51.123  34.656  53.483  0.00  0.00     0.107 A 
ENDBRANCH  23  24
ENDBRANCH   5  23
TORSDOF 5
ENDMDL
MODEL 2
REMARK VINA RESULT:      -8.2      1.603      4.797
REMARK  5 active torsions:
REMARK  status: ('A' for Active; 'I' for Inactive)
REMARK    1  A    between atoms: O_8  and  C_2 
REMARK    2  A    between atoms: C_9  and  C_5 
REMARK    3  A    between atoms: C_14  and  O_8 
REMARK    4  A    between atoms: N_11  and  C_9 
REMARK    5  A    between atoms: O_21  and  C_18 
ROOT
ATOM      1  C   UNL d   1      52.667  32.921  53.283  0.00  0.00     0.108 A 
ATOM      2  C   UNL d   1      51.257  33.796  53.150  0.00  0.00     0.161 A 
ATOM      3  C   UNL d   1      51.934  32.526  53.216  0.00  0.00     0.064 A 
ATOM      4  C   UNL d   1      51.241  32.960  53.150  0.00  0.00     0.222 A 
ATOM      5  C   UNL d   1      53.372  32.484  53.350  0.00  0.00     0.079 A 
ATOM      6  O   UNL d   1      52.700  33.751  53.285  0.00  0.00    -0.305 OA
ATOM      7  C   UNL d   1      51.994  34.193  53.218  0.00  0.00     0.126 A 
ATOM      8  C   UNL d   1      51.925  31.694  53.217  0.00  0.00     0.009 A 
ATOM      9  C   UNL d   1      53.349  31.659  53.349  0.00  0.00     0.199 A 
ATOM     10  O   UNL d   1      50.513  32.574  53.083  0.00  0.00    -0.284 OA
ATOM     11  C   UNL d   1      52.625  31.264  53.283  0.00  0.00     0.042 A 
ATOM     12  O   UNL d   1      54.050  31.229  53.416  0.00  0.00    -0.286 OA
ATOM     13  C   UNL d   1      52.016  35.018  53.218  0.00  0.00     0.029 C 
ENDROOT
BRANCH   2  14
ATOM     14  O   UNL d   1      50.560  34.228  53.084  0.00  0.00    -0.302 OA
BRANCH  14  15
ATOM     15  C   UNL d   1      50.202  34.327  52.347  0.00  0.00     0.102 A 
ATOM     16  C   UNL d   1      49.381  34.395  52.295  0.00  0.00     0.049 A 
ATOM     17  C   UNL d   1      49.024  34.494  51.558  0.00  0.00     0.096 A 
ATOM     18  C   UNL d   1      49.486  34.524  50.874  0.00  0.00     0.024 A 
ATOM     19  C   UNL d   1      50.318  34.455  50.933  0.00  0.00     0.004 A 
ATOM     20  C   UNL d   1      50.665  34.357  51.669  0.00  0.00     0.025 A 
BRANCH  17  21
ATOM     21  O   UNL d   1      48.203  34.561  51.506  0.00  0.00    -0.328 OA
ATOM     22  C   UNL d   1      47.861  35.296  51.349  0.00  0.00     0.181 C 
ENDBRANCH  17  21
ENDBRANCH  14  15
ENDBRANCH   2  14
BRANCH   5  23
ATOM     23  C   UNL d   1      54.088  32.874  53.416  0.00  0.00     0.086 C 
BRANCH  23  24
ATOM     24  N   UNL d   1      54.394  33.051  54.165  0.00  0.00    -0.299 N 
ATOM     25  C   UNL d   1      54.986  33.624  54.239  0.00  0.00     0.107 A 
ATOM     26  C   UNL d   1      55.293  33.802  54.984  0.00  0.00     0.142 A 
ATOM     27  O   UNL d   1      55.007  33.408  55.655  0.00  0.00    -0.300 OA
ATOM     28  C   UNL d   1      54.415  32.836  55.576  0.00  0.00     0.142 A 
ATOM     29  C   UNL d   1      54.106  32.656  54.827  0.00  0.00     0.107 A 
ENDBRANCH  23  24
ENDBRANCH   5  23
TORSDOF 5
ENDMDL
MODEL 3
REMARK VINA RESULT:      -7.7      0.990      2.127
REMARK  5 active torsions:
REMARK  status: ('A' for Active; 'I' for Inactive)
REMARK    1  A    between atoms: O_8  and  C_2 
REMARK    2  A    between atoms: C_9  and  C_5 
REMARK    3  A    between atoms: C_14  and  O_8 
REMARK    4  A    between atoms: N_11  and  C_9 
REMARK    5  A    between atoms: O_21  and  C_18 
ROOT
ATOM      1  C   UNL d   1      52.545  33.346  53.695  0.00  0.00     0.108 A 
ATOM      2  C   UNL d   1      53.363  31.925  53.408  0.00  0.00     0.161 A 
ATOM      3  C   UNL d   1      52.397  32.913  52.997  0.00  0.00     0.064 A 
ATOM      4  C   UNL d   1      52.802  32.212  52.858  0.00  0.00     0.222 A 
ATOM      5  C   UNL d   1      52.136  34.057  53.839  0.00  0.00     0.079 A 
ATOM      6  O   UNL d   1      53.099  33.075  54.252  0.00  0.00    -0.305 OA
ATOM      7  C   UNL d   1      53.511  32.361  54.110  0.00  0.00     0.126 A 
ATOM      8  C   UNL d   1      51.839  33.204  52.454  0.00  0.00     0.009 A 
ATOM      9  C   UNL d   1      51.584  34.335  53.292  0.00  0.00     0.199 A 
ATOM     10  O   UNL d   1      52.660  31.780  52.169  0.00  0.00    -0.284 OA
ATOM     11  C   UNL d   1      51.435  33.908  52.600  0.00  0.00     0.042 A 
ATOM     12  O   UNL d   1      51.181  35.040  53.439  0.00  0.00    -0.286 OA
ATOM     13  C   UNL d   1      54.062  32.083  54.657  0.00  0.00     0.029 C 
ENDROOT
BRANCH   2  14
ATOM     14  O   UNL d   1      53.767  31.223  53.266  0.00  0.00    -0.302 OA
BRANCH  14  15
ATOM     15  C   UNL d   1      53.401  30.498  53.413  0.00  0.00     0.102 A 
ATOM     16  C   UNL d   1      53.468  30.148  54.157  0.00  0.00     0.049 A 
ATOM     17  C   UNL d   1      53.102  29.423  54.305  0.00  0.00     0.096 A 
ATOM     18  C   UNL d   1      52.670  29.049  53.708  0.00  0.00     0.024 A 
ATOM     19  C   UNL d   1      52.606  29.408  52.955  0.00  0.00     0.004 A 
ATOM     20  C   UNL d   1      52.972  30.128  52.817  0.00  0.00     0.025 A 
BRANCH  17  21
ATOM     21  O   UNL d   1      53.168  29.074  55.049  0.00  0.00    -0.328 OA
ATOM     22  C   UNL d   1      53.586  28.367  55.135  0.00  0.00     0.181 C 
ENDBRANCH  17  21
ENDBRANCH  14  15
ENDBRANCH   2  14
BRANCH   5  23
ATOM     23  C   UNL d   1      52.283  34.479  54.525  0.00  0.00     0.086 C 
BRANCH  23  24
ATOM     24  N   UNL d   1      52.704  35.191  54.489  0.00  0.00    -0.299 N 
ATOM     25  C   UNL d   1      52.490  35.818  54.984  0.00  0.00     0.107 A 
ATOM     26  C   UNL d   1      52.908  36.528  54.949  0.00  0.00     0.142 A 
ATOM     27  O   UNL d   1      53.540  36.612  54.420  0.00  0.00    -0.300 OA
ATOM     28  C   UNL d   1      53.751  35.983  53.927  0.00  0.00     0.142 A 
ATOM     29  C   UNL d   1      53.331  35.268  53.960  0.00  0.00     0.107 A 
ENDBRANCH  23  24
ENDBRANCH   5  23
TORSDOF 5
ENDMDL
MODEL 4
REMARK VINA RESULT:      -6.7      1.679      4.893
REMARK  5 active torsions:
REMARK  status: ('A' for Active; 'I' for Inactive)
REMARK    1  A    between atoms: O_8  and  C_2 
REMARK    2  A    between atoms: C_9  and  C_5 
REMARK    3  A    between atoms: C_14  and  O_8 
REMARK    4  A    between atoms: N_11  and  C_9 
REMARK    5  A    between atoms: O_21  and  C_18 
ROOT
ATOM      1  C   UNL d   1      53.251  31.279  53.315  0.00  0.00     0.108 A 
ATOM      2  C   UNL d   1      53.622  32.902  53.333  0.00  0.00     0.161 A 
ATOM      3  C   UNL d   1      52.673  31.843  53.103  0.00  0.00     0.064 A 
ATOM      4  C   UNL d   1      52.859  32.642  53.113  0.00  0.00     0.222 A 
ATOM      5  C   UNL d   1      53.066  30.467  53.306  0.00  0.00     0.079 A 
ATOM      6  O   UNL d   1      54.015  31.520  53.537  0.00  0.00    -0.305 OA
ATOM      7  C   UNL d   1      54.204  32.335  53.547  0.00  0.00     0.126 A 
ATOM      8  C   UNL d   1      51.915  31.578  52.885  0.00  0.00     0.009 A 
ATOM      9  C   UNL d   1      52.310  30.218  53.088  0.00  0.00     0.199 A 
ATOM     10  O   UNL d   1      52.290  33.203  52.904  0.00  0.00    -0.284 OA
ATOM     11  C   UNL d   1      51.735  30.774  52.877  0.00  0.00     0.042 A 
ATOM     12  O   UNL d   1      52.130  29.413  53.080  0.00  0.00    -0.286 OA
ATOM     13  C   UNL d   1      54.959  32.585  53.765  0.00  0.00     0.029 C 
ENDROOT
BRANCH   2  14
ATOM     14  O   UNL d   1      53.805  33.704  53.342  0.00  0.00    -0.302 OA
BRANCH  14  15
ATOM     15  C   UNL d   1      53.653  34.156  54.016  0.00  0.00     0.102 A 
ATOM     16  C   UNL d   1      53.221  34.856  53.950  0.00  0.00     0.049 A 
ATOM     17  C   UNL d   1      53.068  35.308  54.624  0.00  0.00     0.096 A 
ATOM     18  C   UNL d   1      53.346  35.060  55.361  0.00  0.00     0.024 A 
ATOM     19  C   UNL d   1      53.784  34.350  55.421  0.00  0.00     0.004 A 
ATOM     20  C   UNL d   1      53.931  33.906  54.747  0.00  0.00     0.025 A 
BRANCH  17  21
ATOM     21  O   UNL d   1      52.636  36.008  54.558  0.00  0.00    -0.328 OA
ATOM     22  C   UNL d   1      52.941  36.709  54.870  0.00  0.00     0.181 C 
ENDBRANCH  17  21
ENDBRANCH  14  15
ENDBRANCH   2  14
BRANCH   5  23
ATOM     23  C   UNL d   1      53.635  29.918  53.515  0.00  0.00     0.086 C 
BRANCH  23  24
ATOM     24  N   UNL d   1      53.530  29.452  54.191  0.00  0.00    -0.299 N 
ATOM     25  C   UNL d   1      53.667  28.637  54.152  0.00  0.00     0.107 A 
ATOM     26  C   UNL d   1      53.564  28.171  54.824  0.00  0.00     0.142 A 
ATOM     27  O   UNL d   1      53.323  28.518  55.537  0.00  0.00    -0.300 OA
ATOM     28  C   UNL d   1      53.187  29.333  55.573  0.00  0.00     0.142 A 
ATOM     29  C   UNL d   1      53.291  29.804  54.896  0.00  0.00     0.107 A 
ENDBRANCH  23  24
ENDBRANCH   5  23
TORSDOF 5
ENDMDL
MODEL 5
REMARK VINA RESULT:      -6.7      1.363      4.674
REMARK  5 active torsions:
REMARK  status: ('A' for Active; 'I' for Inactive)
REMARK    1  A    between atoms: O_8  and  C_2 
REMARK    2  A    between atoms: C_9  and  C_5 
REMARK    3  A    between atoms: C_14  and  O_8 
REMARK    4  A    between atoms: N_11  and  C_9 
REMARK    5  A    between atoms: O_21  and  C_18 
ROOT
ATOM      1  C   UNL d   1      52.764  33.015  53.641  0.00  0.00     0.108 A 
ATOM      2  C   UNL d   1      51.589  34.136  53.273  0.00  0.00     0.161 A 
ATOM      3  C   UNL d   1      52.974  33.736  53.277  0.00  0.00     0.064 A 
ATOM      4  C   UNL d   1      52.393  34.287  53.096  0.00  0.00     0.222 A 
ATOM      5  C   UNL d   1      53.350  32.454  53.826  0.00  0.00     0.079 A 
ATOM      6  O   UNL d   1      51.970  32.849  53.824  0.00  0.00    -0.305 OA
ATOM      7  C   UNL d   1      51.378  33.410  53.640  0.00  0.00     0.126 A 
ATOM      8  C   UNL d   1      53.774  33.880  53.104  0.00  0.00     0.009 A 
ATOM      9  C   UNL d   1      54.141  32.610  53.649  0.00  0.00     0.199 A 
ATOM     10  O   UNL d   1      52.595  35.002  52.735  0.00  0.00    -0.284 OA
ATOM     11  C   UNL d   1      54.353  33.323  53.288  0.00  0.00     0.042 A 
ATOM     12  O   UNL d   1      54.720  32.051  53.833  0.00  0.00    -0.286 OA
ATOM     13  C   UNL d   1      50.587  33.256  53.816  0.00  0.00     0.029 C 
ENDROOT
BRANCH   2  14
ATOM     14  O   UNL d   1      51.009  34.690  53.090  0.00  0.00    -0.302 OA
BRANCH  14  15
ATOM     15  C   UNL d   1      50.533  34.586  52.425  0.00  0.00     0.102 A 
ATOM     16  C   UNL d   1      49.723  34.740  52.472  0.00  0.00     0.049 A 
ATOM     17  C   UNL d   1      49.246  34.636  51.806  0.00  0.00     0.096 A 
ATOM     18  C   UNL d   1      49.579  34.380  51.095  0.00  0.00     0.024 A 
ATOM     19  C   UNL d   1      50.400  34.226  51.053  0.00  0.00     0.004 A 
ATOM     20  C   UNL d   1      50.867  34.331  51.718  0.00  0.00     0.025 A 
BRANCH  17  21
ATOM     21  O   UNL d   1      48.437  34.789  51.854  0.00  0.00    -0.328 OA
ATOM     22  C   UNL d   1      48.047  35.136  51.214  0.00  0.00     0.181 C 
ENDBRANCH  17  21
ENDBRANCH  14  15
ENDBRANCH   2  14
BRANCH   5  23
ATOM     23  C   UNL d   1      53.141  31.749  54.183  0.00  0.00     0.086 C 
BRANCH  23  24
ATOM     24  N   UNL d   1      53.157  31.045  53.748  0.00  0.00    -0.299 N 
ATOM     25  C   UNL d   1      52.803  31.018  53.001  0.00  0.00     0.107 A 
ATOM     26  C   UNL d   1      52.817  30.318  52.565  0.00  0.00     0.142 A 
ATOM     27  O   UNL d   1      53.185  29.644  52.876  0.00  0.00    -0.300 OA
ATOM     28  C   UNL d   1      53.538  29.674  53.623  0.00  0.00     0.142 A 
ATOM     29  C   UNL d   1      53.524  30.378  54.063  0.00  0.00     0.107 A 
ENDBRANCH  23  24
ENDBRANCH   5  23
TORSDOF 5
ENDMDL
MODEL 6
REMARK VINA RESULT:      -6.7      1.202      4.532
REMARK  5 active torsions:
REMARK  status: ('A' for Active; 'I' for Inactive)
REMARK    1  A    between atoms: O_8  and  C_2 
REMARK    2  A    between atoms: C_9  and  C_5 
REMARK    3  A    between atoms: C_14  and  O_8 
REMARK    4  A    between atoms: N_11  and  C_9 
REMARK    5  A    between atoms: O_21  and  C_18 
ROOT
ATOM      1  C   UNL d   1      52.995  33.140  53.504  0.00  0.00     0.108 A 
ATOM      2  C   UNL d   1      51.985  34.337  52.942  0.00  0.00     0.161 A 
ATOM      3  C   UNL d   1      52.765  33.764  54.009  0.00  0.00     0.064 A 
ATOM      4  C   UNL d   1      52.267  34.353  53.729  0.00  0.00     0.222 A 
ATOM      5  C   UNL d   1      53.501  32.541  53.785  0.00  0.00     0.079 A 
ATOM      6  O   UNL d   1      52.724  33.109  52.719  0.00  0.00    -0.305 OA
ATOM      7  C   UNL d   1      52.216  33.709  52.434  0.00  0.00     0.126 A 
ATOM      8  C   UNL d   1      53.049  33.774  54.791  0.00  0.00     0.009 A 
ATOM      9  C   UNL d   1      53.775  32.562  54.563  0.00  0.00     0.199 A 
ATOM     10  O   UNL d   1      52.036  34.972  54.225  0.00  0.00    -0.284 OA
ATOM     11  C   UNL d   1      53.549  33.179  55.066  0.00  0.00     0.042 A 
ATOM     12  O   UNL d   1      54.276  31.967  54.838  0.00  0.00    -0.286 OA
ATOM     13  C   UNL d   1      51.941  33.689  51.657  0.00  0.00     0.029 C 
ENDROOT
BRANCH   2  14
ATOM     14  O   UNL d   1      51.485  34.929  52.664  0.00  0.00    -0.302 OA
BRANCH  14  15
ATOM     15  C   UNL d   1      50.668  34.816  52.667  0.00  0.00     0.102 A 
ATOM     16  C   UNL d   1      50.195  35.255  53.182  0.00  0.00     0.049 A 
ATOM     17  C   UNL d   1      49.377  35.141  53.184  0.00  0.00     0.096 A 
ATOM     18  C   UNL d   1      49.034  34.591  52.673  0.00  0.00     0.024 A 
ATOM     19  C   UNL d   1      49.518  34.149  52.154  0.00  0.00     0.004 A 
ATOM     20  C   UNL d   1      50.329  34.267  52.157  0.00  0.00     0.025 A 
BRANCH  17  21
ATOM     21  O   UNL d   1      48.904  35.580  53.699  0.00  0.00    -0.328 OA
ATOM     22  C   UNL d   1      48.233  35.964  53.412  0.00  0.00     0.181 C 
ENDBRANCH  17  21
ENDBRANCH  14  15
ENDBRANCH   2  14
BRANCH   5  23
ATOM     23  C   UNL d   1      53.724  31.931  53.288  0.00  0.00     0.086 C 
BRANCH  23  24
ATOM     24  N   UNL d   1      53.398  31.176  53.388  0.00  0.00    -0.299 N 
ATOM     25  C   UNL d   1      52.765  30.937  52.912  0.00  0.00     0.107 A 
ATOM     26  C   UNL d   1      52.440  30.186  53.010  0.00  0.00     0.142 A 
ATOM     27  O   UNL d   1      52.746  29.673  53.584  0.00  0.00    -0.300 OA
ATOM     28  C   UNL d   1      53.378  29.915  54.058  0.00  0.00     0.142 A 
ATOM     29  C   UNL d   1      53.707  30.671  53.960  0.00  0.00     0.107 A 
ENDBRANCH  23  24
ENDBRANCH   5  23
TORSDOF 5
ENDMDL
MODEL 7
REMARK VINA RESULT:      -6.0      1.645      3.709
REMARK  5 active torsions:
REMARK  status: ('A' for Active; 'I' for Inactive)
REMARK    1  A    between atoms: O_8  and  C_2 
REMARK    2  A    between atoms: C_9  and  C_5 
REMARK    3  A    between atoms: C_14  and  O_8 
REMARK    4  A    between atoms: N_11  and  C_9 
REMARK    5  A    between atoms: O_21  and  C_18 
ROOT
ATOM      1  C   UNL d   1      50.229  34.447  52.407  0.00  0.00     0.108 A 
ATOM      2  C   UNL d   1      51.825  34.365  52.876  0.00  0.00     0.161 A 
ATOM      3  C   UNL d   1      50.831  34.378  51.832  0.00  0.00     0.064 A 
ATOM      4  C   UNL d   1      51.617  34.338  52.067  0.00  0.00     0.222 A 
ATOM      5  C   UNL d   1      49.432  34.488  52.173  0.00  0.00     0.079 A 
ATOM      6  O   UNL d   1      50.419  34.475  53.216  0.00  0.00    -0.305 OA
ATOM      7  C   UNL d   1      51.219  34.435  53.454  0.00  0.00     0.126 A 
ATOM      8  C   UNL d   1      50.619  34.352  51.029  0.00  0.00     0.009 A 
ATOM      9  C   UNL d   1      49.234  34.461  51.372  0.00  0.00     0.199 A 
ATOM     10  O   UNL d   1      52.216  34.270  51.502  0.00  0.00    -0.284 OA
ATOM     11  C   UNL d   1      49.827  34.392  50.800  0.00  0.00     0.042 A 
ATOM     12  O   UNL d   1      48.442  34.501  51.144  0.00  0.00    -0.286 OA
ATOM     13  C   UNL d   1      51.418  34.462  54.254  0.00  0.00     0.029 C 
ENDROOT
BRANCH   2  14
ATOM     14  O   UNL d   1      52.613  34.325  53.108  0.00  0.00    -0.302 OA
BRANCH  14  15
ATOM     15  C   UNL d   1      52.931  33.610  53.370  0.00  0.00     0.102 A 
ATOM     16  C   UNL d   1      52.838  32.928  52.915  0.00  0.00     0.049 A 
ATOM     17  C   UNL d   1      53.156  32.213  53.177  0.00  0.00     0.096 A 
ATOM     18  C   UNL d   1      53.566  32.180  53.893  0.00  0.00     0.024 A 
ATOM     19  C   UNL d   1      53.658  32.875  54.350  0.00  0.00     0.004 A 
ATOM     20  C   UNL d   1      53.339  33.581  54.083  0.00  0.00     0.025 A 
BRANCH  17  21
ATOM     21  O   UNL d   1      53.062  31.531  52.722  0.00  0.00    -0.328 OA
ATOM     22  C   UNL d   1      52.782  30.839  53.073  0.00  0.00     0.181 C 
ENDBRANCH  17  21
ENDBRANCH  14  15
ENDBRANCH   2  14
BRANCH   5  23
ATOM     23  C   UNL d   1      48.845  34.555  52.738  0.00  0.00     0.086 C 
BRANCH  23  24
ATOM     24  N   UNL d   1      48.447  35.275  52.837  0.00  0.00    -0.299 N 
ATOM     25  C   UNL d   1      48.498  35.675  53.559  0.00  0.00     0.107 A 
ATOM     26  C   UNL d   1      48.102  36.392  53.659  0.00  0.00     0.142 A 
ATOM     27  O   UNL d   1      47.655  36.709  53.038  0.00  0.00    -0.300 OA
ATOM     28  C   UNL d   1      47.607  36.306  52.317  0.00  0.00     0.142 A 
ATOM     29  C   UNL d   1      48.005  35.585  52.215  0.00  0.00     0.107 A 
ENDBRANCH  23  24
ENDBRANCH   5  23
TORSDOF 5
ENDMDL
