MODEL 1
REMARK VINA RESULT:      -2.9      0.000      0.000
REMARK  4 active torsions:
REMARK  status: ('A' for Active; 'I' for Inactive)
REMARK    1  A    between atoms: N_2  and  C_1 
REMARK       I    between atoms: C_3  and  N_2 
REMARK    2  A    between atoms: C_6  and  C_3 
REMARK    3  A    between atoms: C_11  and  C_7 
REMARK    4  A    between atoms: C_8  and  C_11 
ROOT
ATOM      1  C   UNL d   1      33.216  19.264 -22.677  0.00  0.00     0.197 A 
ATOM      2  N   UNL d   1      33.241  19.490 -23.450  0.00  0.00    -0.219 NA
ATOM      3  S   UNL d   1      33.161  18.433 -22.652  0.00  0.00    -0.047 SA
ATOM      4  C   UNL d   1      33.153  18.164 -23.422  0.00  0.00     0.051 A 
ATOM      5  C   UNL d   1      33.203  18.814 -23.932  0.00  0.00     0.108 A 
ENDROOT
BRANCH   4   6
ATOM      6  C   UNL d   1      33.109  17.425 -23.763  0.00  0.00     0.009 C 
BRANCH   6   7
ATOM      7  C   UNL d   1      32.369  17.022 -23.760  0.00  0.00     0.012 A 
ATOM      8  C   UNL d   1      32.325  16.246 -23.496  0.00  0.00     0.058 A 
ATOM      9  C   UNL d   1      31.584  15.839 -23.493  0.00  0.00     0.012 A 
ATOM     10 CL   UNL d   1      33.006  15.851 -23.230  0.00  0.00    -0.082 Cl
ATOM     11  C   UNL d   1      30.913  16.210 -23.749  0.00  0.00     0.012 A 
ATOM     12  C   UNL d   1      30.942  16.998 -24.020  0.00  0.00     0.058 A 
ATOM     13  C   UNL d   1      31.682  17.396 -24.021  0.00  0.00     0.012 A 
ATOM     14 CL   UNL d   1      30.223  17.357 -24.282  0.00  0.00    -0.082 Cl
ENDBRANCH   6   7
ENDBRANCH   4   6
BRANCH   1  15
ATOM     15  N   UNL d   1      33.241  19.781 -22.015  0.00  0.00    -0.182 NA
ATOM     16  C   UNL d   1      32.773  20.451 -21.981  0.00  0.00     0.287 C 
ATOM     17  O   UNL d   1      32.276  20.612 -22.603  0.00  0.00    -0.265 OA
BRANCH  16  18
ATOM     18  C   UNL d   1      32.804  20.940 -21.343  0.00  0.00     0.087 A 
ATOM     19  S   UNL d   1      33.129  20.846 -20.590  0.00  0.00    -0.082 SA
ATOM     20  C   UNL d   1      32.984  21.549 -20.175  0.00  0.00     0.036 A 
ATOM     21  C   UNL d   1      32.598  22.036 -20.641  0.00  0.00     0.008 A 
ATOM     22  C   UNL d   1      32.475  21.670 -21.382  0.00  0.00     0.012 A 
ENDBRANCH  16  18
ENDBRANCH   1  15
TORSDOF 4
ENDMDL
MODEL 2
REMARK VINA RESULT:      -2.3      1.134      1.495
REMARK  4 active torsions:
REMARK  status: ('A' for Active; 'I' for Inactive)
REMARK    1  A    between atoms: N_2  and  C_1 
REMARK       I    between atoms: C_3  and  N_2 
REMARK    2  A    between atoms: C_6  and  C_3 
REMARK    3  A    between atoms: C_11  and  C_7 
REMARK    4  A    between atoms: C_8  and  C_11 
ROOT
ATOM      1  C   UNL d   1      33.188  20.087 -22.063  0.00  0.00     0.197 A 
ATOM      2  N   UNL d   1      33.179  19.574 -21.442  0.00  0.00    -0.219 NA
ATOM      3  S   UNL d   1      33.214  19.641 -22.767  0.00  0.00    -0.047 SA
ATOM      4  C   UNL d   1      33.219  18.853 -22.558  0.00  0.00     0.051 A 
ATOM      5  C   UNL d   1      33.198  18.796 -21.733  0.00  0.00     0.108 A 
ENDROOT
BRANCH   4   6
ATOM      6  C   UNL d   1      33.241  18.156 -22.980  0.00  0.00     0.009 C 
BRANCH   6   7
ATOM      7  C   UNL d   1      32.591  17.967 -23.483  0.00  0.00     0.012 A 
ATOM      8  C   UNL d   1      32.236  17.229 -23.434  0.00  0.00     0.058 A 
ATOM      9  C   UNL d   1      31.584  17.037 -23.937  0.00  0.00     0.012 A 
ATOM     10 CL   UNL d   1      32.511  16.663 -22.891  0.00  0.00    -0.082 Cl
ATOM     11  C   UNL d   1      31.305  17.577 -24.469  0.00  0.00     0.012 A 
ATOM     12  C   UNL d   1      31.656  18.331 -24.530  0.00  0.00     0.058 A 
ATOM     13  C   UNL d   1      32.304  18.516 -24.028  0.00  0.00     0.012 A 
ATOM     14 CL   UNL d   1      31.341  18.873 -25.097  0.00  0.00    -0.082 Cl
ENDBRANCH   6   7
ENDBRANCH   4   6
BRANCH   1  15
ATOM     15  N   UNL d   1      33.175  20.925 -22.006  0.00  0.00    -0.182 NA
ATOM     16  C   UNL d   1      32.613  21.311 -21.554  0.00  0.00     0.287 C 
ATOM     17  O   UNL d   1      32.060  20.868 -21.156  0.00  0.00    -0.265 OA
BRANCH  16  18
ATOM     18  C   UNL d   1      32.608  22.114 -21.504  0.00  0.00     0.087 A 
ATOM     19  S   UNL d   1      32.964  22.698 -21.966  0.00  0.00    -0.082 SA
ATOM     20  C   UNL d   1      32.753  23.429 -21.636  0.00  0.00     0.036 A 
ATOM     21  C   UNL d   1      32.301  23.300 -21.018  0.00  0.00     0.008 A 
ATOM     22  C   UNL d   1      32.198  22.476 -20.918  0.00  0.00     0.012 A 
ENDBRANCH  16  18
ENDBRANCH   1  15
TORSDOF 4
ENDMDL
MODEL 3
REMARK VINA RESULT:      -2.1      2.445      5.066
REMARK  4 active torsions:
REMARK  status: ('A' for Active; 'I' for Inactive)
REMARK    1  A    between atoms: N_2  and  C_1 
REMARK       I    between atoms: C_3  and  N_2 
REMARK    2  A    between atoms: C_6  and  C_3 
REMARK    3  A    between atoms: C_11  and  C_7 
REMARK    4  A    between atoms: C_8  and  C_11 
ROOT
ATOM      1  C   UNL d   1      33.089  19.720 -22.525  0.00  0.00     0.197 A 
ATOM      2  N   UNL d   1      33.040  19.402 -21.786  0.00  0.00    -0.219 NA
ATOM      3  S   UNL d   1      33.171  20.546 -22.446  0.00  0.00    -0.047 SA
ATOM      4  C   UNL d   1      33.170  20.717 -21.649  0.00  0.00     0.051 A 
ATOM      5  C   UNL d   1      33.089  20.012 -21.224  0.00  0.00     0.108 A 
ENDROOT
BRANCH   4   6
ATOM      6  C   UNL d   1      33.230  21.407 -21.218  0.00  0.00     0.009 C 
BRANCH   6   7
ATOM      7  C   UNL d   1      32.916  22.117 -21.546  0.00  0.00     0.012 A 
ATOM      8  C   UNL d   1      32.363  22.553 -21.125  0.00  0.00     0.058 A 
ATOM      9  C   UNL d   1      32.046  23.266 -21.451  0.00  0.00     0.012 A 
ATOM     10 CL   UNL d   1      32.108  22.302 -20.375  0.00  0.00    -0.082 Cl
ATOM     11  C   UNL d   1      32.285  23.524 -22.179  0.00  0.00     0.012 A 
ATOM     12  C   UNL d   1      32.846  23.091 -22.618  0.00  0.00     0.058 A 
ATOM     13  C   UNL d   1      33.156  22.384 -22.288  0.00  0.00     0.012 A 
ATOM     14 CL   UNL d   1      33.074  23.387 -23.376  0.00  0.00    -0.082 Cl
ENDBRANCH   6   7
ENDBRANCH   4   6
BRANCH   1  15
ATOM     15  N   UNL d   1      33.061  19.290 -23.246  0.00  0.00    -0.182 NA
ATOM     16  C   UNL d   1      32.672  18.573 -23.299  0.00  0.00     0.287 C 
ATOM     17  O   UNL d   1      32.307  18.277 -22.636  0.00  0.00    -0.265 OA
BRANCH  16  18
ATOM     18  C   UNL d   1      32.651  18.168 -23.994  0.00  0.00     0.087 A 
ATOM     19  S   UNL d   1      33.236  17.769 -24.418  0.00  0.00    -0.082 SA
ATOM     20  C   UNL d   1      32.873  17.460 -25.097  0.00  0.00     0.036 A 
ATOM     21  C   UNL d   1      32.122  17.657 -25.087  0.00  0.00     0.008 A 
ATOM     22  C   UNL d   1      31.962  18.104 -24.399  0.00  0.00     0.012 A 
ENDBRANCH  16  18
ENDBRANCH   1  15
TORSDOF 4
ENDMDL
MODEL 4
REMARK VINA RESULT:      -0.9      2.068      4.725
REMARK  4 active torsions:
REMARK  status: ('A' for Active; 'I' for Inactive)
REMARK    1  A    between atoms: N_2  and  C_1 
REMARK       I    between atoms: C_3  and  N_2 
REMARK    2  A    between atoms: C_6  and  C_3 
REMARK    3  A    between atoms: C_11  and  C_7 
REMARK    4  A    between atoms: C_8  and  C_11 
ROOT
ATOM      1  C   UNL d   1      33.225  19.242 -23.818  0.00  0.00     0.197 A 
ATOM      2  N   UNL d   1      33.228  19.670 -24.500  0.00  0.00    -0.219 NA
ATOM      3  S   UNL d   1      33.228  19.776 -23.178  0.00  0.00    -0.047 SA
ATOM      4  C   UNL d   1      33.234  20.530 -23.487  0.00  0.00     0.051 A 
ATOM      5  C   UNL d   1      33.234  20.479 -24.313  0.00  0.00     0.108 A 
ENDROOT
BRANCH   4   6
ATOM      6  C   UNL d   1      33.239  21.276 -23.159  0.00  0.00     0.009 C 
BRANCH   6   7
ATOM      7  C   UNL d   1      33.072  21.357 -22.337  0.00  0.00     0.012 A 
ATOM      8  C   UNL d   1      32.750  22.056 -22.051  0.00  0.00     0.058 A 
ATOM      9  C   UNL d   1      32.582  22.140 -21.226  0.00  0.00     0.012 A 
ATOM     10 CL   UNL d   1      32.586  22.687 -22.565  0.00  0.00    -0.082 Cl
ATOM     11  C   UNL d   1      32.737  21.535 -20.714  0.00  0.00     0.012 A 
ATOM     12  C   UNL d   1      33.063  20.819 -20.990  0.00  0.00     0.058 A 
ATOM     13  C   UNL d   1      33.228  20.742 -21.810  0.00  0.00     0.012 A 
ATOM     14 CL   UNL d   1      33.213  20.205 -20.428  0.00  0.00    -0.082 Cl
ENDBRANCH   6   7
ENDBRANCH   4   6
BRANCH   1  15
ATOM     15  N   UNL d   1      33.219  18.403 -23.766  0.00  0.00    -0.182 NA
ATOM     16  C   UNL d   1      32.534  17.974 -23.892  0.00  0.00     0.287 C 
ATOM     17  O   UNL d   1      31.850  18.374 -24.069  0.00  0.00    -0.265 OA
BRANCH  16  18
ATOM     18  C   UNL d   1      32.539  17.171 -23.840  0.00  0.00     0.087 A 
ATOM     19  S   UNL d   1      32.848  16.588 -24.335  0.00  0.00    -0.082 SA
ATOM     20  C   UNL d   1      32.676  15.857 -23.983  0.00  0.00     0.036 A 
ATOM     21  C   UNL d   1      32.291  15.985 -23.321  0.00  0.00     0.008 A 
ATOM     22  C   UNL d   1      32.194  16.809 -23.213  0.00  0.00     0.012 A 
ENDBRANCH  16  18
ENDBRANCH   1  15
TORSDOF 4
ENDMDL
MODEL 5
REMARK VINA RESULT:      -0.7      2.163      3.184
REMARK  4 active torsions:
REMARK  status: ('A' for Active; 'I' for Inactive)
REMARK    1  A    between atoms: N_2  and  C_1 
REMARK       I    between atoms: C_3  and  N_2 
REMARK    2  A    between atoms: C_6  and  C_3 
REMARK    3  A    between atoms: C_11  and  C_7 
REMARK    4  A    between atoms: C_8  and  C_11 
ROOT
ATOM      1  C   UNL d   1      32.726  21.682 -21.120  0.00  0.00     0.197 A 
ATOM      2  N   UNL d   1      32.165  21.940 -21.638  0.00  0.00    -0.219 NA
ATOM      3  S   UNL d   1      33.241  21.171 -21.531  0.00  0.00    -0.047 SA
ATOM      4  C   UNL d   1      32.980  21.127 -22.302  0.00  0.00     0.051 A 
ATOM      5  C   UNL d   1      32.308  21.602 -22.384  0.00  0.00     0.108 A 
ENDROOT
BRANCH   4   6
ATOM      6  C   UNL d   1      33.239  20.729 -22.964  0.00  0.00     0.009 C 
BRANCH   6   7
ATOM      7  C   UNL d   1      33.225  19.886 -22.962  0.00  0.00     0.012 A 
ATOM      8  C   UNL d   1      33.196  19.474 -23.670  0.00  0.00     0.058 A 
ATOM      9  C   UNL d   1      33.182  18.628 -23.670  0.00  0.00     0.012 A 
ATOM     10 CL   UNL d   1      33.180  19.880 -24.395  0.00  0.00    -0.082 Cl
ATOM     11  C   UNL d   1      33.197  18.219 -22.973  0.00  0.00     0.012 A 
ATOM     12  C   UNL d   1      33.226  18.624 -22.246  0.00  0.00     0.058 A 
ATOM     13  C   UNL d   1      33.240  19.464 -22.253  0.00  0.00     0.012 A 
ATOM     14 CL   UNL d   1      33.241  18.168 -21.534  0.00  0.00    -0.082 Cl
ENDBRANCH   6   7
ENDBRANCH   4   6
BRANCH   1  15
ATOM     15  N   UNL d   1      32.778  21.895 -20.309  0.00  0.00    -0.182 NA
ATOM     16  C   UNL d   1      33.017  22.642 -20.080  0.00  0.00     0.287 C 
ATOM     17  O   UNL d   1      33.207  23.184 -20.654  0.00  0.00    -0.265 OA
BRANCH  16  18
ATOM     18  C   UNL d   1      33.064  22.837 -19.300  0.00  0.00     0.087 A 
ATOM     19  S   UNL d   1      33.198  22.382 -18.625  0.00  0.00    -0.082 SA
ATOM     20  C   UNL d   1      33.183  22.901 -17.979  0.00  0.00     0.036 A 
ATOM     21  C   UNL d   1      33.049  23.619 -18.240  0.00  0.00     0.008 A 
ATOM     22  C   UNL d   1      32.972  23.600 -19.073  0.00  0.00     0.012 A 
ENDBRANCH  16  18
ENDBRANCH   1  15
TORSDOF 4
ENDMDL
MODEL 6
REMARK VINA RESULT:      -0.3      3.302      4.744
REMARK  4 active torsions:
REMARK  status: ('A' for Active; 'I' for Inactive)
REMARK    1  A    between atoms: N_2  and  C_1 
REMARK       I    between atoms: C_3  and  N_2 
REMARK    2  A    between atoms: C_6  and  C_3 
REMARK    3  A    between atoms: C_11  and  C_7 
REMARK    4  A    between atoms: C_8  and  C_11 
ROOT
ATOM      1  C   UNL d   1      33.007  22.701 -19.599  0.00  0.00     0.197 A 
ATOM      2  N   UNL d   1      33.207  23.274 -20.128  0.00  0.00    -0.219 NA
ATOM      3  S   UNL d   1      32.623  22.089 -20.014  0.00  0.00    -0.047 SA
ATOM      4  C   UNL d   1      32.597  22.304 -20.800  0.00  0.00     0.051 A 
ATOM      5  C   UNL d   1      32.959  23.043 -20.886  0.00  0.00     0.108 A 
ENDROOT
BRANCH   4   6
ATOM      6  C   UNL d   1      32.302  21.952 -21.474  0.00  0.00     0.009 C 
BRANCH   6   7
ATOM      7  C   UNL d   1      32.617  21.208 -21.713  0.00  0.00     0.012 A 
ATOM      8  C   UNL d   1      32.818  21.081 -22.498  0.00  0.00     0.058 A 
ATOM      9  C   UNL d   1      33.134  20.336 -22.741  0.00  0.00     0.012 A 
ATOM     10 CL   UNL d   1      32.714  21.681 -23.063  0.00  0.00    -0.082 Cl
ATOM     11  C   UNL d   1      33.241  19.742 -22.203  0.00  0.00     0.012 A 
ATOM     12  C   UNL d   1      33.041  19.856 -21.402  0.00  0.00     0.058 A 
ATOM     13  C   UNL d   1      32.728  20.600 -21.167  0.00  0.00     0.012 A 
ATOM     14 CL   UNL d   1      33.165  19.216 -20.864  0.00  0.00    -0.082 Cl
ENDBRANCH   6   7
ENDBRANCH   4   6
BRANCH   1  15
ATOM     15  N   UNL d   1      33.160  22.722 -18.773  0.00  0.00    -0.182 NA
ATOM     16  C   UNL d   1      32.648  23.096 -18.255  0.00  0.00     0.287 C 
ATOM     17  O   UNL d   1      31.982  23.451 -18.553  0.00  0.00    -0.265 OA
BRANCH  16  18
ATOM     18  C   UNL d   1      32.804  23.111 -17.465  0.00  0.00     0.087 A 
ATOM     19  S   UNL d   1      33.240  22.607 -16.979  0.00  0.00    -0.082 SA
ATOM     20  C   UNL d   1      33.195  22.916 -16.211  0.00  0.00     0.036 A 
ATOM     21  C   UNL d   1      32.764  23.561 -16.227  0.00  0.00     0.008 A 
ATOM     22  C   UNL d   1      32.507  23.701 -17.011  0.00  0.00     0.012 A 
ENDBRANCH  16  18
ENDBRANCH   1  15
TORSDOF 4
ENDMDL
