MODEL 1
REMARK VINA RESULT:      -8.6      0.000      0.000
REMARK  9 active torsions:
REMARK  status: ('A' for Active; 'I' for Inactive)
REMARK    1  A    between atoms: N_2  and  S_1 
REMARK    2  A    between atoms: C_9  and  S_1 
REMARK    3  A    between atoms: C_4  and  N_2 
REMARK    4  A    between atoms: O_24  and  C_6 
REMARK    5  A    between atoms: O_26  and  C_7 
REMARK       I    between atoms: C_12  and  N_15 
REMARK    6  A    between atoms: C_22  and  C_12 
REMARK    7  A    between atoms: C_14  and  O_16 
REMARK    8  A    between atoms: N_15  and  C_23 
REMARK    9  A    between atoms: O_16  and  C_22 
ROOT
ATOM      1  C   UNL d   1      51.607  33.939  52.690  0.00  0.00     0.105 A 
ATOM      2  C   UNL d   1      51.092  33.899  53.326  0.00  0.00     0.015 A 
ATOM      3  C   UNL d   1      51.340  34.218  51.954  0.00  0.00     0.015 A 
ATOM      4  C   UNL d   1      50.045  34.407  52.513  0.00  0.00     0.085 A 
ATOM      5  C   UNL d   1      50.301  34.129  53.262  0.00  0.00     0.020 A 
ATOM      6  C   UNL d   1      50.556  34.448  51.881  0.00  0.00     0.020 A 
ENDROOT
BRANCH   1   7
ATOM      7  S   UNL d   1      52.392  33.709  52.763  0.00  0.00     0.287 S 
ATOM      8  O   UNL d   1      52.541  34.382  53.268  0.00  0.00    -0.198 OA
ATOM      9  O   UNL d   1      52.269  33.050  52.274  0.00  0.00    -0.198 OA
BRANCH   7  10
ATOM     10  N   UNL d   1      53.198  33.494  52.852  0.00  0.00    -0.139 NA
BRANCH  10  11
ATOM     11  C   UNL d   1      53.432  32.904  53.365  0.00  0.00     0.182 A 
ATOM     12  N   UNL d   1      53.411  32.135  53.142  0.00  0.00    -0.185 NA
ATOM     13  C   UNL d   1      53.649  31.519  53.658  0.00  0.00     0.274 A 
ATOM     14  N   UNL d   1      53.907  31.706  54.406  0.00  0.00    -0.181 NA
ATOM     15  C   UNL d   1      53.937  32.478  54.652  0.00  0.00     0.185 A 
ATOM     16  C   UNL d   1      53.690  33.101  54.110  0.00  0.00     0.084 A 
BRANCH  13  17
ATOM     17  O   UNL d   1      53.625  30.715  53.421  0.00  0.00    -0.297 OA
ATOM     18  C   UNL d   1      53.126  30.178  53.799  0.00  0.00     0.185 C 
ENDBRANCH  13  17
BRANCH  15  19
ATOM     19  O   UNL d   1      54.209  32.638  55.429  0.00  0.00    -0.312 OA
ATOM     20  C   UNL d   1      54.543  33.387  55.587  0.00  0.00     0.183 C 
ENDBRANCH  15  19
ENDBRANCH  10  11
ENDBRANCH   7  10
ENDBRANCH   1   7
BRANCH   4  21
ATOM     21  N   UNL d   1      49.257  34.647  52.412  0.00  0.00    -0.206 NA
ATOM     22  C   UNL d   1      49.005  35.343  52.810  0.00  0.00     0.304 C 
ATOM     23  O   UNL d   1      49.508  35.750  53.263  0.00  0.00    -0.263 OA
BRANCH  22  24
ATOM     24  C   UNL d   1      48.222  35.581  52.709  0.00  0.00     0.185 C 
BRANCH  24  25
ATOM     25  O   UNL d   1      47.759  35.788  53.356  0.00  0.00    -0.300 OA
BRANCH  25  26
ATOM     26  C   UNL d   1      46.964  36.021  53.220  0.00  0.00     0.100 A 
ATOM     27  C   UNL d   1      46.430  36.152  53.831  0.00  0.00     0.023 A 
ATOM     28  C   UNL d   1      45.660  36.378  53.686  0.00  0.00     0.002 A 
ATOM     29  C   UNL d   1      46.669  36.053  54.643  0.00  0.00     0.002 C 
ATOM     30  C   UNL d   1      45.411  36.478  52.926  0.00  0.00     0.000 A 
ATOM     31  C   UNL d   1      45.924  36.355  52.280  0.00  0.00     0.002 A 
ATOM     32  C   UNL d   1      44.626  36.709  52.758  0.00  0.00     0.000 C 
ATOM     33  C   UNL d   1      46.693  36.129  52.426  0.00  0.00     0.025 A 
ENDBRANCH  25  26
ENDBRANCH  24  25
ENDBRANCH  22  24
ENDBRANCH   4  21
TORSDOF 9
ENDMDL
MODEL 2
REMARK VINA RESULT:      -8.0      1.767      7.183
REMARK  9 active torsions:
REMARK  status: ('A' for Active; 'I' for Inactive)
REMARK    1  A    between atoms: N_2  and  S_1 
REMARK    2  A    between atoms: C_9  and  S_1 
REMARK    3  A    between atoms: C_4  and  N_2 
REMARK    4  A    between atoms: O_24  and  C_6 
REMARK    5  A    between atoms: O_26  and  C_7 
REMARK       I    between atoms: C_12  and  N_15 
REMARK    6  A    between atoms: C_22  and  C_12 
REMARK    7  A    between atoms: C_14  and  O_16 
REMARK    8  A    between atoms: N_15  and  C_23 
REMARK    9  A    between atoms: O_16  and  C_22 
ROOT
ATOM      1  C   UNL d   1      48.664  35.483  52.617  0.00  0.00     0.105 A 
ATOM      2  C   UNL d   1      49.110  35.356  53.293  0.00  0.00     0.015 A 
ATOM      3  C   UNL d   1      48.816  35.044  51.928  0.00  0.00     0.015 A 
ATOM      4  C   UNL d   1      49.859  34.360  52.613  0.00  0.00     0.085 A 
ATOM      5  C   UNL d   1      49.717  34.796  53.315  0.00  0.00     0.020 A 
ATOM      6  C   UNL d   1      49.417  34.485  51.941  0.00  0.00     0.020 A 
ENDROOT
BRANCH   1   7
ATOM      7  S   UNL d   1      48.062  36.042  52.603  0.00  0.00     0.287 S 
ATOM      8  O   UNL d   1      48.341  36.358  53.346  0.00  0.00    -0.198 OA
ATOM      9  O   UNL d   1      47.775  35.750  51.881  0.00  0.00    -0.198 OA
BRANCH   7  10
ATOM     10  N   UNL d   1      47.456  36.622  52.611  0.00  0.00    -0.139 NA
BRANCH  10  11
ATOM     11  C   UNL d   1      46.689  36.440  52.823  0.00  0.00     0.182 A 
ATOM     12  N   UNL d   1      46.488  36.344  53.593  0.00  0.00    -0.185 NA
ATOM     13  C   UNL d   1      45.705  36.157  53.825  0.00  0.00     0.274 A 
ATOM     14  N   UNL d   1      45.133  36.072  53.255  0.00  0.00    -0.181 NA
ATOM     15  C   UNL d   1      45.313  36.165  52.469  0.00  0.00     0.185 A 
ATOM     16  C   UNL d   1      46.123  36.356  52.246  0.00  0.00     0.084 A 
BRANCH  13  17
ATOM     17  O   UNL d   1      45.499  36.057  54.632  0.00  0.00    -0.297 OA
ATOM     18  C   UNL d   1      45.408  36.709  55.128  0.00  0.00     0.185 C 
ENDBRANCH  13  17
BRANCH  15  19
ATOM     19  O   UNL d   1      44.700  36.070  51.906  0.00  0.00    -0.312 OA
ATOM     20  C   UNL d   1      44.411  35.299  51.760  0.00  0.00     0.183 C 
ENDBRANCH  15  19
ENDBRANCH  10  11
ENDBRANCH   7  10
ENDBRANCH   1   7
BRANCH   4  21
ATOM     21  N   UNL d   1      50.462  33.789  52.599  0.00  0.00    -0.206 NA
ATOM     22  C   UNL d   1      51.256  34.058  52.647  0.00  0.00     0.304 C 
ATOM     23  O   UNL d   1      51.417  34.829  52.702  0.00  0.00    -0.263 OA
BRANCH  22  24
ATOM     24  C   UNL d   1      51.855  33.491  52.633  0.00  0.00     0.185 C 
BRANCH  24  25
ATOM     25  O   UNL d   1      52.410  33.450  53.238  0.00  0.00    -0.300 OA
BRANCH  25  26
ATOM     26  C   UNL d   1      52.809  32.723  53.366  0.00  0.00     0.100 A 
ATOM     27  C   UNL d   1      53.410  32.639  53.921  0.00  0.00     0.023 A 
ATOM     28  C   UNL d   1      53.790  31.927  54.036  0.00  0.00     0.002 A 
ATOM     29  C   UNL d   1      53.655  33.302  54.397  0.00  0.00     0.002 C 
ATOM     30  C   UNL d   1      53.576  31.286  53.597  0.00  0.00     0.000 A 
ATOM     31  C   UNL d   1      52.972  31.333  53.025  0.00  0.00     0.002 A 
ATOM     32  C   UNL d   1      53.954  30.549  53.701  0.00  0.00     0.000 C 
ATOM     33  C   UNL d   1      52.592  32.045  52.910  0.00  0.00     0.025 A 
ENDBRANCH  25  26
ENDBRANCH  24  25
ENDBRANCH  22  24
ENDBRANCH   4  21
TORSDOF 9
ENDMDL
MODEL 3
REMARK VINA RESULT:      -6.6      0.772      1.653
REMARK  9 active torsions:
REMARK  status: ('A' for Active; 'I' for Inactive)
REMARK    1  A    between atoms: N_2  and  S_1 
REMARK    2  A    between atoms: C_9  and  S_1 
REMARK    3  A    between atoms: C_4  and  N_2 
REMARK    4  A    between atoms: O_24  and  C_6 
REMARK    5  A    between atoms: O_26  and  C_7 
REMARK       I    between atoms: C_12  and  N_15 
REMARK    6  A    between atoms: C_22  and  C_12 
REMARK    7  A    between atoms: C_14  and  O_16 
REMARK    8  A    between atoms: N_15  and  C_23 
REMARK    9  A    between atoms: O_16  and  C_22 
ROOT
ATOM      1  C   UNL d   1      51.777  33.740  52.817  0.00  0.00     0.105 A 
ATOM      2  C   UNL d   1      51.142  33.339  53.144  0.00  0.00     0.015 A 
ATOM      3  C   UNL d   1      51.693  34.531  52.578  0.00  0.00     0.015 A 
ATOM      4  C   UNL d   1      50.336  34.499  53.003  0.00  0.00     0.085 A 
ATOM      5  C   UNL d   1      50.406  33.700  53.248  0.00  0.00     0.020 A 
ATOM      6  C   UNL d   1      50.966  34.898  52.677  0.00  0.00     0.020 A 
ENDROOT
BRANCH   1   7
ATOM      7  S   UNL d   1      52.506  33.373  52.717  0.00  0.00     0.287 S 
ATOM      8  O   UNL d   1      52.831  33.854  53.344  0.00  0.00    -0.198 OA
ATOM      9  O   UNL d   1      52.210  32.897  52.105  0.00  0.00    -0.198 OA
BRANCH   7  10
ATOM     10  N   UNL d   1      53.260  33.014  52.633  0.00  0.00    -0.139 NA
BRANCH  10  11
ATOM     11  C   UNL d   1      53.549  32.487  53.185  0.00  0.00     0.182 A 
ATOM     12  N   UNL d   1      53.943  32.746  53.832  0.00  0.00    -0.185 NA
ATOM     13  C   UNL d   1      54.245  32.216  54.406  0.00  0.00     0.274 A 
ATOM     14  N   UNL d   1      54.136  31.417  54.305  0.00  0.00    -0.181 NA
ATOM     15  C   UNL d   1      53.739  31.133  53.657  0.00  0.00     0.185 A 
ATOM     16  C   UNL d   1      53.434  31.690  53.075  0.00  0.00     0.084 A 
BRANCH  13  17
ATOM     17  O   UNL d   1      54.659  32.491  55.083  0.00  0.00    -0.297 OA
ATOM     18  C   UNL d   1      54.267  32.602  55.800  0.00  0.00     0.185 C 
ENDBRANCH  13  17
BRANCH  15  19
ATOM     19  O   UNL d   1      53.643  30.303  53.582  0.00  0.00    -0.312 OA
ATOM     20  C   UNL d   1      52.933  29.960  53.859  0.00  0.00     0.183 C 
ENDBRANCH  15  19
ENDBRANCH  10  11
ENDBRANCH   7  10
ENDBRANCH   1   7
BRANCH   4  21
ATOM     21  N   UNL d   1      49.611  34.893  53.092  0.00  0.00    -0.206 NA
ATOM     22  C   UNL d   1      49.134  34.996  52.407  0.00  0.00     0.304 C 
ATOM     23  O   UNL d   1      49.375  34.724  51.706  0.00  0.00    -0.263 OA
BRANCH  22  24
ATOM     24  C   UNL d   1      48.414  35.388  52.496  0.00  0.00     0.185 C 
BRANCH  24  25
ATOM     25  O   UNL d   1      47.770  35.196  52.023  0.00  0.00    -0.300 OA
BRANCH  25  26
ATOM     26  C   UNL d   1      47.035  35.572  52.176  0.00  0.00     0.100 A 
ATOM     27  C   UNL d   1      46.416  35.571  51.635  0.00  0.00     0.023 A 
ATOM     28  C   UNL d   1      45.707  35.940  51.797  0.00  0.00     0.002 A 
ATOM     29  C   UNL d   1      46.498  35.179  50.883  0.00  0.00     0.002 C 
ATOM     30  C   UNL d   1      45.605  36.317  52.502  0.00  0.00     0.000 A 
ATOM     31  C   UNL d   1      46.211  36.340  53.074  0.00  0.00     0.002 A 
ATOM     32  C   UNL d   1      44.886  36.701  52.684  0.00  0.00     0.000 C 
ATOM     33  C   UNL d   1      46.919  35.971  52.913  0.00  0.00     0.025 A 
ENDBRANCH  25  26
ENDBRANCH  24  25
ENDBRANCH  22  24
ENDBRANCH   4  21
TORSDOF 9
ENDMDL
