MODEL 1
REMARK VINA RESULT:      -1.0      0.000      0.000
REMARK  4 active torsions:
REMARK  status: ('A' for Active; 'I' for Inactive)
REMARK    1  A    between atoms: C_6  and  C_1 
REMARK       I    between atoms: N_7  and  C_1 
REMARK    2  A    between atoms: N_3  and  C_5 
REMARK    3  A    between atoms: C_19  and  N_7 
REMARK    4  A    between atoms: C_8  and  C_10 
ROOT
ATOM      1  C   UNL d   1      32.274  18.531 -23.333  0.00  0.00     0.019 A 
ATOM      2  C   UNL d   1      31.997  17.096 -24.099  0.00  0.00     0.085 A 
ATOM      3  C   UNL d   1      32.263  18.494 -24.150  0.00  0.00     0.003 A 
ATOM      4  C   UNL d   1      32.146  17.845 -22.891  0.00  0.00     0.003 A 
ATOM      5  C   UNL d   1      32.125  17.777 -24.533  0.00  0.00     0.019 A 
ATOM      6  C   UNL d   1      32.008  17.127 -23.274  0.00  0.00     0.019 A 
ENDROOT
BRANCH   1   7
ATOM      7  C   UNL d   1      32.413  19.248 -22.949  0.00  0.00     0.103 A 
ATOM      8  N   UNL d   1      32.227  19.333 -22.154  0.00  0.00    -0.147 NA
ATOM      9  N   UNL d   1      32.365  20.050 -21.771  0.00  0.00    -0.130 NA
ATOM     10  C   UNL d   1      32.690  20.683 -22.183  0.00  0.00     0.169 A 
ATOM     11  C   UNL d   1      32.877  20.599 -22.983  0.00  0.00     0.041 A 
ATOM     12  C   UNL d   1      32.738  19.881 -23.366  0.00  0.00     0.024 A 
BRANCH  10  13
ATOM     13  N   UNL d   1      32.828  21.400 -21.800  0.00  0.00    -0.288 N 
ATOM     14  C   UNL d   1      32.694  21.469 -20.993  0.00  0.00     0.082 A 
ATOM     15  C   UNL d   1      32.832  22.186 -20.609  0.00  0.00     0.019 A 
ATOM     16  C   UNL d   1      33.105  22.835 -21.034  0.00  0.00     0.003 A 
ATOM     17  C   UNL d   1      33.240  22.768 -21.846  0.00  0.00     0.019 A 
ATOM     18  C   UNL d   1      33.241  23.549 -20.643  0.00  0.00     0.000 C 
ATOM     19  C   UNL d   1      33.102  22.050 -22.229  0.00  0.00     0.082 A 
ENDBRANCH  10  13
ENDBRANCH   1   7
BRANCH   2  20
ATOM     20  N   UNL d   1      31.859  16.378 -24.482  0.00  0.00    -0.206 NA
ATOM     21  C   UNL d   1      31.097  16.173 -24.712  0.00  0.00     0.302 C 
ATOM     22  O   UNL d   1      30.957  15.453 -25.097  0.00  0.00    -0.263 OA
BRANCH  21  23
ATOM     23  C   UNL d   1      30.469  16.688 -24.559  0.00  0.00     0.158 A 
ATOM     24  O   UNL d   1      29.999  16.578 -23.889  0.00  0.00    -0.300 OA
ATOM     25  C   UNL d   1      29.419  17.172 -23.881  0.00  0.00     0.123 A 
ATOM     26  C   UNL d   1      29.536  17.645 -24.547  0.00  0.00     0.029 A 
ATOM     27  C   UNL d   1      30.179  17.344 -24.959  0.00  0.00     0.032 A 
ENDBRANCH  21  23
ENDBRANCH   2  20
TORSDOF 4
ENDMDL
MODEL 2
REMARK VINA RESULT:       1.6      0.964      1.267
REMARK  4 active torsions:
REMARK  status: ('A' for Active; 'I' for Inactive)
REMARK    1  A    between atoms: C_6  and  C_1 
REMARK       I    between atoms: N_7  and  C_1 
REMARK    2  A    between atoms: N_3  and  C_5 
REMARK    3  A    between atoms: C_19  and  N_7 
REMARK    4  A    between atoms: C_8  and  C_10 
ROOT
ATOM      1  C   UNL d   1      33.113  18.716 -23.236  0.00  0.00     0.019 A 
ATOM      2  C   UNL d   1      33.138  17.290 -24.066  0.00  0.00     0.085 A 
ATOM      3  C   UNL d   1      33.072  18.004 -22.835  0.00  0.00     0.003 A 
ATOM      4  C   UNL d   1      33.168  18.718 -24.060  0.00  0.00     0.003 A 
ATOM      5  C   UNL d   1      33.084  17.291 -23.250  0.00  0.00     0.019 A 
ATOM      6  C   UNL d   1      33.180  18.005 -24.475  0.00  0.00     0.019 A 
ENDROOT
BRANCH   1   7
ATOM      7  C   UNL d   1      33.101  19.429 -22.821  0.00  0.00     0.103 A 
ATOM      8  N   UNL d   1      33.241  20.137 -23.215  0.00  0.00    -0.147 NA
ATOM      9  N   UNL d   1      33.228  20.850 -22.800  0.00  0.00    -0.130 NA
ATOM     10  C   UNL d   1      33.076  20.855 -21.992  0.00  0.00     0.169 A 
ATOM     11  C   UNL d   1      32.936  20.144 -21.596  0.00  0.00     0.041 A 
ATOM     12  C   UNL d   1      32.948  19.431 -22.011  0.00  0.00     0.024 A 
BRANCH  10  13
ATOM     13  N   UNL d   1      33.064  21.568 -21.577  0.00  0.00    -0.288 N 
ATOM     14  C   UNL d   1      32.995  21.567 -20.758  0.00  0.00     0.082 A 
ATOM     15  C   UNL d   1      32.983  22.280 -20.343  0.00  0.00     0.019 A 
ATOM     16  C   UNL d   1      33.039  22.994 -20.747  0.00  0.00     0.003 A 
ATOM     17  C   UNL d   1      33.109  22.996 -21.570  0.00  0.00     0.019 A 
ATOM     18  C   UNL d   1      33.026  23.702 -20.325  0.00  0.00     0.000 C 
ATOM     19  C   UNL d   1      33.121  22.283 -21.985  0.00  0.00     0.082 A 
ENDBRANCH  10  13
ENDBRANCH   1   7
BRANCH   2  20
ATOM     20  N   UNL d   1      33.150  16.577 -24.481  0.00  0.00    -0.206 NA
ATOM     21  C   UNL d   1      32.446  16.203 -24.680  0.00  0.00     0.302 C 
ATOM     22  O   UNL d   1      32.458  15.486 -25.097  0.00  0.00    -0.263 OA
BRANCH  21  23
ATOM     23  C   UNL d   1      31.725  16.543 -24.464  0.00  0.00     0.158 A 
ATOM     24  O   UNL d   1      31.310  17.009 -25.005  0.00  0.00    -0.300 OA
ATOM     25  C   UNL d   1      30.613  17.272 -24.637  0.00  0.00     0.123 A 
ATOM     26  C   UNL d   1      30.604  16.966 -23.871  0.00  0.00     0.029 A 
ATOM     27  C   UNL d   1      31.286  16.521 -23.770  0.00  0.00     0.032 A 
ENDBRANCH  21  23
ENDBRANCH   2  20
TORSDOF 4
ENDMDL
