MODEL 1
REMARK VINA RESULT:      25.8      0.000      0.000
REMARK  7 active torsions:
REMARK  status: ('A' for Active; 'I' for Inactive)
REMARK    1  A    between atoms: C_5  and  N_1 
REMARK    2  A    between atoms: C_2  and  N_6 
REMARK    3  A    between atoms: N_16  and  C_2 
REMARK    4  A    between atoms: C_3  and  C_9 
REMARK       I    between atoms: N_4  and  C_3 
REMARK    5  A    between atoms: N_6  and  N_4 
REMARK    6  A    between atoms: C_19  and  N_16 
REMARK    7  A    between atoms: C_17  and  C_19 
ROOT
ATOM      1  C   UNL d   1     -54.902-102.133 -42.390  0.00  0.00     0.297 C 
ATOM      2  N   UNL d   1     -54.712-102.035 -41.593  0.00  0.00    -0.103 NA
ATOM      3  O   UNL d   1     -55.125-102.878 -42.674  0.00  0.00    -0.264 OA
ENDROOT
BRANCH   1   4
ATOM      4  C   UNL d   1     -54.867-101.466 -42.906  0.00  0.00     0.059 A 
ATOM      5  C   UNL d   1     -54.782-100.703 -42.605  0.00  0.00     0.006 A 
ATOM      6  C   UNL d   1     -54.748-100.062 -43.120  0.00  0.00     0.024 A 
ATOM      7  C   UNL d   1     -54.799-100.178 -43.933  0.00  0.00     0.127 A 
ATOM      8  C   UNL d   1     -54.884-100.940 -44.234  0.00  0.00     0.024 A 
ATOM      9  C   UNL d   1     -54.918-101.589 -43.722  0.00  0.00     0.006 A 
BRANCH   7  10
ATOM     10  N   UNL d   1     -54.764 -99.521 -44.433  0.00  0.00    -0.114 N 
ATOM     11  O   UNL d   1     -54.749 -98.760 -44.100  0.00  0.00    -0.532 OA
ATOM     12  O   UNL d   1     -54.743 -99.607 -45.251  0.00  0.00    -0.532 OA
ENDBRANCH   7  10
ENDBRANCH   1   4
BRANCH   2  13
ATOM     13  N   UNL d   1     -54.743-102.681 -41.081  0.00  0.00    -0.114 NA
BRANCH  13  14
ATOM     14  C   UNL d   1     -55.156-102.618 -40.373  0.00  0.00     0.241 C 
ATOM     15  S   UNL d   1     -55.959-102.868 -40.326  0.00  0.00    -0.035 SA
BRANCH  14  16
ATOM     16  N   UNL d   1     -54.779-102.309 -39.707  0.00  0.00    -0.215 NA
BRANCH  16  17
ATOM     17  C   UNL d   1     -55.029-102.534 -38.961  0.00  0.00     0.102 C 
BRANCH  17  18
ATOM     18  C   UNL d   1     -54.737-102.139 -38.298  0.00  0.00     0.021 C 
ATOM     19  C   UNL d   1     -54.816-102.480 -37.550  0.00  0.00     0.002 C 
ENDBRANCH  17  18
ENDBRANCH  16  17
ENDBRANCH  14  16
ENDBRANCH  13  14
ENDBRANCH   2  13
TORSDOF 7
ENDMDL
