MODEL 1
REMARK VINA RESULT:      -4.5      0.000      0.000
REMARK  3 active torsions:
REMARK  status: ('A' for Active; 'I' for Inactive)
REMARK    1  A    between atoms: C_15  and  C_4 
REMARK    2  A    between atoms: C_8  and  S_16 
REMARK    3  A    between atoms: S_16  and  C_15 
ROOT
ATOM      1  N   UNL d   1      58.695  -0.781  29.542  0.00  0.00    -0.133 N 
ATOM      2  C   UNL d   1      58.489  -1.525  29.819  0.00  0.00     0.736 A 
ATOM      3  C   UNL d   1      58.290  -0.220  29.989  0.00  0.00     0.135 A 
ATOM      4  C   UNL d   1      57.831  -0.616  30.547  0.00  0.00     0.129 A 
ATOM      5  N   UNL d   1      57.956  -1.428  30.440  0.00  0.00    -0.058 NA
ATOM      6  C   UNL d   1      59.220  -0.704  28.922  0.00  0.00     0.084 A 
ATOM      7  N   UNL d   1      58.807  -2.198  29.480  0.00  0.00    -0.060 NA
ATOM      8  C   UNL d   1      59.549  -1.380  28.570  0.00  0.00     0.038 A 
ATOM      9  C   UNL d   1      59.343  -2.124  28.847  0.00  0.00     0.101 A 
ATOM     10 BR   UNL d   1      58.328   0.623  29.903  0.00  0.00    -0.028 Br
ATOM     11  C   UNL d   1      59.430   0.054  28.639  0.00  0.00     0.020 C 
ATOM     12  C   UNL d   1      59.692  -2.792  28.471  0.00  0.00     0.021 C 
ENDROOT
BRANCH   4  13
ATOM     13  C   UNL d   1      57.342  -0.256  31.103  0.00  0.00     0.059 C 
BRANCH  13  14
ATOM     14  S   UNL d   1      56.860  -0.689  31.613  0.00  0.00    -0.059 SA
BRANCH  14  15
ATOM     15  C   UNL d   1      56.628  -0.385  32.339  0.00  0.00     0.141 A 
ATOM     16  N   UNL d   1      57.022   0.049  32.927  0.00  0.00    -0.232 NA
ATOM     17  C   UNL d   1      56.512   0.196  33.524  0.00  0.00     0.088 A 
ATOM     18  C   UNL d   1      56.629   0.601  34.229  0.00  0.00     0.020 A 
ATOM     19  C   UNL d   1      55.796  -0.121  33.358  0.00  0.00     0.049 A 
ATOM     20  C   UNL d   1      56.004   0.682  34.769  0.00  0.00     0.002 A 
ATOM     21  C   UNL d   1      55.282   0.364  34.607  0.00  0.00     0.001 A 
ATOM     22  C   UNL d   1      55.168  -0.042  33.898  0.00  0.00     0.008 A 
ATOM     23  S   UNL d   1      55.863  -0.491  32.608  0.00  0.00    -0.060 SA
ENDBRANCH  14  15
ENDBRANCH  13  14
ENDBRANCH   4  13
TORSDOF 3
ENDMDL
MODEL 2
REMARK VINA RESULT:      -3.6      1.799      5.308
REMARK  3 active torsions:
REMARK  status: ('A' for Active; 'I' for Inactive)
REMARK    1  A    between atoms: C_15  and  C_4 
REMARK    2  A    between atoms: C_8  and  S_16 
REMARK    3  A    between atoms: S_16  and  C_15 
ROOT
ATOM      1  N   UNL d   1      56.361  -0.358  32.897  0.00  0.00    -0.133 N 
ATOM      2  C   UNL d   1      56.617   0.371  33.173  0.00  0.00     0.736 A 
ATOM      3  C   UNL d   1      56.729  -0.502  32.174  0.00  0.00     0.135 A 
ATOM      4  C   UNL d   1      57.217   0.141  32.001  0.00  0.00     0.129 A 
ATOM      5  N   UNL d   1      57.145   0.682  32.623  0.00  0.00    -0.058 NA
ATOM      6  C   UNL d   1      55.829  -0.798  33.332  0.00  0.00     0.084 A 
ATOM      7  N   UNL d   1      56.343   0.665  33.886  0.00  0.00    -0.060 NA
ATOM      8  C   UNL d   1      55.544  -0.510  34.056  0.00  0.00     0.038 A 
ATOM      9  C   UNL d   1      55.800   0.218  34.332  0.00  0.00     0.101 A 
ATOM     10 BR   UNL d   1      56.635  -1.186  31.682  0.00  0.00    -0.028 Br
ATOM     11  C   UNL d   1      55.568  -1.541  33.050  0.00  0.00     0.020 C 
ATOM     12  C   UNL d   1      55.495   0.486  35.070  0.00  0.00     0.021 C 
ENDROOT
BRANCH   4  13
ATOM     13  C   UNL d   1      57.683   0.214  31.326  0.00  0.00     0.059 C 
BRANCH  13  14
ATOM     14  S   UNL d   1      58.367   0.675  31.311  0.00  0.00    -0.059 SA
BRANCH  14  15
ATOM     15  C   UNL d   1      58.882   0.650  30.673  0.00  0.00     0.141 A 
ATOM     16  N   UNL d   1      58.770   0.603  29.851  0.00  0.00    -0.232 NA
ATOM     17  C   UNL d   1      59.484   0.598  29.494  0.00  0.00     0.088 A 
ATOM     18  C   UNL d   1      59.673   0.558  28.696  0.00  0.00     0.020 A 
ATOM     19  C   UNL d   1      60.066   0.640  30.042  0.00  0.00     0.049 A 
ATOM     20  C   UNL d   1      60.468   0.561  28.457  0.00  0.00     0.002 A 
ATOM     21  C   UNL d   1      61.057   0.603  29.005  0.00  0.00     0.001 A 
ATOM     22  C   UNL d   1      60.864   0.643  29.806  0.00  0.00     0.008 A 
ATOM     23  S   UNL d   1      59.691   0.673  30.792  0.00  0.00    -0.060 SA
ENDBRANCH  14  15
ENDBRANCH  13  14
ENDBRANCH   4  13
TORSDOF 3
ENDMDL
MODEL 3
REMARK VINA RESULT:      -3.2      9.075      9.337
REMARK  3 active torsions:
REMARK  status: ('A' for Active; 'I' for Inactive)
REMARK    1  A    between atoms: C_15  and  C_4 
REMARK    2  A    between atoms: C_8  and  S_16 
REMARK    3  A    between atoms: S_16  and  C_15 
ROOT
ATOM      1  N   UNL d   1      58.340  -9.817  30.945  0.00  0.00    -0.133 N 
ATOM      2  C   UNL d   1      59.151  -9.816  30.826  0.00  0.00     0.736 A 
ATOM      3  C   UNL d   1      58.200  -9.817  31.757  0.00  0.00     0.135 A 
ATOM      4  C   UNL d   1      58.928  -9.817  32.144  0.00  0.00     0.129 A 
ATOM      5  N   UNL d   1      59.518  -9.816  31.563  0.00  0.00    -0.058 NA
ATOM      6  C   UNL d   1      57.831  -9.817  30.307  0.00  0.00     0.084 A 
ATOM      7  N   UNL d   1      59.460  -9.816  30.068  0.00  0.00    -0.060 NA
ATOM      8  C   UNL d   1      58.132  -9.817  29.534  0.00  0.00     0.038 A 
ATOM      9  C   UNL d   1      58.944  -9.816  29.415  0.00  0.00     0.101 A 
ATOM     10 BR   UNL d   1      57.445  -9.818  32.144  0.00  0.00    -0.028 Br
ATOM     11  C   UNL d   1      57.003  -9.817  30.429  0.00  0.00     0.020 C 
ATOM     12  C   UNL d   1      59.222  -9.816  28.620  0.00  0.00     0.021 C 
ENDROOT
BRANCH   4  13
ATOM     13  C   UNL d   1      59.032  -9.817  32.961  0.00  0.00     0.059 C 
BRANCH  13  14
ATOM     14  S   UNL d   1      59.770  -9.707  33.312  0.00  0.00    -0.059 SA
BRANCH  14  15
ATOM     15  C   UNL d   1      59.852  -9.272  34.002  0.00  0.00     0.141 A 
ATOM     16  N   UNL d   1      59.315  -8.860  34.484  0.00  0.00    -0.232 NA
ATOM     17  C   UNL d   1      59.713  -8.535  35.094  0.00  0.00     0.088 A 
ATOM     18  C   UNL d   1      59.439  -8.077  35.718  0.00  0.00     0.020 A 
ATOM     19  C   UNL d   1      60.492  -8.712  35.040  0.00  0.00     0.049 A 
ATOM     20  C   UNL d   1      59.968  -7.799  36.294  0.00  0.00     0.002 A 
ATOM     21  C   UNL d   1      60.752  -7.975  36.244  0.00  0.00     0.001 A 
ATOM     22  C   UNL d   1      61.026  -8.435  35.615  0.00  0.00     0.008 A 
ATOM     23  S   UNL d   1      60.587  -9.179  34.350  0.00  0.00    -0.060 SA
ENDBRANCH  14  15
ENDBRANCH  13  14
ENDBRANCH   4  13
TORSDOF 3
ENDMDL
