MODEL 1
REMARK VINA RESULT:       3.1      0.000      0.000
REMARK  8 active torsions:
REMARK  status: ('A' for Active; 'I' for Inactive)
REMARK    1  A    between atoms: C_2  and  C_1 
REMARK    2  A    between atoms: C_3  and  C_1 
REMARK    3  A    between atoms: C_5  and  C_1 
REMARK    4  A    between atoms: N_4  and  C_6 
REMARK    5  A    between atoms: C_7  and  N_4 
REMARK    6  A    between atoms: C_8  and  N_4 
REMARK    7  A    between atoms: C_20  and  C_7 
REMARK    8  A    between atoms: C_21  and  C_8 
ROOT
ATOM      1  C   UNL d   1      57.279  -0.884  31.405  0.00  0.00     0.044 A 
ATOM      2  C   UNL d   1      58.311  -1.272  30.170  0.00  0.00     0.064 A 
ATOM      3  C   UNL d   1      57.011  -0.858  30.622  0.00  0.00     0.004 A 
ATOM      4  C   UNL d   1      58.056  -1.102  31.569  0.00  0.00     0.004 A 
ATOM      5  C   UNL d   1      57.527  -1.052  30.001  0.00  0.00     0.018 A 
ATOM      6  C   UNL d   1      58.573  -1.297  30.948  0.00  0.00     0.018 A 
ENDROOT
BRANCH   2   7
ATOM      7  N   UNL d   1      58.821  -1.463  29.557  0.00  0.00    -0.304 N 
BRANCH   7   8
ATOM      8  C   UNL d   1      59.623  -1.303  29.624  0.00  0.00     0.080 C 
BRANCH   8   9
ATOM      9  C   UNL d   1      59.950  -0.647  29.261  0.00  0.00     0.018 A 
ATOM     10  C   UNL d   1      60.771  -0.583  29.212  0.00  0.00     0.002 A 
ATOM     11  C   UNL d   1      61.120   0.081  28.845  0.00  0.00     0.000 A 
ATOM     12  C   UNL d   1      60.630   0.680  28.528  0.00  0.00     0.000 A 
ATOM     13  C   UNL d   1      59.809   0.616  28.577  0.00  0.00     0.000 A 
ATOM     14  C   UNL d   1      59.470  -0.053  28.947  0.00  0.00     0.002 A 
ENDBRANCH   8   9
ENDBRANCH   7   8
BRANCH   7  15
ATOM     15  C   UNL d   1      58.533  -1.815  28.876  0.00  0.00     0.080 C 
BRANCH  15  16
ATOM     16  C   UNL d   1      58.656  -2.612  28.742  0.00  0.00     0.018 A 
ATOM     17  C   UNL d   1      59.422  -2.924  28.731  0.00  0.00     0.002 A 
ATOM     18  C   UNL d   1      59.546  -3.728  28.596  0.00  0.00     0.000 A 
ATOM     19  C   UNL d   1      58.905  -4.228  28.469  0.00  0.00     0.000 A 
ATOM     20  C   UNL d   1      58.130  -3.926  28.477  0.00  0.00     0.000 A 
ATOM     21  C   UNL d   1      58.019  -3.111  28.616  0.00  0.00     0.002 A 
ENDBRANCH  15  16
ENDBRANCH   7  15
ENDBRANCH   2   7
BRANCH   1  22
ATOM     22  C   UNL d   1      56.766  -0.691  32.022  0.00  0.00     0.297 C 
ATOM     23  O   UNL d   1      56.253  -0.498  32.638  0.00  0.00    -0.281 OA
BRANCH  22  24
ATOM     24  C   UNL d   1      57.192  -0.008  32.162  0.00  0.00     0.457 C 
ATOM     25  F   UNL d   1      57.547  -0.364  32.816  0.00  0.00    -0.163 F 
ATOM     26  F   UNL d   1      56.836   0.347  31.508  0.00  0.00    -0.163 F 
ATOM     27  F   UNL d   1      57.621   0.682  32.304  0.00  0.00    -0.163 F 
ENDBRANCH  22  24
BRANCH  22  28
ATOM     28  C   UNL d   1      56.332  -1.389  31.878  0.00  0.00     0.457 C 
ATOM     29  F   UNL d   1      55.907  -2.071  31.738  0.00  0.00    -0.163 F 
ATOM     30  F   UNL d   1      55.657  -0.938  31.731  0.00  0.00    -0.163 F 
ATOM     31  F   UNL d   1      57.007  -1.839  32.026  0.00  0.00    -0.163 F 
ENDBRANCH  22  28
ENDBRANCH   1  22
TORSDOF 8
ENDMDL
MODEL 2
REMARK VINA RESULT:       3.2      1.942      3.400
REMARK  8 active torsions:
REMARK  status: ('A' for Active; 'I' for Inactive)
REMARK    1  A    between atoms: C_2  and  C_1 
REMARK    2  A    between atoms: C_3  and  C_1 
REMARK    3  A    between atoms: C_5  and  C_1 
REMARK    4  A    between atoms: N_4  and  C_6 
REMARK    5  A    between atoms: C_7  and  N_4 
REMARK    6  A    between atoms: C_8  and  N_4 
REMARK    7  A    between atoms: C_20  and  C_7 
REMARK    8  A    between atoms: C_21  and  C_8 
ROOT
ATOM      1  C   UNL d   1      56.189  -0.510  32.929  0.00  0.00     0.044 A 
ATOM      2  C   UNL d   1      57.471  -0.177  31.936  0.00  0.00     0.064 A 
ATOM      3  C   UNL d   1      56.915  -0.890  33.053  0.00  0.00     0.004 A 
ATOM      4  C   UNL d   1      56.106   0.032  32.315  0.00  0.00     0.004 A 
ATOM      5  C   UNL d   1      57.559  -0.724  32.555  0.00  0.00     0.018 A 
ATOM      6  C   UNL d   1      56.750   0.198  31.817  0.00  0.00     0.018 A 
ENDROOT
BRANCH   2   7
ATOM      7  N   UNL d   1      58.106  -0.013  31.445  0.00  0.00    -0.304 N 
BRANCH   7   8
ATOM      8  C   UNL d   1      58.321  -0.544  30.857  0.00  0.00     0.080 C 
BRANCH   8   9
ATOM      9  C   UNL d   1      58.228  -0.354  30.067  0.00  0.00     0.018 A 
ATOM     10  C   UNL d   1      57.757   0.291  29.863  0.00  0.00     0.002 A 
ATOM     11  C   UNL d   1      57.652   0.498  29.061  0.00  0.00     0.000 A 
ATOM     12  C   UNL d   1      58.028   0.046  28.467  0.00  0.00     0.000 A 
ATOM     13  C   UNL d   1      58.498  -0.600  28.672  0.00  0.00     0.000 A 
ATOM     14  C   UNL d   1      58.597  -0.799  29.477  0.00  0.00     0.002 A 
ENDBRANCH   8   9
ENDBRANCH   7   8
BRANCH   7  15
ATOM     15  C   UNL d   1      58.530   0.682  31.538  0.00  0.00     0.080 C 
BRANCH  15  16
ATOM     16  C   UNL d   1      59.305   0.659  31.796  0.00  0.00     0.018 A 
ATOM     17  C   UNL d   1      59.929   0.613  31.253  0.00  0.00     0.002 A 
ATOM     18  C   UNL d   1      60.711   0.590  31.514  0.00  0.00     0.000 A 
ATOM     19  C   UNL d   1      60.877   0.612  32.320  0.00  0.00     0.000 A 
ATOM     20  C   UNL d   1      60.260   0.659  32.874  0.00  0.00     0.000 A 
ATOM     21  C   UNL d   1      59.473   0.681  32.597  0.00  0.00     0.002 A 
ENDBRANCH  15  16
ENDBRANCH   7  15
ENDBRANCH   2   7
BRANCH   1  22
ATOM     22  C   UNL d   1      55.550  -0.675  33.424  0.00  0.00     0.297 C 
ATOM     23  O   UNL d   1      54.910  -0.840  33.918  0.00  0.00    -0.281 OA
BRANCH  22  24
ATOM     24  C   UNL d   1      55.331  -1.292  32.935  0.00  0.00     0.457 C 
ATOM     25  F   UNL d   1      54.775  -0.805  32.569  0.00  0.00    -0.163 F 
ATOM     26  F   UNL d   1      55.888  -1.779  33.300  0.00  0.00    -0.163 F 
ATOM     27  F   UNL d   1      55.111  -1.915  32.441  0.00  0.00    -0.163 F 
ENDBRANCH  22  24
BRANCH  22  28
ATOM     28  C   UNL d   1      55.773  -0.045  33.922  0.00  0.00     0.457 C 
ATOM     29  F   UNL d   1      55.991   0.571  34.411  0.00  0.00    -0.163 F 
ATOM     30  F   UNL d   1      55.576   0.494  33.330  0.00  0.00    -0.163 F 
ATOM     31  F   UNL d   1      55.970  -0.584  34.515  0.00  0.00    -0.163 F 
ENDBRANCH  22  28
ENDBRANCH   1  22
TORSDOF 8
ENDMDL
MODEL 3
REMARK VINA RESULT:       4.2      0.627      2.542
REMARK  8 active torsions:
REMARK  status: ('A' for Active; 'I' for Inactive)
REMARK    1  A    between atoms: C_2  and  C_1 
REMARK    2  A    between atoms: C_3  and  C_1 
REMARK    3  A    between atoms: C_5  and  C_1 
REMARK    4  A    between atoms: N_4  and  C_6 
REMARK    5  A    between atoms: C_7  and  N_4 
REMARK    6  A    between atoms: C_8  and  N_4 
REMARK    7  A    between atoms: C_20  and  C_7 
REMARK    8  A    between atoms: C_21  and  C_8 
ROOT
ATOM      1  C   UNL d   1      57.072  -0.785  31.495  0.00  0.00     0.044 A 
ATOM      2  C   UNL d   1      58.200  -1.243  30.374  0.00  0.00     0.064 A 
ATOM      3  C   UNL d   1      56.864  -1.322  30.899  0.00  0.00     0.004 A 
ATOM      4  C   UNL d   1      57.836  -0.481  31.530  0.00  0.00     0.004 A 
ATOM      5  C   UNL d   1      57.430  -1.553  30.336  0.00  0.00     0.018 A 
ATOM      6  C   UNL d   1      58.402  -0.711  30.966  0.00  0.00     0.018 A 
ENDROOT
BRANCH   2   7
ATOM      7  N   UNL d   1      58.758  -1.470  29.818  0.00  0.00    -0.304 N 
BRANCH   7   8
ATOM      8  C   UNL d   1      59.190  -2.160  29.926  0.00  0.00     0.080 C 
BRANCH   8   9
ATOM      9  C   UNL d   1      59.073  -2.806  29.439  0.00  0.00     0.018 A 
ATOM     10  C   UNL d   1      59.631  -3.414  29.437  0.00  0.00     0.002 A 
ATOM     11  C   UNL d   1      59.526  -4.081  28.946  0.00  0.00     0.000 A 
ATOM     12  C   UNL d   1      58.850  -4.128  28.455  0.00  0.00     0.000 A 
ATOM     13  C   UNL d   1      58.292  -3.520  28.457  0.00  0.00     0.000 A 
ATOM     14  C   UNL d   1      58.407  -2.857  28.952  0.00  0.00     0.002 A 
ENDBRANCH   8   9
ENDBRANCH   7   8
BRANCH   7  15
ATOM     15  C   UNL d   1      58.887  -1.011  29.152  0.00  0.00     0.080 C 
BRANCH  15  16
ATOM     16  C   UNL d   1      59.578  -0.581  29.077  0.00  0.00     0.018 A 
ATOM     17  C   UNL d   1      60.287  -0.956  28.870  0.00  0.00     0.002 A 
ATOM     18  C   UNL d   1      60.984  -0.521  28.795  0.00  0.00     0.000 A 
ATOM     19  C   UNL d   1      60.980   0.291  28.926  0.00  0.00     0.000 A 
ATOM     20  C   UNL d   1      60.274   0.678  29.134  0.00  0.00     0.000 A 
ATOM     21  C   UNL d   1      59.576   0.228  29.207  0.00  0.00     0.002 A 
ENDBRANCH  15  16
ENDBRANCH   7  15
ENDBRANCH   2   7
BRANCH   1  22
ATOM     22  C   UNL d   1      56.511  -0.556  32.055  0.00  0.00     0.297 C 
ATOM     23  O   UNL d   1      55.950  -0.327  32.615  0.00  0.00    -0.281 OA
BRANCH  22  24
ATOM     24  C   UNL d   1      56.267   0.049  31.563  0.00  0.00     0.457 C 
ATOM     25  F   UNL d   1      55.736  -0.465  31.195  0.00  0.00    -0.163 F 
ATOM     26  F   UNL d   1      56.798   0.562  31.931  0.00  0.00    -0.163 F 
ATOM     27  F   UNL d   1      56.021   0.660  31.066  0.00  0.00    -0.163 F 
ENDBRANCH  22  24
BRANCH  22  28
ATOM     28  C   UNL d   1      56.760  -1.174  32.557  0.00  0.00     0.457 C 
ATOM     29  F   UNL d   1      57.003  -1.778  33.049  0.00  0.00    -0.163 F 
ATOM     30  F   UNL d   1      57.247  -0.647  32.964  0.00  0.00    -0.163 F 
ATOM     31  F   UNL d   1      56.273  -1.701  32.151  0.00  0.00    -0.163 F 
ENDBRANCH  22  28
ENDBRANCH   1  22
TORSDOF 8
ENDMDL
