MODEL 1
REMARK VINA RESULT:      25.7      0.000      0.000
REMARK  6 active torsions:
REMARK  status: ('A' for Active; 'I' for Inactive)
REMARK    1  A    between atoms: N_2  and  S_1 
REMARK    2  A    between atoms: C_16  and  S_1 
REMARK    3  A    between atoms: C_4  and  C_3 
REMARK       I    between atoms: N_6  and  C_4 
REMARK    4  A    between atoms: C_15  and  N_6 
REMARK    5  A    between atoms: C_9  and  C_15 
REMARK    6  A    between atoms: C_20  and  C_16 
ROOT
ATOM      1  N   UNL d   1     -57.460 -98.833 -44.461  0.00  0.00    -0.229 N 
ATOM      2  C   UNL d   1     -56.065 -98.979 -44.711  0.00  0.00     0.076 A 
ATOM      3  C   UNL d   1     -56.832 -98.946 -44.988  0.00  0.00     0.096 A 
ATOM      4  C   UNL d   1     -57.317 -98.755 -43.660  0.00  0.00     0.092 A 
ATOM      5  C   UNL d   1     -55.917 -98.901 -43.907  0.00  0.00     0.008 A 
ATOM      6  C   UNL d   1     -56.545 -98.789 -43.380  0.00  0.00     0.020 A 
ENDROOT
BRANCH   2   7
ATOM      7  C   UNL d   1     -55.431 -99.092 -45.231  0.00  0.00     0.281 C 
ATOM      8  N   UNL d   1     -54.771 -99.529 -45.003  0.00  0.00    -0.204 NA
ATOM      9  O   UNL d   1     -55.467 -98.756 -45.993  0.00  0.00    -0.265 OA
BRANCH   8  10
ATOM     10  C   UNL d   1     -54.741 -99.859 -44.249  0.00  0.00     0.127 C 
BRANCH  10  11
ATOM     11  C   UNL d   1     -54.751-100.680 -44.160  0.00  0.00     0.119 A 
ATOM     12  O   UNL d   1     -54.718-101.088 -43.443  0.00  0.00    -0.304 OA
ATOM     13  C   UNL d   1     -54.743-101.897 -43.609  0.00  0.00     0.123 A 
ATOM     14  C   UNL d   1     -54.791-101.984 -44.430  0.00  0.00     0.029 A 
ATOM     15  C   UNL d   1     -54.796-101.230 -44.762  0.00  0.00     0.028 A 
ENDBRANCH  10  11
ENDBRANCH   8  10
ENDBRANCH   2   7
BRANCH   1  16
ATOM     16  S   UNL d   1     -58.240 -98.800 -44.750  0.00  0.00     0.272 S 
ATOM     17  O   UNL d   1     -58.526 -98.841 -43.996  0.00  0.00    -0.200 OA
ATOM     18  O   UNL d   1     -57.938 -98.758 -45.523  0.00  0.00    -0.200 OA
BRANCH  16  19
ATOM     19  C   UNL d   1     -59.019 -98.767 -45.030  0.00  0.00     0.116 C 
BRANCH  19  20
ATOM     20  C   UNL d   1     -59.214 -99.069 -45.776  0.00  0.00     0.014 C 
ATOM     21  C   UNL d   1     -59.881 -98.786 -46.167  0.00  0.00     0.001 C 
ENDBRANCH  19  20
ENDBRANCH  16  19
ENDBRANCH   1  16
TORSDOF 6
ENDMDL
MODEL 2
REMARK VINA RESULT:      27.1      1.264      1.702
REMARK  6 active torsions:
REMARK  status: ('A' for Active; 'I' for Inactive)
REMARK    1  A    between atoms: N_2  and  S_1 
REMARK    2  A    between atoms: C_16  and  S_1 
REMARK    3  A    between atoms: C_4  and  C_3 
REMARK       I    between atoms: N_6  and  C_4 
REMARK    4  A    between atoms: C_15  and  N_6 
REMARK    5  A    between atoms: C_9  and  C_15 
REMARK    6  A    between atoms: C_20  and  C_16 
ROOT
ATOM      1  N   UNL d   1     -57.490 -98.936 -43.927  0.00  0.00    -0.229 N 
ATOM      2  C   UNL d   1     -56.105 -99.169 -44.167  0.00  0.00     0.076 A 
ATOM      3  C   UNL d   1     -56.726 -99.079 -43.645  0.00  0.00     0.096 A 
ATOM      4  C   UNL d   1     -57.629 -98.884 -44.731  0.00  0.00     0.092 A 
ATOM      5  C   UNL d   1     -56.241 -99.117 -44.975  0.00  0.00     0.008 A 
ATOM      6  C   UNL d   1     -57.005 -98.974 -45.258  0.00  0.00     0.020 A 
ENDROOT
BRANCH   2   7
ATOM      7  C   UNL d   1     -55.338 -99.311 -43.893  0.00  0.00     0.281 C 
ATOM      8  N   UNL d   1     -54.916 -99.973 -44.147  0.00  0.00    -0.204 NA
ATOM      9  O   UNL d   1     -54.993 -98.777 -43.355  0.00  0.00    -0.265 OA
BRANCH   8  10
ATOM     10  C   UNL d   1     -55.261-100.498 -44.679  0.00  0.00     0.127 C 
BRANCH  10  11
ATOM     11  C   UNL d   1     -55.118-101.308 -44.607  0.00  0.00     0.119 A 
ATOM     12  O   UNL d   1     -55.343-101.887 -45.151  0.00  0.00    -0.304 OA
ATOM     13  C   UNL d   1     -55.091-102.619 -44.861  0.00  0.00     0.123 A 
ATOM     14  C   UNL d   1     -54.711-102.487 -44.138  0.00  0.00     0.029 A 
ATOM     15  C   UNL d   1     -54.732-101.676 -43.988  0.00  0.00     0.028 A 
ENDBRANCH  10  11
ENDBRANCH   8  10
ENDBRANCH   2   7
BRANCH   1  16
ATOM     16  S   UNL d   1     -58.119 -98.846 -43.389  0.00  0.00     0.272 S 
ATOM     17  O   UNL d   1     -57.607 -98.935 -42.770  0.00  0.00    -0.200 OA
ATOM     18  O   UNL d   1     -58.638 -98.756 -44.030  0.00  0.00    -0.200 OA
BRANCH  16  19
ATOM     19  C   UNL d   1     -58.739 -98.757 -42.847  0.00  0.00     0.116 C 
BRANCH  19  20
ATOM     20  C   UNL d   1     -59.510 -98.983 -43.044  0.00  0.00     0.014 C 
ATOM     21  C   UNL d   1     -59.957 -99.418 -42.507  0.00  0.00     0.001 C 
ENDBRANCH  19  20
ENDBRANCH  16  19
ENDBRANCH   1  16
TORSDOF 6
ENDMDL
MODEL 3
REMARK VINA RESULT:      27.3      1.318      1.942
REMARK  6 active torsions:
REMARK  status: ('A' for Active; 'I' for Inactive)
REMARK    1  A    between atoms: N_2  and  S_1 
REMARK    2  A    between atoms: C_16  and  S_1 
REMARK    3  A    between atoms: C_4  and  C_3 
REMARK       I    between atoms: N_6  and  C_4 
REMARK    4  A    between atoms: C_15  and  N_6 
REMARK    5  A    between atoms: C_9  and  C_15 
REMARK    6  A    between atoms: C_20  and  C_16 
ROOT
ATOM      1  N   UNL d   1     -56.268 -99.309 -44.360  0.00  0.00    -0.229 N 
ATOM      2  C   UNL d   1     -55.326-100.357 -44.573  0.00  0.00     0.076 A 
ATOM      3  C   UNL d   1     -56.098-100.112 -44.468  0.00  0.00     0.096 A 
ATOM      4  C   UNL d   1     -55.665 -98.757 -44.358  0.00  0.00     0.092 A 
ATOM      5  C   UNL d   1     -54.719 -99.805 -44.572  0.00  0.00     0.008 A 
ATOM      6  C   UNL d   1     -54.889 -99.003 -44.464  0.00  0.00     0.020 A 
ENDROOT
BRANCH   2   7
ATOM      7  C   UNL d   1     -55.147-101.158 -44.682  0.00  0.00     0.281 C 
ATOM      8  N   UNL d   1     -54.841-101.609 -44.064  0.00  0.00    -0.204 NA
ATOM      9  O   UNL d   1     -55.280-101.506 -45.427  0.00  0.00    -0.265 OA
BRANCH   8  10
ATOM     10  C   UNL d   1     -54.712-101.260 -43.329  0.00  0.00     0.127 C 
BRANCH  10  11
ATOM     11  C   UNL d   1     -54.838-101.697 -42.639  0.00  0.00     0.119 A 
ATOM     12  O   UNL d   1     -54.715-101.427 -41.869  0.00  0.00    -0.304 OA
ATOM     13  C   UNL d   1     -54.910-102.041 -41.351  0.00  0.00     0.123 A 
ATOM     14  C   UNL d   1     -55.153-102.687 -41.806  0.00  0.00     0.029 A 
ATOM     15  C   UNL d   1     -55.106-102.467 -42.599  0.00  0.00     0.028 A 
ENDBRANCH  10  11
ENDBRANCH   8  10
ENDBRANCH   2   7
BRANCH   1  16
ATOM     16  S   UNL d   1     -57.057 -99.066 -44.252  0.00  0.00     0.272 S 
ATOM     17  O   UNL d   1     -57.071 -98.766 -45.003  0.00  0.00    -0.200 OA
ATOM     18  O   UNL d   1     -57.035 -99.377 -43.483  0.00  0.00    -0.200 OA
BRANCH  16  19
ATOM     19  C   UNL d   1     -57.842 -98.821 -44.153  0.00  0.00     0.116 C 
BRANCH  19  20
ATOM     20  C   UNL d   1     -58.469 -99.294 -44.412  0.00  0.00     0.014 C 
ATOM     21  C   UNL d   1     -59.154 -98.940 -44.701  0.00  0.00     0.001 C 
ENDBRANCH  19  20
ENDBRANCH  16  19
ENDBRANCH   1  16
TORSDOF 6
ENDMDL
