MODEL 1
REMARK VINA RESULT:       6.5      0.000      0.000
REMARK  2 active torsions:
REMARK  status: ('A' for Active; 'I' for Inactive)
REMARK    1  A    between atoms: C_7  and  N_1 
REMARK    2  A    between atoms: C_9  and  C_2 
ROOT
ATOM      1  N   UNL d   1     -41.695-121.983 -52.312  0.00  0.00    -0.273 N 
ATOM      2  C   UNL d   1     -41.497-121.178 -52.310  0.00  0.00     0.174 A 
ATOM      3  N   UNL d   1     -41.474-120.923 -53.090  0.00  0.00    -0.204 NA
ATOM      4  C   UNL d   1     -41.793-122.215 -53.093  0.00  0.00     0.185 A 
ATOM      5  C   UNL d   1     -41.657-121.563 -53.575  0.00  0.00     0.199 A 
ATOM      6  N   UNL d   1     -41.990-122.944 -53.434  0.00  0.00    -0.224 NA
ATOM      7  N   UNL d   1     -41.716-121.632 -54.394  0.00  0.00    -0.223 NA
ATOM      8  C   UNL d   1     -42.048-123.011 -54.247  0.00  0.00     0.101 A 
ATOM      9  C   UNL d   1     -41.913-122.363 -54.731  0.00  0.00     0.101 A 
ATOM     10  C   UNL d   1     -42.244-123.737 -54.587  0.00  0.00     0.021 A 
ATOM     11  C   UNL d   1     -41.972-122.429 -55.549  0.00  0.00     0.021 A 
ATOM     12  C   UNL d   1     -42.168-123.153 -55.892  0.00  0.00     0.002 A 
ATOM     13  C   UNL d   1     -42.305-123.812 -55.404  0.00  0.00     0.002 A 
ENDROOT
BRANCH   1  14
ATOM     14  C   UNL d   1     -41.770-122.432 -51.624  0.00  0.00     0.069 A 
ATOM     15  C   UNL d   1     -42.498-122.457 -51.230  0.00  0.00     0.044 A 
ATOM     16  C   UNL d   1     -42.574-122.904 -50.544  0.00  0.00     0.124 A 
ATOM     17  O   UNL d   1     -43.294-122.928 -50.155  0.00  0.00    -0.301 OA
ATOM     18  C   UNL d   1     -41.922-123.326 -50.253  0.00  0.00     0.123 A 
ATOM     19  C   UNL d   1     -43.376-123.381 -49.458  0.00  0.00     0.149 A 
ATOM     20  C   UNL d   1     -42.724-123.808 -49.160  0.00  0.00     0.149 A 
ATOM     21  O   UNL d   1     -41.997-123.780 -49.558  0.00  0.00    -0.301 OA
ATOM     22  C   UNL d   1     -41.199-123.302 -50.643  0.00  0.00     0.028 A 
ATOM     23  C   UNL d   1     -41.123-122.855 -51.329  0.00  0.00     0.020 A 
ENDBRANCH   1  14
BRANCH   2  24
ATOM     24  C   UNL d   1     -41.350-120.720 -51.641  0.00  0.00     0.135 A 
ATOM     25  O   UNL d   1     -41.264-120.999 -50.870  0.00  0.00    -0.302 OA
ATOM     26  C   UNL d   1     -41.123-120.344 -50.378  0.00  0.00     0.123 A 
ATOM     27  C   UNL d   1     -41.123-119.665 -50.853  0.00  0.00     0.029 A 
ATOM     28  C   UNL d   1     -41.263-119.898 -51.633  0.00  0.00     0.030 A 
ENDBRANCH   2  24
TORSDOF 2
ENDMDL
