MODEL 1
REMARK VINA RESULT:      13.4      0.000      0.000
REMARK  3 active torsions:
REMARK  status: ('A' for Active; 'I' for Inactive)
REMARK    1  A    between atoms: S_9  and  C_2 
REMARK    2  A    between atoms: C_8  and  C_3 
REMARK    3  A    between atoms: C_10  and  S_9 
ROOT
ATOM      1  N   UNL d   1     -54.074  23.816  35.246  0.00  0.00    -0.195 NA
ATOM      2  C   UNL d   1     -53.978  23.685  34.439  0.00  0.00     0.086 C 
ATOM      3  C   UNL d   1     -53.889  23.558  33.631  0.00  0.00     0.169 C 
ENDROOT
BRANCH   3   4
ATOM      4  S   UNL d   1     -53.211  23.197  33.354  0.00  0.00    -0.072 SA
BRANCH   4   5
ATOM      5  C   UNL d   1     -52.497  23.602  33.339  0.00  0.00     0.137 A 
ATOM      6  N   UNL d   1     -52.393  24.424  33.344  0.00  0.00    -0.232 NA
ATOM      7  C   UNL d   1     -51.591  24.579  33.325  0.00  0.00     0.089 A 
ATOM      8  C   UNL d   1     -51.193  23.864  33.308  0.00  0.00     0.057 A 
ATOM      9  S   UNL d   1     -51.746  23.260  33.317  0.00  0.00    -0.060 SA
BRANCH   7  10
ATOM     10  C   UNL d   1     -51.242  25.327  33.323  0.00  0.00     0.018 A 
ATOM     11  C   UNL d   1     -51.727  25.991  33.334  0.00  0.00     0.002 A 
ATOM     12  C   UNL d   1     -51.379  26.739  33.332  0.00  0.00     0.000 A 
ATOM     13  C   UNL d   1     -50.555  26.820  33.319  0.00  0.00     0.000 A 
ATOM     14  C   UNL d   1     -50.081  26.138  33.307  0.00  0.00     0.000 A 
ATOM     15  C   UNL d   1     -50.434  25.392  33.309  0.00  0.00     0.002 A 
ENDBRANCH   7  10
ENDBRANCH   4   5
ENDBRANCH   3   4
TORSDOF 3
ENDMDL
