MODEL 1
REMARK VINA RESULT:      34.0      0.000      0.000
REMARK  4 active torsions:
REMARK  status: ('A' for Active; 'I' for Inactive)
REMARK       I    between atoms: C_6  and  N_7 
REMARK    1  A    between atoms: C_8  and  C_6 
REMARK    2  A    between atoms: N_7  and  C_14 
REMARK    3  A    between atoms: C_14  and  C_13 
REMARK    4  A    between atoms: O_17  and  C_15 
ROOT
ATOM      1  C   UNL d   1      15.037  13.819  -0.413  0.00  0.00     0.279 C 
ATOM      2  N   UNL d   1      14.708  14.561  -0.548  0.00  0.00    -0.206 NA
ATOM      3  O   UNL d   1      15.797  13.759  -0.097  0.00  0.00    -0.265 OA
ENDROOT
BRANCH   2   4
ATOM      4  C   UNL d   1      15.131  15.244  -0.370  0.00  0.00     0.102 C 
BRANCH   4   5
ATOM      5  C   UNL d   1      15.168  15.863  -0.914  0.00  0.00     0.019 A 
ATOM      6  C   UNL d   1      15.359  16.627  -0.664  0.00  0.00     0.003 A 
ATOM      7  C   UNL d   1      15.394  17.244  -1.218  0.00  0.00     0.019 A 
ATOM      8  C   UNL d   1      15.241  17.097  -2.014  0.00  0.00     0.081 A 
ATOM      9  C   UNL d   1      15.050  16.334  -2.263  0.00  0.00     0.019 A 
ATOM     10  N   UNL d   1      15.237  17.595  -2.668  0.00  0.00    -0.246 NA
ATOM     11  C   UNL d   1      15.014  15.718  -1.717  0.00  0.00     0.003 A 
ATOM     12  C   UNL d   1      14.928  16.361  -3.079  0.00  0.00     0.021 A 
ATOM     13  C   UNL d   1      15.043  17.138  -3.328  0.00  0.00     0.082 A 
ATOM     14  C   UNL d   1      14.976  17.413  -4.103  0.00  0.00     0.021 C 
ENDBRANCH   4   5
ENDBRANCH   2   4
BRANCH   1  15
ATOM     15  C   UNL d   1      14.607  13.140  -0.594  0.00  0.00     0.060 A 
ATOM     16  C   UNL d   1      14.667  12.802  -1.345  0.00  0.00     0.029 A 
ATOM     17  C   UNL d   1      14.238  12.125  -1.523  0.00  0.00     0.094 A 
ATOM     18  C   UNL d   1      13.740  11.779  -0.944  0.00  0.00     0.024 A 
ATOM     19  C   UNL d   1      13.681  12.117  -0.194  0.00  0.00     0.002 A 
ATOM     20  C   UNL d   1      14.118  12.805  -0.015  0.00  0.00     0.005 A 
BRANCH  17  21
ATOM     21  O   UNL d   1      14.292  11.780  -2.275  0.00  0.00    -0.328 OA
ATOM     22  C   UNL d   1      13.689  11.889  -2.831  0.00  0.00     0.181 C 
ENDBRANCH  17  21
ENDBRANCH   1  15
TORSDOF 4
ENDMDL
