MODEL 1
REMARK VINA RESULT:      56.3      0.000      0.000
REMARK  4 active torsions:
REMARK  status: ('A' for Active; 'I' for Inactive)
REMARK    1  A    between atoms: S_11  and  C_7 
REMARK    2  A    between atoms: C_17  and  C_10 
REMARK    3  A    between atoms: C_16  and  S_11 
REMARK    4  A    between atoms: C_20  and  C_17 
ROOT
ATOM      1  N   UNL d   1     -57.921 -98.909 -42.909  0.00  0.00    -0.224 N 
ATOM      2  N   UNL d   1     -58.960 -98.898 -43.901  0.00  0.00    -0.241 N 
ATOM      3  C   UNL d   1     -58.730 -98.925 -43.110  0.00  0.00     0.343 A 
ATOM      4  C   UNL d   1     -58.381 -98.855 -44.491  0.00  0.00     0.160 A 
ATOM      5  C   UNL d   1     -57.349 -98.866 -43.501  0.00  0.00     0.273 A 
ATOM      6  C   UNL d   1     -57.579 -98.839 -44.292  0.00  0.00     0.115 A 
ATOM      7  C   UNL d   1     -57.007 -98.796 -44.885  0.00  0.00     0.120 A 
ATOM      8  N   UNL d   1     -58.608 -98.827 -45.290  0.00  0.00    -0.209 NA
ATOM      9  N   UNL d   1     -57.233 -98.769 -45.674  0.00  0.00    -0.220 NA
ATOM     10  C   UNL d   1     -58.037 -98.784 -45.882  0.00  0.00     0.165 A 
ATOM     11  O   UNL d   1     -59.303 -98.968 -42.513  0.00  0.00    -0.245 OA
ATOM     12  O   UNL d   1     -56.549 -98.851 -43.298  0.00  0.00    -0.266 OA
ATOM     13  C   UNL d   1     -57.699 -98.936 -42.119  0.00  0.00     0.107 C 
ATOM     14  C   UNL d   1     -59.762 -98.913 -44.100  0.00  0.00     0.105 C 
ENDROOT
BRANCH   7  15
ATOM     15  S   UNL d   1     -56.207 -98.781 -44.682  0.00  0.00    -0.068 SA
BRANCH  15  16
ATOM     16  C   UNL d   1     -55.749 -99.464 -44.752  0.00  0.00     0.031 A 
ATOM     17  C   UNL d   1     -55.885-100.088 -45.273  0.00  0.00     0.006 A 
ATOM     18  C   UNL d   1     -55.302-100.661 -45.167  0.00  0.00     0.001 A 
ATOM     19  C   UNL d   1     -54.796-100.382 -44.569  0.00  0.00     0.001 A 
ATOM     20  C   UNL d   1     -55.077 -99.641 -44.314  0.00  0.00     0.006 A 
ENDBRANCH  15  16
ENDBRANCH   7  15
BRANCH  10  21
ATOM     21  C   UNL d   1     -58.262 -98.757 -46.677  0.00  0.00     0.039 C 
BRANCH  21  22
ATOM     22  C   UNL d   1     -59.003 -99.048 -46.904  0.00  0.00     0.003 C 
ATOM     23  C   UNL d   1     -59.165 -99.209 -47.689  0.00  0.00     0.000 C 
ENDBRANCH  21  22
ENDBRANCH  10  21
TORSDOF 4
ENDMDL
