MODEL 1
REMARK VINA RESULT:      -7.6      0.000      0.000
REMARK  4 active torsions:
REMARK  status: ('A' for Active; 'I' for Inactive)
REMARK    1  A    between atoms: C_11  and  N_2 
REMARK    2  A    between atoms: C_9  and  C_3 
REMARK    3  A    between atoms: C_12  and  C_11 
REMARK    4  A    between atoms: O_19  and  C_16 
ROOT
ATOM      1  N   UNL d   1     -47.357  14.448  22.899  0.00  0.00    -0.206 NA
ATOM      2  N   UNL d   1     -47.949  13.256  22.840  0.00  0.00    -0.273 N 
ATOM      3  C   UNL d   1     -47.221  13.643  22.790  0.00  0.00     0.151 A 
ATOM      4  C   UNL d   1     -48.530  13.819  22.979  0.00  0.00     0.185 A 
ATOM      5  C   UNL d   1     -48.166  14.562  23.016  0.00  0.00     0.199 A 
ATOM      6  N   UNL d   1     -49.360  13.763  23.080  0.00  0.00    -0.224 NA
ATOM      7  N   UNL d   1     -48.614  15.230  23.150  0.00  0.00    -0.223 NA
ATOM      8  C   UNL d   1     -49.803  14.446  23.215  0.00  0.00     0.101 A 
ATOM      9  C   UNL d   1     -49.428  15.181  23.250  0.00  0.00     0.101 A 
ATOM     10  C   UNL d   1     -50.621  14.389  23.314  0.00  0.00     0.021 A 
ATOM     11  C   UNL d   1     -49.875  15.856  23.385  0.00  0.00     0.021 A 
ATOM     12  C   UNL d   1     -50.686  15.808  23.484  0.00  0.00     0.002 A 
ATOM     13  C   UNL d   1     -51.064  15.072  23.449  0.00  0.00     0.002 A 
ENDROOT
BRANCH   3  14
ATOM     14  C   UNL d   1     -46.498  13.285  22.656  0.00  0.00     0.035 A 
ATOM     15  C   UNL d   1     -46.186  12.774  23.199  0.00  0.00     0.005 A 
ATOM     16  C   UNL d   1     -45.480  12.432  23.053  0.00  0.00     0.024 A 
ATOM     17  C   UNL d   1     -45.068  12.598  22.353  0.00  0.00     0.094 A 
ATOM     18  C   UNL d   1     -45.372  13.101  21.817  0.00  0.00     0.024 A 
ATOM     19  C   UNL d   1     -46.086  13.451  21.956  0.00  0.00     0.005 A 
BRANCH  17  20
ATOM     20  O   UNL d   1     -44.367  12.243  22.236  0.00  0.00    -0.328 OA
ATOM     21  C   UNL d   1     -43.670  12.628  21.602  0.00  0.00     0.181 C 
ENDBRANCH  17  20
ENDBRANCH   3  14
BRANCH   2  22
ATOM     22  C   UNL d   1     -48.071  12.441  22.763  0.00  0.00     0.083 C 
BRANCH  22  23
ATOM     23  C   UNL d   1     -48.665  12.157  22.270  0.00  0.00     0.019 C 
ATOM     24  C   UNL d   1     -48.831  11.349  22.239  0.00  0.00     0.002 C 
ENDBRANCH  22  23
ENDBRANCH   2  22
TORSDOF 4
ENDMDL
MODEL 2
REMARK VINA RESULT:      -7.5      1.846      4.566
REMARK  4 active torsions:
REMARK  status: ('A' for Active; 'I' for Inactive)
REMARK    1  A    between atoms: C_11  and  N_2 
REMARK    2  A    between atoms: C_9  and  C_3 
REMARK    3  A    between atoms: C_12  and  C_11 
REMARK    4  A    between atoms: O_19  and  C_16 
ROOT
ATOM      1  N   UNL d   1     -46.664  13.433  22.544  0.00  0.00    -0.206 NA
ATOM      2  N   UNL d   1     -47.519  12.641  23.189  0.00  0.00    -0.273 N 
ATOM      3  C   UNL d   1     -47.446  13.363  22.794  0.00  0.00     0.151 A 
ATOM      4  C   UNL d   1     -46.788  12.270  23.183  0.00  0.00     0.185 A 
ATOM      5  C   UNL d   1     -46.253  12.759  22.782  0.00  0.00     0.199 A 
ATOM      6  N   UNL d   1     -46.521  11.537  23.492  0.00  0.00    -0.224 NA
ATOM      7  N   UNL d   1     -45.476  12.527  22.691  0.00  0.00    -0.223 NA
ATOM      8  C   UNL d   1     -45.733  11.313  23.393  0.00  0.00     0.101 A 
ATOM      9  C   UNL d   1     -45.210  11.810  22.992  0.00  0.00     0.101 A 
ATOM     10  C   UNL d   1     -45.473  10.591  23.698  0.00  0.00     0.021 A 
ATOM     11  C   UNL d   1     -44.428  11.581  22.897  0.00  0.00     0.021 A 
ATOM     12  C   UNL d   1     -44.161  10.868  23.196  0.00  0.00     0.002 A 
ATOM     13  C   UNL d   1     -44.685  10.367  23.599  0.00  0.00     0.002 A 
ENDROOT
BRANCH   3  14
ATOM     14  C   UNL d   1     -48.047  13.905  22.675  0.00  0.00     0.035 A 
ATOM     15  C   UNL d   1     -48.473  13.901  21.989  0.00  0.00     0.005 A 
ATOM     16  C   UNL d   1     -49.056  14.437  21.889  0.00  0.00     0.024 A 
ATOM     17  C   UNL d   1     -49.224  14.993  22.480  0.00  0.00     0.094 A 
ATOM     18  C   UNL d   1     -48.805  14.999  23.157  0.00  0.00     0.024 A 
ATOM     19  C   UNL d   1     -48.215  14.461  23.267  0.00  0.00     0.005 A 
BRANCH  17  20
ATOM     20  O   UNL d   1     -49.810  15.514  22.351  0.00  0.00    -0.328 OA
ATOM     21  C   UNL d   1     -50.761  15.340  22.670  0.00  0.00     0.181 C 
ENDBRANCH  17  20
ENDBRANCH   3  14
BRANCH   2  22
ATOM     22  C   UNL d   1     -48.212  12.344  23.533  0.00  0.00     0.083 C 
BRANCH  22  23
ATOM     23  C   UNL d   1     -48.429  11.560  23.413  0.00  0.00     0.019 C 
ATOM     24  C   UNL d   1     -49.160  11.284  23.679  0.00  0.00     0.002 C 
ENDBRANCH  22  23
ENDBRANCH   2  22
TORSDOF 4
ENDMDL
MODEL 3
REMARK VINA RESULT:      -7.2      2.245      5.088
REMARK  4 active torsions:
REMARK  status: ('A' for Active; 'I' for Inactive)
REMARK    1  A    between atoms: C_11  and  N_2 
REMARK    2  A    between atoms: C_9  and  C_3 
REMARK    3  A    between atoms: C_12  and  C_11 
REMARK    4  A    between atoms: O_19  and  C_16 
ROOT
ATOM      1  N   UNL d   1     -47.491  11.087  23.396  0.00  0.00    -0.206 NA
ATOM      2  N   UNL d   1     -47.054  12.250  22.915  0.00  0.00    -0.273 N 
ATOM      3  C   UNL d   1     -47.732  11.823  23.116  0.00  0.00     0.151 A 
ATOM      4  C   UNL d   1     -46.399  11.780  23.071  0.00  0.00     0.185 A 
ATOM      5  C   UNL d   1     -46.667  11.055  23.371  0.00  0.00     0.199 A 
ATOM      6  N   UNL d   1     -45.575  11.907  22.982  0.00  0.00    -0.224 NA
ATOM      7  N   UNL d   1     -46.131  10.475  23.576  0.00  0.00    -0.223 NA
ATOM      8  C   UNL d   1     -45.044  11.313  23.193  0.00  0.00     0.101 A 
ATOM      9  C   UNL d   1     -45.323  10.596  23.490  0.00  0.00     0.101 A 
ATOM     10  C   UNL d   1     -44.232  11.441  23.105  0.00  0.00     0.021 A 
ATOM     11  C   UNL d   1     -44.788  10.009  23.698  0.00  0.00     0.021 A 
ATOM     12  C   UNL d   1     -43.983  10.127  23.614  0.00  0.00     0.002 A 
ATOM     13  C   UNL d   1     -43.700  10.847  23.315  0.00  0.00     0.002 A 
ENDROOT
BRANCH   3  14
ATOM     14  C   UNL d   1     -48.502  12.090  23.046  0.00  0.00     0.035 A 
ATOM     15  C   UNL d   1     -48.912  12.334  23.698  0.00  0.00     0.005 A 
ATOM     16  C   UNL d   1     -49.663  12.592  23.613  0.00  0.00     0.024 A 
ATOM     17  C   UNL d   1     -50.020  12.610  22.865  0.00  0.00     0.094 A 
ATOM     18  C   UNL d   1     -49.618  12.370  22.221  0.00  0.00     0.024 A 
ATOM     19  C   UNL d   1     -48.859  12.108  22.298  0.00  0.00     0.005 A 
BRANCH  17  20
ATOM     20  O   UNL d   1     -50.769  12.872  22.812  0.00  0.00    -0.328 OA
ATOM     21  C   UNL d   1     -51.062  13.509  22.076  0.00  0.00     0.181 C 
ENDBRANCH  17  20
ENDBRANCH   3  14
BRANCH   2  22
ATOM     22  C   UNL d   1     -47.037  13.020  22.609  0.00  0.00     0.083 C 
BRANCH  22  23
ATOM     23  C   UNL d   1     -46.568  13.595  22.963  0.00  0.00     0.019 C 
ATOM     24  C   UNL d   1     -46.510  14.348  22.632  0.00  0.00     0.002 C 
ENDBRANCH  22  23
ENDBRANCH   2  22
TORSDOF 4
ENDMDL
MODEL 4
REMARK VINA RESULT:      -5.9      1.174      2.166
REMARK  4 active torsions:
REMARK  status: ('A' for Active; 'I' for Inactive)
REMARK    1  A    between atoms: C_11  and  N_2 
REMARK    2  A    between atoms: C_9  and  C_3 
REMARK    3  A    between atoms: C_12  and  C_11 
REMARK    4  A    between atoms: O_19  and  C_16 
ROOT
ATOM      1  N   UNL d   1     -47.537  11.905  22.756  0.00  0.00    -0.206 NA
ATOM      2  N   UNL d   1     -47.475  13.230  22.889  0.00  0.00    -0.273 N 
ATOM      3  C   UNL d   1     -47.033  12.555  22.711  0.00  0.00     0.151 A 
ATOM      4  C   UNL d   1     -48.247  12.997  23.043  0.00  0.00     0.185 A 
ATOM      5  C   UNL d   1     -48.290  12.174  22.961  0.00  0.00     0.199 A 
ATOM      6  N   UNL d   1     -48.937  13.425  23.251  0.00  0.00    -0.224 NA
ATOM      7  N   UNL d   1     -48.998  11.788  23.083  0.00  0.00    -0.223 NA
ATOM      8  C   UNL d   1     -49.648  13.023  23.372  0.00  0.00     0.101 A 
ATOM      9  C   UNL d   1     -49.677  12.203  23.287  0.00  0.00     0.101 A 
ATOM     10  C   UNL d   1     -50.326  13.447  23.577  0.00  0.00     0.021 A 
ATOM     11  C   UNL d   1     -50.387  11.810  23.409  0.00  0.00     0.021 A 
ATOM     12  C   UNL d   1     -51.064  12.221  23.612  0.00  0.00     0.002 A 
ATOM     13  C   UNL d   1     -51.037  13.045  23.698  0.00  0.00     0.002 A 
ENDROOT
BRANCH   3  14
ATOM     14  C   UNL d   1     -46.236  12.542  22.525  0.00  0.00     0.035 A 
ATOM     15  C   UNL d   1     -45.971  12.873  21.836  0.00  0.00     0.005 A 
ATOM     16  C   UNL d   1     -45.191  12.852  21.669  0.00  0.00     0.024 A 
ATOM     17  C   UNL d   1     -44.657  12.495  22.193  0.00  0.00     0.094 A 
ATOM     18  C   UNL d   1     -44.915  12.169  22.871  0.00  0.00     0.024 A 
ATOM     19  C   UNL d   1     -45.702  12.186  23.048  0.00  0.00     0.005 A 
BRANCH  17  20
ATOM     20  O   UNL d   1     -43.886  12.490  21.998  0.00  0.00    -0.328 OA
ATOM     21  C   UNL d   1     -43.527  13.038  21.219  0.00  0.00     0.181 C 
ENDBRANCH  17  20
ENDBRANCH   3  14
BRANCH   2  22
ATOM     22  C   UNL d   1     -47.189  14.007  22.909  0.00  0.00     0.083 C 
BRANCH  22  23
ATOM     23  C   UNL d   1     -47.622  14.615  22.565  0.00  0.00     0.019 C 
ATOM     24  C   UNL d   1     -47.368  15.398  22.633  0.00  0.00     0.002 C 
ENDBRANCH  22  23
ENDBRANCH   2  22
TORSDOF 4
ENDMDL
MODEL 5
REMARK VINA RESULT:      -4.9      1.351      2.179
REMARK  4 active torsions:
REMARK  status: ('A' for Active; 'I' for Inactive)
REMARK    1  A    between atoms: C_11  and  N_2 
REMARK    2  A    between atoms: C_9  and  C_3 
REMARK    3  A    between atoms: C_12  and  C_11 
REMARK    4  A    between atoms: O_19  and  C_16 
ROOT
ATOM      1  N   UNL d   1     -47.952  11.975  22.361  0.00  0.00    -0.206 NA
ATOM      2  N   UNL d   1     -47.501  13.164  22.758  0.00  0.00    -0.273 N 
ATOM      3  C   UNL d   1     -47.300  12.367  22.677  0.00  0.00     0.151 A 
ATOM      4  C   UNL d   1     -48.272  13.263  22.494  0.00  0.00     0.185 A 
ATOM      5  C   UNL d   1     -48.556  12.525  22.246  0.00  0.00     0.199 A 
ATOM      6  N   UNL d   1     -48.772  13.933  22.441  0.00  0.00    -0.224 NA
ATOM      7  N   UNL d   1     -49.315  12.456  21.955  0.00  0.00    -0.223 NA
ATOM      8  C   UNL d   1     -49.538  13.851  22.144  0.00  0.00     0.101 A 
ATOM      9  C   UNL d   1     -49.809  13.111  21.901  0.00  0.00     0.101 A 
ATOM     10  C   UNL d   1     -50.029  14.514  22.093  0.00  0.00     0.021 A 
ATOM     11  C   UNL d   1     -50.572  13.037  21.607  0.00  0.00     0.021 A 
ATOM     12  C   UNL d   1     -51.064  13.687  21.553  0.00  0.00     0.002 A 
ATOM     13  C   UNL d   1     -50.794  14.432  21.796  0.00  0.00     0.002 A 
ENDROOT
BRANCH   3  14
ATOM     14  C   UNL d   1     -46.580  12.034  22.876  0.00  0.00     0.035 A 
ATOM     15  C   UNL d   1     -46.517  11.546  23.517  0.00  0.00     0.005 A 
ATOM     16  C   UNL d   1     -45.808  11.229  23.698  0.00  0.00     0.024 A 
ATOM     17  C   UNL d   1     -45.140  11.397  23.236  0.00  0.00     0.094 A 
ATOM     18  C   UNL d   1     -45.200  11.878  22.604  0.00  0.00     0.024 A 
ATOM     19  C   UNL d   1     -45.913  12.202  22.414  0.00  0.00     0.005 A 
BRANCH  17  20
ATOM     20  O   UNL d   1     -44.448  11.066  23.441  0.00  0.00    -0.328 OA
ATOM     21  C   UNL d   1     -44.349  10.061  23.559  0.00  0.00     0.181 C 
ENDBRANCH  17  20
ENDBRANCH   3  14
BRANCH   2  22
ATOM     22  C   UNL d   1     -47.010  13.762  23.054  0.00  0.00     0.083 C 
BRANCH  22  23
ATOM     23  C   UNL d   1     -46.853  14.431  22.602  0.00  0.00     0.019 C 
ATOM     24  C   UNL d   1     -46.556  15.114  22.956  0.00  0.00     0.002 C 
ENDBRANCH  22  23
ENDBRANCH   2  22
TORSDOF 4
ENDMDL
