MODEL 1
REMARK VINA RESULT:      47.4      0.000      0.000
REMARK  4 active torsions:
REMARK  status: ('A' for Active; 'I' for Inactive)
REMARK    1  A    between atoms: C_7  and  N_1 
REMARK    2  A    between atoms: C_9  and  C_7 
REMARK       I    between atoms: N_16  and  C_9 
REMARK    3  A    between atoms: C_21  and  N_16 
REMARK    4  A    between atoms: C_20  and  C_21 
ROOT
ATOM      1  C   UNL d   1      14.522  12.774  -0.077  0.00  0.00     0.146 C 
ENDROOT
BRANCH   1   2
ATOM      2  N   UNL d   1      15.019  13.425  -0.060  0.00  0.00    -0.269 N 
ATOM      3  C   UNL d   1      15.827  13.288  -0.061  0.00  0.00     0.265 A 
ATOM      4  C   UNL d   1      16.441  13.896  -0.046  0.00  0.00     0.068 A 
ATOM      5  O   UNL d   1      16.073  12.487  -0.079  0.00  0.00    -0.267 OA
ATOM      6  C   UNL d   1      16.340  14.741  -0.027  0.00  0.00     0.034 A 
ATOM      7  C   UNL d   1      17.018  15.190  -0.015  0.00  0.00     0.007 C 
ATOM      8  S   UNL d   1      15.630  15.151  -0.019  0.00  0.00    -0.085 SA
ATOM      9  C   UNL d   1      14.993  14.861  -0.028  0.00  0.00     0.046 A 
ATOM     10  C   UNL d   1      14.694  14.074  -0.046  0.00  0.00     0.073 A 
ATOM     11  C   UNL d   1      14.455  15.505  -0.014  0.00  0.00     0.008 A 
ATOM     12  C   UNL d   1      13.874  13.933  -0.052  0.00  0.00     0.018 A 
ATOM     13  C   UNL d   1      13.343  14.573  -0.039  0.00  0.00     0.002 A 
ATOM     14  C   UNL d   1      13.635  15.363  -0.020  0.00  0.00     0.001 A 
ENDBRANCH   1   2
BRANCH   1  15
ATOM     15  C   UNL d   1      14.487  12.313  -0.757  0.00  0.00     0.297 C 
ATOM     16  N   UNL d   1      13.862  12.375  -1.277  0.00  0.00    -0.205 NA
ATOM     17  O   UNL d   1      15.091  11.783  -0.913  0.00  0.00    -0.264 OA
BRANCH  16  18
ATOM     18  C   UNL d   1      13.832  11.920  -1.945  0.00  0.00     0.102 C 
BRANCH  18  19
ATOM     19  C   UNL d   1      13.665  12.260  -2.669  0.00  0.00     0.021 A 
ATOM     20  C   UNL d   1      13.433  11.782  -3.297  0.00  0.00     0.028 A 
ATOM     21  C   UNL d   1      13.264  12.130  -4.032  0.00  0.00     0.119 A 
ATOM     22  O   UNL d   1      13.029  11.821  -4.738  0.00  0.00    -0.300 OA
ATOM     23  C   UNL d   1      13.330  12.938  -4.117  0.00  0.00     0.119 A 
ATOM     24  C   UNL d   1      12.946  12.433  -5.271  0.00  0.00     0.304 A 
ATOM     25  O   UNL d   1      13.132  13.129  -4.891  0.00  0.00    -0.300 OA
ATOM     26  C   UNL d   1      13.564  13.406  -3.478  0.00  0.00     0.026 A 
ATOM     27  C   UNL d   1      13.730  13.056  -2.757  0.00  0.00     0.004 A 
ENDBRANCH  18  19
ENDBRANCH  16  18
ENDBRANCH   1  15
TORSDOF 4
ENDMDL
