MODEL 1
REMARK VINA RESULT:     115.6      0.000      0.000
REMARK  5 active torsions:
REMARK  status: ('A' for Active; 'I' for Inactive)
REMARK    1  A    between atoms: N_6  and  S_1 
REMARK    2  A    between atoms: C_8  and  S_1 
REMARK    3  A    between atoms: C_12  and  C_3 
REMARK    4  A    between atoms: C_4  and  C_11 
REMARK    5  A    between atoms: C_15  and  N_6 
ROOT
ATOM      1  C   UNL d   1      60.504  48.057  50.165  0.00  0.00     0.018 A 
ATOM      2  C   UNL d   1      61.843  47.179  49.780  0.00  0.00     0.094 A 
ATOM      3  C   UNL d   1      60.986  47.749  50.762  0.00  0.00     0.003 A 
ATOM      4  C   UNL d   1      60.696  47.922  49.374  0.00  0.00     0.003 A 
ATOM      5  C   UNL d   1      61.655  47.310  50.570  0.00  0.00     0.020 A 
ATOM      6  C   UNL d   1      61.361  47.486  49.183  0.00  0.00     0.020 A 
ENDROOT
BRANCH   1   7
ATOM      7  C   UNL d   1      59.834  48.496  50.358  0.00  0.00     0.088 A 
ATOM      8  N   UNL d   1      58.489  48.185  50.644  0.00  0.00    -0.239 NA
ATOM      9  C   UNL d   1      58.327  48.981  50.749  0.00  0.00     0.111 A 
ATOM     10  S   UNL d   1      58.917  49.534  50.658  0.00  0.00    -0.066 SA
ATOM     11  C   UNL d   1      59.680  49.293  50.461  0.00  0.00     0.056 A 
BRANCH   9  12
ATOM     12  C   UNL d   1      57.568  49.223  50.946  0.00  0.00     0.024 A 
ATOM     13  C   UNL d   1      57.024  49.377  50.347  0.00  0.00     0.002 A 
ATOM     14  C   UNL d   1      56.265  49.619  50.551  0.00  0.00     0.000 A 
ATOM     15  C   UNL d   1      56.046  49.708  51.338  0.00  0.00     0.000 A 
ATOM     16  C   UNL d   1      56.599  49.551  51.934  0.00  0.00     0.000 A 
ATOM     17  C   UNL d   1      57.367  49.306  51.734  0.00  0.00     0.002 A 
ENDBRANCH   9  12
ENDBRANCH   1   7
BRANCH   2  18
ATOM     18  N   UNL d   1      62.516  46.737  49.580  0.00  0.00    -0.158 NA
BRANCH  18  19
ATOM     19  S   UNL d   1      62.454  45.931  49.455  0.00  0.00     0.285 S 
ATOM     20  O   UNL d   1      61.825  45.511  49.789  0.00  0.00    -0.198 OA
ATOM     21  O   UNL d   1      63.017  45.534  48.995  0.00  0.00    -0.198 OA
BRANCH  19  22
ATOM     22  C   UNL d   1      62.390  45.117  49.329  0.00  0.00     0.105 A 
ATOM     23  C   UNL d   1      63.008  44.612  49.547  0.00  0.00     0.013 A 
ATOM     24  C   UNL d   1      62.953  43.801  49.426  0.00  0.00     0.001 A 
ATOM     25  C   UNL d   1      62.262  43.489  49.078  0.00  0.00     0.000 A 
ATOM     26  C   UNL d   1      61.640  43.988  48.858  0.00  0.00     0.001 A 
ATOM     27  C   UNL d   1      62.195  42.668  48.950  0.00  0.00     0.000 C 
ATOM     28  C   UNL d   1      61.706  44.807  48.984  0.00  0.00     0.013 A 
ENDBRANCH  19  22
ENDBRANCH  18  19
ENDBRANCH   2  18
TORSDOF 5
ENDMDL
