MODEL 1
REMARK VINA RESULT:      68.4      0.000      0.000
REMARK  5 active torsions:
REMARK  status: ('A' for Active; 'I' for Inactive)
REMARK    1  A    between atoms: N_7  and  C_1 
REMARK    2  A    between atoms: C_12  and  C_2 
REMARK       I    between atoms: C_8  and  N_7 
REMARK    3  A    between atoms: C_10  and  C_8 
REMARK    4  A    between atoms: N_9  and  C_16 
REMARK    5  A    between atoms: C_16  and  C_10 
ROOT
ATOM      1  C   UNL d   1     -49.606  26.172  33.541  0.00  0.00     0.142 A 
ATOM      2  C   UNL d   1     -50.396  25.930  33.497  0.00  0.00     0.024 A 
ATOM      3  C   UNL d   1     -49.008  25.632  33.535  0.00  0.00     0.297 A 
ATOM      4  C   UNL d   1     -50.560  25.123  33.447  0.00  0.00     0.020 A 
ATOM      5  N   UNL d   1     -49.169  24.822  33.484  0.00  0.00    -0.207 NA
ATOM      6  C   UNL d   1     -49.949  24.572  33.440  0.00  0.00     0.085 A 
ATOM      7  C   UNL d   1     -51.346  24.878  33.403  0.00  0.00     0.008 A 
ATOM      8  O   UNL d   1     -48.219  25.890  33.579  0.00  0.00    -0.264 OA
ATOM      9  C   UNL d   1     -50.120  23.770  33.390  0.00  0.00     0.020 A 
ATOM     10  C   UNL d   1     -51.513  24.063  33.352  0.00  0.00     0.035 A 
ATOM     11  C   UNL d   1     -50.915  23.523  33.346  0.00  0.00     0.008 A 
ATOM     12 BR   UNL d   1     -52.295  23.797  33.307  0.00  0.00    -0.049 Br
ENDROOT
BRANCH   1  13
ATOM     13  N   UNL d   1     -49.421  26.976  33.592  0.00  0.00    -0.203 NA
ATOM     14  C   UNL d   1     -48.810  27.244  34.075  0.00  0.00     0.281 C 
ATOM     15  O   UNL d   1     -48.127  27.200  34.659  0.00  0.00    -0.265 OA
BRANCH  14  16
ATOM     16  C   UNL d   1     -48.627  28.043  34.125  0.00  0.00     0.082 C 
BRANCH  16  17
ATOM     17  C   UNL d   1     -48.579  28.429  34.846  0.00  0.00     0.085 C 
BRANCH  17  18
ATOM     18  N   UNL d   1     -48.246  29.175  34.919  0.00  0.00    -0.299 N 
ATOM     19  C   UNL d   1     -47.737  29.368  35.537  0.00  0.00     0.107 A 
ATOM     20  C   UNL d   1     -47.414  30.114  35.597  0.00  0.00     0.142 A 
ATOM     21  O   UNL d   1     -47.598  30.695  35.024  0.00  0.00    -0.300 OA
ATOM     22  C   UNL d   1     -48.091  30.511  34.424  0.00  0.00     0.142 A 
ATOM     23  C   UNL d   1     -48.430  29.756  34.347  0.00  0.00     0.107 A 
ENDBRANCH  17  18
ENDBRANCH  16  17
ENDBRANCH  14  16
ENDBRANCH   1  13
BRANCH   2  24
ATOM     24  C   UNL d   1     -51.000  26.475  33.504  0.00  0.00     0.002 A 
ATOM     25  C   UNL d   1     -50.855  27.264  33.310  0.00  0.00     0.000 A 
ATOM     26  C   UNL d   1     -51.469  27.818  33.316  0.00  0.00     0.000 A 
ATOM     27  C   UNL d   1     -52.221  27.578  33.517  0.00  0.00     0.000 A 
ATOM     28  C   UNL d   1     -52.388  26.808  33.711  0.00  0.00     0.000 A 
ATOM     29  C   UNL d   1     -51.768  26.249  33.704  0.00  0.00     0.000 A 
ENDBRANCH   2  24
TORSDOF 5
ENDMDL
