MODEL 1
REMARK VINA RESULT:      -3.2      0.000      0.000
REMARK  1 active torsions:
REMARK  status: ('A' for Active; 'I' for Inactive)
REMARK    1  A    between atoms: C_7  and  C_2 
ROOT
ATOM      1  C   UNL d   1      55.766   0.385  33.878  0.00  0.00     0.074 A 
ATOM      2  C   UNL d   1      56.538   0.286  33.606  0.00  0.00     0.088 A 
ATOM      3  C   UNL d   1      55.629   0.583  34.666  0.00  0.00     0.088 A 
ATOM      4  C   UNL d   1      57.037   0.582  34.910  0.00  0.00     0.221 A 
ATOM      5  N   UNL d   1      56.264   0.682  35.183  0.00  0.00    -0.217 NA
ATOM      6  N   UNL d   1      57.174   0.384  34.122  0.00  0.00    -0.217 NA
ATOM      7  C   UNL d   1      55.139   0.286  33.363  0.00  0.00     0.199 A 
ATOM      8  S   UNL d   1      57.673   0.681  35.428  0.00  0.00    -0.037 SA
ATOM      9  O   UNL d   1      55.276   0.088  32.574  0.00  0.00    -0.286 OA
ATOM     10  C   UNL d   1      54.865   0.682  34.941  0.00  0.00     0.019 A 
ATOM     11  C   UNL d   1      54.358   0.385  33.634  0.00  0.00     0.042 A 
ATOM     12  C   UNL d   1      54.221   0.583  34.422  0.00  0.00     0.005 A 
ENDROOT
BRANCH   2  13
ATOM     13  C   UNL d   1      56.675   0.087  32.817  0.00  0.00     0.021 A 
ATOM     14  C   UNL d   1      56.719  -0.706  32.593  0.00  0.00     0.043 A 
ATOM     15  C   UNL d   1      56.855  -0.903  31.809  0.00  0.00     0.196 A 
ATOM     16  O   UNL d   1      56.900  -1.696  31.584  0.00  0.00    -0.287 OA
ATOM     17  C   UNL d   1      56.947  -0.308  31.244  0.00  0.00     0.042 A 
ATOM     18  C   UNL d   1      56.903   0.484  31.469  0.00  0.00     0.003 A 
ATOM     19  C   UNL d   1      56.767   0.681  32.253  0.00  0.00     0.002 A 
ENDBRANCH   2  13
TORSDOF 1
ENDMDL
MODEL 2
REMARK VINA RESULT:      -3.1      4.119      5.427
REMARK  1 active torsions:
REMARK  status: ('A' for Active; 'I' for Inactive)
REMARK    1  A    between atoms: C_7  and  C_2 
ROOT
ATOM      1  C   UNL d   1      58.803  -0.667  29.654  0.00  0.00     0.074 A 
ATOM      2  C   UNL d   1      59.330  -1.032  29.134  0.00  0.00     0.088 A 
ATOM      3  C   UNL d   1      58.841   0.147  29.773  0.00  0.00     0.088 A 
ATOM      4  C   UNL d   1      59.932   0.231  28.855  0.00  0.00     0.221 A 
ATOM      5  N   UNL d   1      59.405   0.597  29.374  0.00  0.00    -0.217 NA
ATOM      6  N   UNL d   1      59.894  -0.583  28.735  0.00  0.00    -0.217 NA
ATOM      7  C   UNL d   1      58.245  -1.116  30.047  0.00  0.00     0.199 A 
ATOM      8  S   UNL d   1      60.497   0.682  28.455  0.00  0.00    -0.037 SA
ATOM      9  O   UNL d   1      58.207  -1.932  29.927  0.00  0.00    -0.286 OA
ATOM     10  C   UNL d   1      58.321   0.513  30.287  0.00  0.00     0.019 A 
ATOM     11  C   UNL d   1      57.712  -0.752  30.572  0.00  0.00     0.042 A 
ATOM     12  C   UNL d   1      57.750   0.062  30.692  0.00  0.00     0.005 A 
ENDROOT
BRANCH   2  13
ATOM     13  C   UNL d   1      59.292  -1.848  29.014  0.00  0.00     0.021 A 
ATOM     14  C   UNL d   1      59.883  -2.337  29.318  0.00  0.00     0.043 A 
ATOM     15  C   UNL d   1      59.845  -3.147  29.199  0.00  0.00     0.196 A 
ATOM     16  O   UNL d   1      60.436  -3.637  29.503  0.00  0.00    -0.287 OA
ATOM     17  C   UNL d   1      59.216  -3.473  28.775  0.00  0.00     0.042 A 
ATOM     18  C   UNL d   1      58.626  -2.983  28.472  0.00  0.00     0.003 A 
ATOM     19  C   UNL d   1      58.664  -2.173  28.591  0.00  0.00     0.002 A 
ENDBRANCH   2  13
TORSDOF 1
ENDMDL
MODEL 3
REMARK VINA RESULT:      -2.8      3.882      5.560
REMARK  1 active torsions:
REMARK  status: ('A' for Active; 'I' for Inactive)
REMARK    1  A    between atoms: C_7  and  C_2 
ROOT
ATOM      1  C   UNL d   1      59.218  -0.898  29.280  0.00  0.00     0.074 A 
ATOM      2  C   UNL d   1      59.212  -0.111  29.527  0.00  0.00     0.088 A 
ATOM      3  C   UNL d   1      59.800  -1.163  28.761  0.00  0.00     0.088 A 
ATOM      4  C   UNL d   1      60.371   0.147  28.734  0.00  0.00     0.221 A 
ATOM      5  N   UNL d   1      60.377  -0.641  28.487  0.00  0.00    -0.217 NA
ATOM      6  N   UNL d   1      59.789   0.412  29.254  0.00  0.00    -0.217 NA
ATOM      7  C   UNL d   1      58.644  -1.413  29.553  0.00  0.00     0.199 A 
ATOM      8  S   UNL d   1      60.949   0.670  28.461  0.00  0.00    -0.037 SA
ATOM      9  O   UNL d   1      58.061  -1.148  30.073  0.00  0.00    -0.286 OA
ATOM     10  C   UNL d   1      59.810  -1.942  28.513  0.00  0.00     0.019 A 
ATOM     11  C   UNL d   1      58.646  -2.208  29.306  0.00  0.00     0.042 A 
ATOM     12  C   UNL d   1      59.229  -2.472  28.787  0.00  0.00     0.005 A 
ENDROOT
BRANCH   2  13
ATOM     13  C   UNL d   1      58.629   0.153  30.047  0.00  0.00     0.021 A 
ATOM     14  C   UNL d   1      58.814   0.286  30.840  0.00  0.00     0.043 A 
ATOM     15  C   UNL d   1      58.235   0.549  31.357  0.00  0.00     0.196 A 
ATOM     16  O   UNL d   1      58.419   0.682  32.151  0.00  0.00    -0.287 OA
ATOM     17  C   UNL d   1      57.467   0.681  31.084  0.00  0.00     0.042 A 
ATOM     18  C   UNL d   1      57.283   0.548  30.291  0.00  0.00     0.003 A 
ATOM     19  C   UNL d   1      57.862   0.285  29.774  0.00  0.00     0.002 A 
ENDBRANCH   2  13
TORSDOF 1
ENDMDL
MODEL 4
REMARK VINA RESULT:      -2.7      3.934      5.818
REMARK  1 active torsions:
REMARK  status: ('A' for Active; 'I' for Inactive)
REMARK    1  A    between atoms: C_7  and  C_2 
ROOT
ATOM      1  C   UNL d   1      59.590  -0.878  29.220  0.00  0.00     0.074 A 
ATOM      2  C   UNL d   1      58.819  -1.088  29.426  0.00  0.00     0.088 A 
ATOM      3  C   UNL d   1      60.079  -1.424  28.845  0.00  0.00     0.088 A 
ATOM      4  C   UNL d   1      59.028  -2.391  28.881  0.00  0.00     0.221 A 
ATOM      5  N   UNL d   1      59.799  -2.181  28.675  0.00  0.00    -0.217 NA
ATOM      6  N   UNL d   1      58.538  -1.845  29.256  0.00  0.00    -0.217 NA
ATOM      7  C   UNL d   1      59.864  -0.127  29.390  0.00  0.00     0.199 A 
ATOM      8  S   UNL d   1      58.747  -3.149  28.711  0.00  0.00    -0.037 SA
ATOM      9  O   UNL d   1      59.374   0.420  29.765  0.00  0.00    -0.286 OA
ATOM     10  C   UNL d   1      60.844  -1.220  28.639  0.00  0.00     0.019 A 
ATOM     11  C   UNL d   1      60.641   0.089  29.184  0.00  0.00     0.042 A 
ATOM     12  C   UNL d   1      61.131  -0.457  28.809  0.00  0.00     0.005 A 
ENDROOT
BRANCH   2  13
ATOM     13  C   UNL d   1      58.329  -0.541  29.801  0.00  0.00     0.021 A 
ATOM     14  C   UNL d   1      58.110  -0.656  30.588  0.00  0.00     0.043 A 
ATOM     15  C   UNL d   1      57.622  -0.113  30.962  0.00  0.00     0.196 A 
ATOM     16  O   UNL d   1      57.402  -0.228  31.749  0.00  0.00    -0.287 OA
ATOM     17  C   UNL d   1      57.352   0.550  30.550  0.00  0.00     0.042 A 
ATOM     18  C   UNL d   1      57.572   0.665  29.764  0.00  0.00     0.003 A 
ATOM     19  C   UNL d   1      58.059   0.121  29.390  0.00  0.00     0.002 A 
ENDBRANCH   2  13
TORSDOF 1
ENDMDL
MODEL 5
REMARK VINA RESULT:      -1.7      9.003      9.816
REMARK  1 active torsions:
REMARK  status: ('A' for Active; 'I' for Inactive)
REMARK    1  A    between atoms: C_7  and  C_2 
ROOT
ATOM      1  C   UNL d   1      59.481  -8.474  35.068  0.00  0.00     0.074 A 
ATOM      2  C   UNL d   1      59.815  -9.145  34.725  0.00  0.00     0.088 A 
ATOM      3  C   UNL d   1      59.697  -8.250  35.831  0.00  0.00     0.088 A 
ATOM      4  C   UNL d   1      60.582  -9.369  35.908  0.00  0.00     0.221 A 
ATOM      5  N   UNL d   1      60.247  -8.697  36.252  0.00  0.00    -0.217 NA
ATOM      6  N   UNL d   1      60.366  -9.593  35.145  0.00  0.00    -0.217 NA
ATOM      7  C   UNL d   1      58.935  -8.033  34.648  0.00  0.00     0.199 A 
ATOM      8  S   UNL d   1      61.133  -9.817  36.330  0.00  0.00    -0.037 SA
ATOM      9  O   UNL d   1      58.719  -8.257  33.884  0.00  0.00    -0.286 OA
ATOM     10  C   UNL d   1      59.368  -7.585  36.175  0.00  0.00     0.019 A 
ATOM     11  C   UNL d   1      58.596  -7.354  34.990  0.00  0.00     0.042 A 
ATOM     12  C   UNL d   1      58.812  -7.131  35.753  0.00  0.00     0.005 A 
ENDROOT
BRANCH   2  13
ATOM     13  C   UNL d   1      59.598  -9.369  33.961  0.00  0.00     0.021 A 
ATOM     14  C   UNL d   1      60.160  -9.368  33.357  0.00  0.00     0.043 A 
ATOM     15  C   UNL d   1      59.945  -9.591  32.598  0.00  0.00     0.196 A 
ATOM     16  O   UNL d   1      60.506  -9.591  31.992  0.00  0.00    -0.287 OA
ATOM     17  C   UNL d   1      59.166  -9.816  32.438  0.00  0.00     0.042 A 
ATOM     18  C   UNL d   1      58.606  -9.816  33.043  0.00  0.00     0.003 A 
ATOM     19  C   UNL d   1      58.821  -9.593  33.802  0.00  0.00     0.002 A 
ENDBRANCH   2  13
TORSDOF 1
ENDMDL
MODEL 6
REMARK VINA RESULT:      -1.5      1.084      2.823
REMARK  1 active torsions:
REMARK  status: ('A' for Active; 'I' for Inactive)
REMARK    1  A    between atoms: C_7  and  C_2 
ROOT
ATOM      1  C   UNL d   1      57.227   0.300  32.514  0.00  0.00     0.074 A 
ATOM      2  C   UNL d   1      56.919   0.174  33.269  0.00  0.00     0.088 A 
ATOM      3  C   UNL d   1      58.005   0.554  32.424  0.00  0.00     0.088 A 
ATOM      4  C   UNL d   1      58.170   0.555  33.844  0.00  0.00     0.221 A 
ATOM      5  N   UNL d   1      58.478   0.681  33.088  0.00  0.00    -0.217 NA
ATOM      6  N   UNL d   1      57.391   0.301  33.934  0.00  0.00    -0.217 NA
ATOM      7  C   UNL d   1      56.756   0.173  31.858  0.00  0.00     0.199 A 
ATOM      8  S   UNL d   1      58.642   0.682  34.509  0.00  0.00    -0.037 SA
ATOM      9  O   UNL d   1      55.976  -0.081  31.948  0.00  0.00    -0.286 OA
ATOM     10  C   UNL d   1      58.315   0.681  31.678  0.00  0.00     0.019 A 
ATOM     11  C   UNL d   1      57.063   0.300  31.095  0.00  0.00     0.042 A 
ATOM     12  C   UNL d   1      57.841   0.553  31.005  0.00  0.00     0.005 A 
ENDROOT
BRANCH   2  13
ATOM     13  C   UNL d   1      56.140  -0.080  33.359  0.00  0.00     0.021 A 
ATOM     14  C   UNL d   1      55.580   0.421  33.700  0.00  0.00     0.043 A 
ATOM     15  C   UNL d   1      54.805   0.169  33.789  0.00  0.00     0.196 A 
ATOM     16  O   UNL d   1      54.244   0.670  34.130  0.00  0.00    -0.287 OA
ATOM     17  C   UNL d   1      54.585  -0.586  33.539  0.00  0.00     0.042 A 
ATOM     18  C   UNL d   1      55.145  -1.087  33.199  0.00  0.00     0.003 A 
ATOM     19  C   UNL d   1      55.920  -0.834  33.109  0.00  0.00     0.002 A 
ENDBRANCH   2  13
TORSDOF 1
ENDMDL
MODEL 7
REMARK VINA RESULT:      -1.1      2.590      3.677
REMARK  1 active torsions:
REMARK  status: ('A' for Active; 'I' for Inactive)
REMARK    1  A    between atoms: C_7  and  C_2 
ROOT
ATOM      1  C   UNL d   1      58.333   0.244  31.238  0.00  0.00     0.074 A 
ATOM      2  C   UNL d   1      58.959   0.099  30.722  0.00  0.00     0.088 A 
ATOM      3  C   UNL d   1      58.481   0.536  31.994  0.00  0.00     0.088 A 
ATOM      4  C   UNL d   1      59.884   0.536  31.719  0.00  0.00     0.221 A 
ATOM      5  N   UNL d   1      59.257   0.682  32.236  0.00  0.00    -0.217 NA
ATOM      6  N   UNL d   1      59.735   0.244  30.962  0.00  0.00    -0.217 NA
ATOM      7  C   UNL d   1      57.566   0.099  30.996  0.00  0.00     0.199 A 
ATOM      8  S   UNL d   1      60.660   0.682  31.960  0.00  0.00    -0.037 SA
ATOM      9  O   UNL d   1      57.417  -0.193  30.239  0.00  0.00    -0.286 OA
ATOM     10  C   UNL d   1      57.863   0.682  32.510  0.00  0.00     0.019 A 
ATOM     11  C   UNL d   1      56.931   0.244  31.514  0.00  0.00     0.042 A 
ATOM     12  C   UNL d   1      57.079   0.536  32.270  0.00  0.00     0.005 A 
ENDROOT
BRANCH   2  13
ATOM     13  C   UNL d   1      58.810  -0.193  29.965  0.00  0.00     0.021 A 
ATOM     14  C   UNL d   1      58.834  -1.006  29.825  0.00  0.00     0.043 A 
ATOM     15  C   UNL d   1      58.686  -1.296  29.072  0.00  0.00     0.196 A 
ATOM     16  O   UNL d   1      58.709  -2.109  28.931  0.00  0.00    -0.287 OA
ATOM     17  C   UNL d   1      58.513  -0.775  28.455  0.00  0.00     0.042 A 
ATOM     18  C   UNL d   1      58.490   0.037  28.597  0.00  0.00     0.003 A 
ATOM     19  C   UNL d   1      58.638   0.327  29.349  0.00  0.00     0.002 A 
ENDBRANCH   2  13
TORSDOF 1
ENDMDL
MODEL 8
REMARK VINA RESULT:      -0.8      1.390      1.923
REMARK  1 active torsions:
REMARK  status: ('A' for Active; 'I' for Inactive)
REMARK    1  A    between atoms: C_7  and  C_2 
ROOT
ATOM      1  C   UNL d   1      56.689  -0.442  32.751  0.00  0.00     0.074 A 
ATOM      2  C   UNL d   1      57.290   0.112  32.651  0.00  0.00     0.088 A 
ATOM      3  C   UNL d   1      56.417  -0.623  33.508  0.00  0.00     0.088 A 
ATOM      4  C   UNL d   1      57.349   0.307  34.064  0.00  0.00     0.221 A 
ATOM      5  N   UNL d   1      56.746  -0.248  34.165  0.00  0.00    -0.217 NA
ATOM      6  N   UNL d   1      57.621   0.487  33.307  0.00  0.00    -0.217 NA
ATOM      7  C   UNL d   1      56.364  -0.812  32.098  0.00  0.00     0.199 A 
ATOM      8  S   UNL d   1      57.678   0.682  34.722  0.00  0.00    -0.037 SA
ATOM      9  O   UNL d   1      56.637  -0.631  31.340  0.00  0.00    -0.286 OA
ATOM     10  C   UNL d   1      55.820  -1.172  33.612  0.00  0.00     0.019 A 
ATOM     11  C   UNL d   1      55.757  -1.372  32.195  0.00  0.00     0.042 A 
ATOM     12  C   UNL d   1      55.485  -1.552  32.951  0.00  0.00     0.005 A 
ENDROOT
BRANCH   2  13
ATOM     13  C   UNL d   1      57.563   0.292  31.893  0.00  0.00     0.021 A 
ATOM     14  C   UNL d   1      58.371   0.263  31.728  0.00  0.00     0.043 A 
ATOM     15  C   UNL d   1      58.642   0.442  30.975  0.00  0.00     0.196 A 
ATOM     16  O   UNL d   1      59.450   0.413  30.809  0.00  0.00    -0.287 OA
ATOM     17  C   UNL d   1      58.106   0.652  30.383  0.00  0.00     0.042 A 
ATOM     18  C   UNL d   1      57.299   0.681  30.549  0.00  0.00     0.003 A 
ATOM     19  C   UNL d   1      57.028   0.502  31.302  0.00  0.00     0.002 A 
ENDBRANCH   2  13
TORSDOF 1
ENDMDL
MODEL 9
REMARK VINA RESULT:      -0.6      5.825      6.507
REMARK  1 active torsions:
REMARK  status: ('A' for Active; 'I' for Inactive)
REMARK    1  A    between atoms: C_7  and  C_2 
ROOT
ATOM      1  C   UNL d   1      59.512  -2.107  28.961  0.00  0.00     0.074 A 
ATOM      2  C   UNL d   1      60.321  -1.957  29.013  0.00  0.00     0.088 A 
ATOM      3  C   UNL d   1      59.242  -2.879  28.860  0.00  0.00     0.088 A 
ATOM      4  C   UNL d   1      60.591  -3.351  28.863  0.00  0.00     0.221 A 
ATOM      5  N   UNL d   1      59.781  -3.502  28.811  0.00  0.00    -0.217 NA
ATOM      6  N   UNL d   1      60.861  -2.579  28.964  0.00  0.00    -0.217 NA
ATOM      7  C   UNL d   1      58.981  -1.488  29.010  0.00  0.00     0.199 A 
ATOM      8  S   UNL d   1      61.130  -3.974  28.814  0.00  0.00    -0.037 SA
ATOM      9  O   UNL d   1      59.251  -0.715  29.111  0.00  0.00    -0.286 OA
ATOM     10  C   UNL d   1      58.440  -3.033  28.808  0.00  0.00     0.019 A 
ATOM     11  C   UNL d   1      58.163  -1.635  28.958  0.00  0.00     0.042 A 
ATOM     12  C   UNL d   1      57.893  -2.407  28.857  0.00  0.00     0.005 A 
ENDROOT
BRANCH   2  13
ATOM     13  C   UNL d   1      60.591  -1.184  29.114  0.00  0.00     0.021 A 
ATOM     14  C   UNL d   1      60.705  -0.884  29.874  0.00  0.00     0.043 A 
ATOM     15  C   UNL d   1      60.974  -0.115  29.975  0.00  0.00     0.196 A 
ATOM     16  O   UNL d   1      61.088   0.186  30.735  0.00  0.00    -0.287 OA
ATOM     17  C   UNL d   1      61.130   0.357  29.316  0.00  0.00     0.042 A 
ATOM     18  C   UNL d   1      61.016   0.056  28.556  0.00  0.00     0.003 A 
ATOM     19  C   UNL d   1      60.747  -0.713  28.456  0.00  0.00     0.002 A 
ENDBRANCH   2  13
TORSDOF 1
ENDMDL
