MODEL 1
REMARK VINA RESULT:      -3.0      0.000      0.000
REMARK  2 active torsions:
REMARK  status: ('A' for Active; 'I' for Inactive)
REMARK    1  A    between atoms: C_7  and  C_1 
REMARK    2  A    between atoms: C_8  and  C_7 
ROOT
ATOM      1  C   UNL d   1      31.367  16.601 -24.019  0.00  0.00     0.118 A 
ATOM      2  N   UNL d   1      31.787  17.964 -23.925  0.00  0.00    -0.178 NA
ATOM      3  N   UNL d   1      32.551  16.938 -23.296  0.00  0.00    -0.178 NA
ATOM      4  C   UNL d   1      31.250  17.396 -24.198  0.00  0.00     0.286 A 
ATOM      5  C   UNL d   1      32.013  16.371 -23.570  0.00  0.00     0.286 A 
ATOM      6  C   UNL d   1      32.450  17.747 -23.466  0.00  0.00     0.226 A 
ATOM      7  S   UNL d   1      32.984  18.311 -23.194  0.00  0.00    -0.037 SA
ATOM      8  O   UNL d   1      30.593  17.641 -24.656  0.00  0.00    -0.265 OA
ATOM      9  O   UNL d   1      32.138  15.565 -23.383  0.00  0.00    -0.265 OA
ENDROOT
BRANCH   1  10
ATOM     10  C   UNL d   1      30.827  16.032 -24.294  0.00  0.00     0.034 C 
BRANCH  10  11
ATOM     11  C   UNL d   1      30.183  15.832 -23.832  0.00  0.00     0.100 A 
ATOM     12  O   UNL d   1      29.434  15.777 -24.181  0.00  0.00    -0.307 OA
ATOM     13  C   UNL d   1      28.901  15.570 -23.586  0.00  0.00     0.100 A 
ATOM     14  C   UNL d   1      28.087  15.453 -23.681  0.00  0.00     0.027 C 
ATOM     15  C   UNL d   1      29.310  15.500 -22.895  0.00  0.00     0.027 A 
ATOM     16  C   UNL d   1      30.109  15.659 -23.024  0.00  0.00     0.027 A 
ENDBRANCH  10  11
ENDBRANCH   1  10
TORSDOF 2
ENDMDL
MODEL 2
REMARK VINA RESULT:      -3.0      0.014      1.244
REMARK  2 active torsions:
REMARK  status: ('A' for Active; 'I' for Inactive)
REMARK    1  A    between atoms: C_7  and  C_1 
REMARK    2  A    between atoms: C_8  and  C_7 
ROOT
ATOM      1  C   UNL d   1      31.358  16.595 -24.017  0.00  0.00     0.118 A 
ATOM      2  N   UNL d   1      32.544  16.939 -23.296  0.00  0.00    -0.178 NA
ATOM      3  N   UNL d   1      31.776  17.957 -23.933  0.00  0.00    -0.178 NA
ATOM      4  C   UNL d   1      32.008  16.368 -23.565  0.00  0.00     0.286 A 
ATOM      5  C   UNL d   1      31.241  17.386 -24.201  0.00  0.00     0.286 A 
ATOM      6  C   UNL d   1      32.439  17.748 -23.475  0.00  0.00     0.226 A 
ATOM      7  S   UNL d   1      32.972  18.316 -23.208  0.00  0.00    -0.037 SA
ATOM      8  O   UNL d   1      32.136  15.563 -23.372  0.00  0.00    -0.265 OA
ATOM      9  O   UNL d   1      30.583  17.623 -24.660  0.00  0.00    -0.265 OA
ENDROOT
BRANCH   1  10
ATOM     10  C   UNL d   1      30.821  16.021 -24.286  0.00  0.00     0.034 C 
BRANCH  10  11
ATOM     11  C   UNL d   1      30.174  15.829 -23.826  0.00  0.00     0.100 A 
ATOM     12  O   UNL d   1      29.427  15.769 -24.178  0.00  0.00    -0.307 OA
ATOM     13  C   UNL d   1      28.890  15.571 -23.583  0.00  0.00     0.100 A 
ATOM     14  C   UNL d   1      28.077  15.453 -23.682  0.00  0.00     0.027 C 
ATOM     15  C   UNL d   1      29.294  15.511 -22.889  0.00  0.00     0.027 A 
ATOM     16  C   UNL d   1      30.094  15.668 -23.016  0.00  0.00     0.027 A 
ENDBRANCH  10  11
ENDBRANCH   1  10
TORSDOF 2
ENDMDL
MODEL 3
REMARK VINA RESULT:      -2.3      2.175      3.197
REMARK  2 active torsions:
REMARK  status: ('A' for Active; 'I' for Inactive)
REMARK    1  A    between atoms: C_7  and  C_1 
REMARK    2  A    between atoms: C_8  and  C_7 
ROOT
ATOM      1  C   UNL d   1      33.240  18.702 -23.411  0.00  0.00     0.118 A 
ATOM      2  N   UNL d   1      33.240  19.183 -22.065  0.00  0.00    -0.178 NA
ATOM      3  N   UNL d   1      33.240  20.106 -23.151  0.00  0.00    -0.178 NA
ATOM      4  C   UNL d   1      33.241  18.552 -22.601  0.00  0.00     0.286 A 
ATOM      5  C   UNL d   1      33.240  19.475 -23.687  0.00  0.00     0.286 A 
ATOM      6  C   UNL d   1      33.240  19.975 -22.329  0.00  0.00     0.226 A 
ATOM      7  S   UNL d   1      33.239  20.602 -21.796  0.00  0.00    -0.037 SA
ATOM      8  O   UNL d   1      33.241  17.767 -22.311  0.00  0.00    -0.265 OA
ATOM      9  O   UNL d   1      33.240  19.635 -24.508  0.00  0.00    -0.265 OA
ENDROOT
BRANCH   1  10
ATOM     10  C   UNL d   1      33.241  18.069 -23.949  0.00  0.00     0.034 C 
BRANCH  10  11
ATOM     11  C   UNL d   1      32.532  17.731 -24.173  0.00  0.00     0.100 A 
ATOM     12  O   UNL d   1      32.484  16.910 -24.271  0.00  0.00    -0.307 OA
ATOM     13  C   UNL d   1      31.710  16.734 -24.496  0.00  0.00     0.100 A 
ATOM     14  C   UNL d   1      31.409  15.979 -24.654  0.00  0.00     0.027 C 
ATOM     15  C   UNL d   1      31.296  17.424 -24.534  0.00  0.00     0.027 A 
ATOM     16  C   UNL d   1      31.786  18.057 -24.337  0.00  0.00     0.027 A 
ENDBRANCH  10  11
ENDBRANCH   1  10
TORSDOF 2
ENDMDL
MODEL 4
REMARK VINA RESULT:      -2.0      1.940      3.246
REMARK  2 active torsions:
REMARK  status: ('A' for Active; 'I' for Inactive)
REMARK    1  A    between atoms: C_7  and  C_1 
REMARK    2  A    between atoms: C_8  and  C_7 
ROOT
ATOM      1  C   UNL d   1      30.784  15.776 -23.705  0.00  0.00     0.118 A 
ATOM      2  N   UNL d   1      29.441  15.785 -24.193  0.00  0.00    -0.178 NA
ATOM      3  N   UNL d   1      29.699  15.470 -22.828  0.00  0.00    -0.178 NA
ATOM      4  C   UNL d   1      30.252  15.885 -24.324  0.00  0.00     0.286 A 
ATOM      5  C   UNL d   1      30.511  15.570 -22.959  0.00  0.00     0.286 A 
ATOM      6  C   UNL d   1      29.146  15.575 -23.441  0.00  0.00     0.226 A 
ATOM      7  S   UNL d   1      28.339  15.476 -23.311  0.00  0.00    -0.037 SA
ATOM      8  O   UNL d   1      30.521  16.096 -25.088  0.00  0.00    -0.265 OA
ATOM      9  O   UNL d   1      31.045  15.458 -22.325  0.00  0.00    -0.265 OA
ENDROOT
BRANCH   1  10
ATOM     10  C   UNL d   1      31.598  15.877 -23.836  0.00  0.00     0.034 C 
BRANCH  10  11
ATOM     11  C   UNL d   1      31.929  16.620 -23.760  0.00  0.00     0.100 A 
ATOM     12  O   UNL d   1      32.403  16.790 -23.103  0.00  0.00    -0.307 OA
ATOM     13  C   UNL d   1      32.655  17.572 -23.178  0.00  0.00     0.100 A 
ATOM     14  C   UNL d   1      33.141  17.980 -22.646  0.00  0.00     0.027 C 
ATOM     15  C   UNL d   1      32.347  17.872 -23.859  0.00  0.00     0.027 A 
ATOM     16  C   UNL d   1      31.892  17.298 -24.238  0.00  0.00     0.027 A 
ENDBRANCH  10  11
ENDBRANCH   1  10
TORSDOF 2
ENDMDL
MODEL 5
REMARK VINA RESULT:      -1.8      2.374      4.200
REMARK  2 active torsions:
REMARK  status: ('A' for Active; 'I' for Inactive)
REMARK    1  A    between atoms: C_7  and  C_1 
REMARK    2  A    between atoms: C_8  and  C_7 
ROOT
ATOM      1  C   UNL d   1      32.583  18.391 -24.073  0.00  0.00     0.118 A 
ATOM      2  N   UNL d   1      31.800  17.197 -24.003  0.00  0.00    -0.178 NA
ATOM      3  N   UNL d   1      31.406  18.257 -24.870  0.00  0.00    -0.178 NA
ATOM      4  C   UNL d   1      32.456  17.640 -23.759  0.00  0.00     0.286 A 
ATOM      5  C   UNL d   1      32.062  18.700 -24.626  0.00  0.00     0.286 A 
ATOM      6  C   UNL d   1      31.260  17.496 -24.565  0.00  0.00     0.226 A 
ATOM      7  S   UNL d   1      30.609  17.056 -24.807  0.00  0.00    -0.037 SA
ATOM      8  O   UNL d   1      32.982  17.317 -23.194  0.00  0.00    -0.265 OA
ATOM      9  O   UNL d   1      32.185  19.462 -24.949  0.00  0.00    -0.265 OA
ENDROOT
BRANCH   1  10
ATOM     10  C   UNL d   1      33.241  18.835 -23.828  0.00  0.00     0.034 C 
BRANCH  10  11
ATOM     11  C   UNL d   1      33.206  19.252 -23.126  0.00  0.00     0.100 A 
ATOM     12  O   UNL d   1      33.153  20.078 -23.144  0.00  0.00    -0.307 OA
ATOM     13  C   UNL d   1      33.128  20.340 -22.362  0.00  0.00     0.100 A 
ATOM     14  C   UNL d   1      33.074  21.128 -22.114  0.00  0.00     0.027 C 
ATOM     15  C   UNL d   1      33.164  19.695 -21.880  0.00  0.00     0.027 A 
ATOM     16  C   UNL d   1      33.213  19.008 -22.333  0.00  0.00     0.027 A 
ENDBRANCH  10  11
ENDBRANCH   1  10
TORSDOF 2
ENDMDL
MODEL 6
REMARK VINA RESULT:      -1.6      1.693      3.498
REMARK  2 active torsions:
REMARK  status: ('A' for Active; 'I' for Inactive)
REMARK    1  A    between atoms: C_7  and  C_1 
REMARK    2  A    between atoms: C_8  and  C_7 
ROOT
ATOM      1  C   UNL d   1      31.264  16.660 -24.156  0.00  0.00     0.118 A 
ATOM      2  N   UNL d   1      30.708  15.585 -23.396  0.00  0.00    -0.178 NA
ATOM      3  N   UNL d   1      29.851  16.568 -23.971  0.00  0.00    -0.178 NA
ATOM      4  C   UNL d   1      31.367  15.975 -23.711  0.00  0.00     0.286 A 
ATOM      5  C   UNL d   1      30.510  16.958 -24.287  0.00  0.00     0.286 A 
ATOM      6  C   UNL d   1      29.934  15.874 -23.519  0.00  0.00     0.226 A 
ATOM      7  S   UNL d   1      29.279  15.487 -23.205  0.00  0.00    -0.037 SA
ATOM      8  O   UNL d   1      32.132  15.664 -23.573  0.00  0.00    -0.265 OA
ATOM      9  O   UNL d   1      30.398  17.654 -24.737  0.00  0.00    -0.265 OA
ENDROOT
BRANCH   1  10
ATOM     10  C   UNL d   1      31.925  17.052 -24.473  0.00  0.00     0.034 C 
BRANCH  10  11
ATOM     11  C   UNL d   1      32.298  17.631 -24.034  0.00  0.00     0.100 A 
ATOM     12  O   UNL d   1      32.554  18.324 -24.407  0.00  0.00    -0.307 OA
ATOM     13  C   UNL d   1      32.906  18.798 -23.831  0.00  0.00     0.100 A 
ATOM     14  C   UNL d   1      33.241  19.545 -23.953  0.00  0.00     0.027 C 
ATOM     15  C   UNL d   1      32.867  18.409 -23.126  0.00  0.00     0.027 A 
ATOM     16  C   UNL d   1      32.493  17.681 -23.228  0.00  0.00     0.027 A 
ENDBRANCH  10  11
ENDBRANCH   1  10
TORSDOF 2
ENDMDL
MODEL 7
REMARK VINA RESULT:      -1.3      4.346      5.903
REMARK  2 active torsions:
REMARK  status: ('A' for Active; 'I' for Inactive)
REMARK    1  A    between atoms: C_7  and  C_1 
REMARK    2  A    between atoms: C_8  and  C_7 
ROOT
ATOM      1  C   UNL d   1      33.114  20.699 -21.979  0.00  0.00     0.118 A 
ATOM      2  N   UNL d   1      32.862  19.322 -22.269  0.00  0.00    -0.178 NA
ATOM      3  N   UNL d   1      32.988  20.262 -23.332  0.00  0.00    -0.178 NA
ATOM      4  C   UNL d   1      32.988  19.928 -21.719  0.00  0.00     0.286 A 
ATOM      5  C   UNL d   1      33.114  20.868 -22.782  0.00  0.00     0.286 A 
ATOM      6  C   UNL d   1      32.859  19.477 -23.090  0.00  0.00     0.226 A 
ATOM      7  S   UNL d   1      32.734  18.875 -23.637  0.00  0.00    -0.037 SA
ATOM      8  O   UNL d   1      32.986  19.746 -20.901  0.00  0.00    -0.265 OA
ATOM      9  O   UNL d   1      33.241  21.649 -23.054  0.00  0.00    -0.265 OA
ENDROOT
BRANCH   1  10
ATOM     10  C   UNL d   1      33.240  21.307 -21.427  0.00  0.00     0.034 C 
BRANCH  10  11
ATOM     11  C   UNL d   1      32.609  21.763 -21.179  0.00  0.00     0.100 A 
ATOM     12  O   UNL d   1      32.655  22.588 -21.238  0.00  0.00    -0.307 OA
ATOM     13  C   UNL d   1      31.945  22.894 -20.950  0.00  0.00     0.100 A 
ATOM     14  C   UNL d   1      31.745  23.696 -20.902  0.00  0.00     0.027 C 
ATOM     15  C   UNL d   1      31.479  22.278 -20.722  0.00  0.00     0.027 A 
ATOM     16  C   UNL d   1      31.871  21.565 -20.856  0.00  0.00     0.027 A 
ENDBRANCH  10  11
ENDBRANCH   1  10
TORSDOF 2
ENDMDL
MODEL 8
REMARK VINA RESULT:      -1.3      1.972      2.920
REMARK  2 active torsions:
REMARK  status: ('A' for Active; 'I' for Inactive)
REMARK    1  A    between atoms: C_7  and  C_1 
REMARK    2  A    between atoms: C_8  and  C_7 
ROOT
ATOM      1  C   UNL d   1      30.146  16.702 -24.767  0.00  0.00     0.118 A 
ATOM      2  N   UNL d   1      29.552  17.981 -24.541  0.00  0.00    -0.178 NA
ATOM      3  N   UNL d   1      28.766  16.799 -24.414  0.00  0.00    -0.178 NA
ATOM      4  C   UNL d   1      30.212  17.522 -24.735  0.00  0.00     0.286 A 
ATOM      5  C   UNL d   1      29.427  16.339 -24.607  0.00  0.00     0.286 A 
ATOM      6  C   UNL d   1      28.813  17.630 -24.376  0.00  0.00     0.226 A 
ATOM      7  S   UNL d   1      28.156  18.087 -24.183  0.00  0.00    -0.037 SA
ATOM      8  O   UNL d   1      30.942  17.899 -24.896  0.00  0.00    -0.265 OA
ATOM      9  O   UNL d   1      29.352  15.507 -24.638  0.00  0.00    -0.265 OA
ENDROOT
BRANCH   1  10
ATOM     10  C   UNL d   1      30.809  16.240 -24.962  0.00  0.00     0.034 C 
BRANCH  10  11
ATOM     11  C   UNL d   1      31.286  15.950 -24.365  0.00  0.00     0.100 A 
ATOM     12  O   UNL d   1      32.104  15.906 -24.483  0.00  0.00    -0.307 OA
ATOM     13  C   UNL d   1      32.436  15.595 -23.794  0.00  0.00     0.100 A 
ATOM     14  C   UNL d   1      33.240  15.454 -23.662  0.00  0.00     0.027 C 
ATOM     15  C   UNL d   1      31.840  15.453 -23.270  0.00  0.00     0.027 A 
ATOM     16  C   UNL d   1      31.116  15.666 -23.604  0.00  0.00     0.027 A 
ENDBRANCH  10  11
ENDBRANCH   1  10
TORSDOF 2
ENDMDL
MODEL 9
REMARK VINA RESULT:      -1.1      7.018      7.738
REMARK  2 active torsions:
REMARK  status: ('A' for Active; 'I' for Inactive)
REMARK    1  A    between atoms: C_7  and  C_1 
REMARK    2  A    between atoms: C_8  and  C_7 
ROOT
ATOM      1  C   UNL d   1      32.263  22.649 -19.903  0.00  0.00     0.118 A 
ATOM      2  N   UNL d   1      32.217  23.447 -18.718  0.00  0.00    -0.178 NA
ATOM      3  N   UNL d   1      33.184  22.408 -18.839  0.00  0.00    -0.178 NA
ATOM      4  C   UNL d   1      31.924  23.262 -19.470  0.00  0.00     0.286 A 
ATOM      5  C   UNL d   1      32.891  22.222 -19.591  0.00  0.00     0.286 A 
ATOM      6  C   UNL d   1      32.855  23.023 -18.385  0.00  0.00     0.226 A 
ATOM      7  S   UNL d   1      33.146  23.207 -17.638  0.00  0.00    -0.037 SA
ATOM      8  O   UNL d   1      31.283  23.702 -19.781  0.00  0.00    -0.265 OA
ATOM      9  O   UNL d   1      33.241  21.599 -20.025  0.00  0.00    -0.265 OA
ENDROOT
BRANCH   1  10
ATOM     10  C   UNL d   1      31.969  22.463 -20.658  0.00  0.00     0.034 C 
BRANCH  10  11
ATOM     11  C   UNL d   1      32.304  22.811 -21.316  0.00  0.00     0.100 A 
ATOM     12  O   UNL d   1      32.571  22.334 -21.938  0.00  0.00    -0.307 OA
ATOM     13  C   UNL d   1      32.877  22.835 -22.519  0.00  0.00     0.100 A 
ATOM     14  C   UNL d   1      33.206  22.599 -23.240  0.00  0.00     0.027 C 
ATOM     15  C   UNL d   1      32.801  23.595 -22.261  0.00  0.00     0.027 A 
ATOM     16  C   UNL d   1      32.447  23.604 -21.516  0.00  0.00     0.027 A 
ENDBRANCH  10  11
ENDBRANCH   1  10
TORSDOF 2
ENDMDL
