MODEL 1
REMARK VINA RESULT:      -8.4      0.000      0.000
REMARK  2 active torsions:
REMARK  status: ('A' for Active; 'I' for Inactive)
REMARK    1  A    between atoms: C_7  and  C_4 
REMARK    2  A    between atoms: O_13  and  C_11 
ROOT
ATOM      1  N   UNL d   1     -48.791  13.139  22.219  0.00  0.00    -0.211 NA
ATOM      2  C   UNL d   1     -49.531  13.483  22.050  0.00  0.00     0.140 A 
ATOM      3  C   UNL d   1     -49.761  14.170  22.441  0.00  0.00     0.051 A 
ATOM      4  C   UNL d   1     -48.294  13.492  22.779  0.00  0.00     0.183 A 
ATOM      5  C   UNL d   1     -49.263  14.518  22.998  0.00  0.00     0.104 A 
ATOM      6  O   UNL d   1     -48.529  14.180  23.168  0.00  0.00    -0.289 OA
ATOM      7  S   UNL d   1     -50.032  13.138  21.494  0.00  0.00    -0.057 SA
ATOM      8  C   UNL d   1     -50.493  14.515  22.278  0.00  0.00     0.004 A 
ATOM      9  C   UNL d   1     -49.488  15.203  23.391  0.00  0.00     0.025 A 
ATOM     10  C   UNL d   1     -50.730  15.207  22.669  0.00  0.00     0.000 A 
ATOM     11  C   UNL d   1     -50.223  15.547  23.225  0.00  0.00     0.002 A 
ENDROOT
BRANCH   4  12
ATOM     12  C   UNL d   1     -47.566  13.147  22.940  0.00  0.00     0.043 A 
ATOM     13  C   UNL d   1     -46.873  13.482  22.672  0.00  0.00     0.028 A 
ATOM     14  C   UNL d   1     -46.150  13.134  22.835  0.00  0.00     0.094 A 
ATOM     15  C   UNL d   1     -46.118  12.437  23.275  0.00  0.00     0.024 A 
ATOM     16  C   UNL d   1     -46.820  12.095  23.548  0.00  0.00     0.002 A 
ATOM     17  C   UNL d   1     -47.547  12.444  23.385  0.00  0.00     0.004 A 
BRANCH  14  18
ATOM     18  O   UNL d   1     -45.452  13.475  22.562  0.00  0.00    -0.328 OA
ATOM     19  C   UNL d   1     -45.018  13.111  21.965  0.00  0.00     0.181 C 
ENDBRANCH  14  18
ENDBRANCH   4  12
TORSDOF 2
ENDMDL
MODEL 2
REMARK VINA RESULT:      -8.3      1.106      1.726
REMARK  2 active torsions:
REMARK  status: ('A' for Active; 'I' for Inactive)
REMARK    1  A    between atoms: C_7  and  C_4 
REMARK    2  A    between atoms: O_13  and  C_11 
ROOT
ATOM      1  N   UNL d   1     -48.536  14.478  23.016  0.00  0.00    -0.211 NA
ATOM      2  C   UNL d   1     -49.334  14.682  22.888  0.00  0.00     0.140 A 
ATOM      3  C   UNL d   1     -49.793  14.238  22.369  0.00  0.00     0.051 A 
ATOM      4  C   UNL d   1     -48.213  13.827  22.618  0.00  0.00     0.183 A 
ATOM      5  C   UNL d   1     -49.466  13.591  21.976  0.00  0.00     0.104 A 
ATOM      6  O   UNL d   1     -48.676  13.385  22.100  0.00  0.00    -0.289 OA
ATOM      7  S   UNL d   1     -49.665  15.329  23.280  0.00  0.00    -0.057 SA
ATOM      8  C   UNL d   1     -50.583  14.436  22.239  0.00  0.00     0.004 A 
ATOM      9  C   UNL d   1     -49.919  13.143  21.457  0.00  0.00     0.025 A 
ATOM     10  C   UNL d   1     -51.050  13.991  21.718  0.00  0.00     0.000 A 
ATOM     11  C   UNL d   1     -50.713  13.346  21.329  0.00  0.00     0.002 A 
ENDROOT
BRANCH   4  12
ATOM     12  C   UNL d   1     -47.426  13.632  22.749  0.00  0.00     0.043 A 
ATOM     13  C   UNL d   1     -47.222  12.956  23.157  0.00  0.00     0.028 A 
ATOM     14  C   UNL d   1     -46.437  12.766  23.285  0.00  0.00     0.094 A 
ATOM     15  C   UNL d   1     -45.840  13.260  22.999  0.00  0.00     0.024 A 
ATOM     16  C   UNL d   1     -46.045  13.946  22.584  0.00  0.00     0.002 A 
ATOM     17  C   UNL d   1     -46.834  14.138  22.455  0.00  0.00     0.004 A 
BRANCH  14  18
ATOM     18  O   UNL d   1     -46.235  12.083  23.698  0.00  0.00    -0.328 OA
ATOM     19  C   UNL d   1     -45.907  11.440  23.302  0.00  0.00     0.181 C 
ENDBRANCH  14  18
ENDBRANCH   4  12
TORSDOF 2
ENDMDL
MODEL 3
REMARK VINA RESULT:      -8.3      1.463      3.976
REMARK  2 active torsions:
REMARK  status: ('A' for Active; 'I' for Inactive)
REMARK    1  A    between atoms: C_7  and  C_4 
REMARK    2  A    between atoms: O_13  and  C_11 
ROOT
ATOM      1  N   UNL d   1     -47.682  13.901  22.847  0.00  0.00    -0.211 NA
ATOM      2  C   UNL d   1     -47.017  13.443  23.060  0.00  0.00     0.140 A 
ATOM      3  C   UNL d   1     -47.116  12.654  23.272  0.00  0.00     0.051 A 
ATOM      4  C   UNL d   1     -48.434  13.555  22.852  0.00  0.00     0.183 A 
ATOM      5  C   UNL d   1     -47.867  12.315  23.275  0.00  0.00     0.104 A 
ATOM      6  O   UNL d   1     -48.527  12.765  23.066  0.00  0.00    -0.289 OA
ATOM      7  S   UNL d   1     -46.264  13.779  23.057  0.00  0.00    -0.057 SA
ATOM      8  C   UNL d   1     -46.462  12.196  23.483  0.00  0.00     0.004 A 
ATOM      9  C   UNL d   1     -47.971  11.528  23.487  0.00  0.00     0.025 A 
ATOM     10  C   UNL d   1     -46.555  11.401  23.698  0.00  0.00     0.000 A 
ATOM     11  C   UNL d   1     -47.312  11.072  23.698  0.00  0.00     0.002 A 
ENDROOT
BRANCH   4  12
ATOM     12  C   UNL d   1     -49.083  14.012  22.642  0.00  0.00     0.043 A 
ATOM     13  C   UNL d   1     -49.294  14.669  23.076  0.00  0.00     0.028 A 
ATOM     14  C   UNL d   1     -49.942  15.121  22.862  0.00  0.00     0.094 A 
ATOM     15  C   UNL d   1     -50.390  14.914  22.200  0.00  0.00     0.024 A 
ATOM     16  C   UNL d   1     -50.177  14.248  21.759  0.00  0.00     0.002 A 
ATOM     17  C   UNL d   1     -49.527  13.793  21.972  0.00  0.00     0.004 A 
BRANCH  14  18
ATOM     18  O   UNL d   1     -50.151  15.784  23.303  0.00  0.00    -0.328 OA
ATOM     19  C   UNL d   1     -50.915  15.858  23.604  0.00  0.00     0.181 C 
ENDBRANCH  14  18
ENDBRANCH   4  12
TORSDOF 2
ENDMDL
MODEL 4
REMARK VINA RESULT:      -8.1      1.327      1.824
REMARK  2 active torsions:
REMARK  status: ('A' for Active; 'I' for Inactive)
REMARK    1  A    between atoms: C_7  and  C_4 
REMARK    2  A    between atoms: O_13  and  C_11 
ROOT
ATOM      1  N   UNL d   1     -48.592  13.594  22.038  0.00  0.00    -0.211 NA
ATOM      2  C   UNL d   1     -49.391  13.356  22.007  0.00  0.00     0.140 A 
ATOM      3  C   UNL d   1     -49.677  12.813  22.556  0.00  0.00     0.051 A 
ATOM      4  C   UNL d   1     -48.095  13.282  22.621  0.00  0.00     0.183 A 
ATOM      5  C   UNL d   1     -49.177  12.505  23.135  0.00  0.00     0.104 A 
ATOM      6  O   UNL d   1     -48.386  12.739  23.168  0.00  0.00    -0.289 OA
ATOM      7  S   UNL d   1     -49.893  13.662  21.430  0.00  0.00    -0.057 SA
ATOM      8  C   UNL d   1     -50.466  12.574  22.531  0.00  0.00     0.004 A 
ATOM      9  C   UNL d   1     -49.458  11.963  23.685  0.00  0.00     0.025 A 
ATOM     10  C   UNL d   1     -50.760  12.027  23.081  0.00  0.00     0.000 A 
ATOM     11  C   UNL d   1     -50.251  11.725  23.656  0.00  0.00     0.002 A 
ENDROOT
BRANCH   4  12
ATOM     12  C   UNL d   1     -47.310  13.521  22.645  0.00  0.00     0.043 A 
ATOM     13  C   UNL d   1     -46.709  13.022  22.409  0.00  0.00     0.028 A 
ATOM     14  C   UNL d   1     -45.929  13.265  22.435  0.00  0.00     0.094 A 
ATOM     15  C   UNL d   1     -45.741  14.024  22.701  0.00  0.00     0.024 A 
ATOM     16  C   UNL d   1     -46.349  14.532  22.940  0.00  0.00     0.002 A 
ATOM     17  C   UNL d   1     -47.134  14.289  22.915  0.00  0.00     0.004 A 
BRANCH  14  18
ATOM     18  O   UNL d   1     -45.326  12.758  22.197  0.00  0.00    -0.328 OA
ATOM     19  C   UNL d   1     -44.651  13.058  21.833  0.00  0.00     0.181 C 
ENDBRANCH  14  18
ENDBRANCH   4  12
TORSDOF 2
ENDMDL
MODEL 5
REMARK VINA RESULT:      -7.2      1.312      4.000
REMARK  2 active torsions:
REMARK  status: ('A' for Active; 'I' for Inactive)
REMARK    1  A    between atoms: C_7  and  C_4 
REMARK    2  A    between atoms: O_13  and  C_11 
ROOT
ATOM      1  N   UNL d   1     -47.691  12.753  23.122  0.00  0.00    -0.211 NA
ATOM      2  C   UNL d   1     -46.983  12.325  23.230  0.00  0.00     0.140 A 
ATOM      3  C   UNL d   1     -46.282  12.607  22.904  0.00  0.00     0.051 A 
ATOM      4  C   UNL d   1     -47.680  13.457  22.687  0.00  0.00     0.183 A 
ATOM      5  C   UNL d   1     -46.277  13.309  22.472  0.00  0.00     0.104 A 
ATOM      6  O   UNL d   1     -46.976  13.735  22.363  0.00  0.00    -0.289 OA
ATOM      7  S   UNL d   1     -46.984  11.623  23.662  0.00  0.00    -0.057 SA
ATOM      8  C   UNL d   1     -45.578  12.188  23.008  0.00  0.00     0.004 A 
ATOM      9  C   UNL d   1     -45.580  13.594  22.144  0.00  0.00     0.025 A 
ATOM     10  C   UNL d   1     -44.868  12.467  22.681  0.00  0.00     0.000 A 
ATOM     11  C   UNL d   1     -44.875  13.171  22.251  0.00  0.00     0.002 A 
ENDROOT
BRANCH   4  12
ATOM     12  C   UNL d   1     -48.382  13.872  22.586  0.00  0.00     0.043 A 
ATOM     13  C   UNL d   1     -48.965  13.598  22.086  0.00  0.00     0.028 A 
ATOM     14  C   UNL d   1     -49.662  14.015  21.989  0.00  0.00     0.094 A 
ATOM     15  C   UNL d   1     -49.780  14.723  22.397  0.00  0.00     0.024 A 
ATOM     16  C   UNL d   1     -49.189  15.003  22.904  0.00  0.00     0.002 A 
ATOM     17  C   UNL d   1     -48.489  14.585  23.003  0.00  0.00     0.004 A 
BRANCH  14  18
ATOM     18  O   UNL d   1     -50.248  13.735  21.484  0.00  0.00    -0.328 OA
ATOM     19  C   UNL d   1     -51.043  13.866  21.657  0.00  0.00     0.181 C 
ENDBRANCH  14  18
ENDBRANCH   4  12
TORSDOF 2
ENDMDL
MODEL 6
REMARK VINA RESULT:      -7.0      1.462      1.866
REMARK  2 active torsions:
REMARK  status: ('A' for Active; 'I' for Inactive)
REMARK    1  A    between atoms: C_7  and  C_4 
REMARK    2  A    between atoms: O_13  and  C_11 
ROOT
ATOM      1  N   UNL d   1     -47.064  13.665  23.037  0.00  0.00    -0.211 NA
ATOM      2  C   UNL d   1     -47.402  14.405  22.854  0.00  0.00     0.140 A 
ATOM      3  C   UNL d   1     -48.219  14.476  22.789  0.00  0.00     0.051 A 
ATOM      4  C   UNL d   1     -47.556  13.009  23.153  0.00  0.00     0.183 A 
ATOM      5  C   UNL d   1     -48.704  13.820  22.905  0.00  0.00     0.104 A 
ATOM      6  O   UNL d   1     -48.373  13.086  23.087  0.00  0.00    -0.289 OA
ATOM      7  S   UNL d   1     -46.920  15.064  22.737  0.00  0.00    -0.057 SA
ATOM      8  C   UNL d   1     -48.559  15.207  22.608  0.00  0.00     0.004 A 
ATOM      9  C   UNL d   1     -49.521  13.886  22.842  0.00  0.00     0.025 A 
ATOM     10  C   UNL d   1     -49.382  15.284  22.542  0.00  0.00     0.000 A 
ATOM     11  C   UNL d   1     -49.858  14.621  22.660  0.00  0.00     0.002 A 
ENDROOT
BRANCH   4  12
ATOM     12  C   UNL d   1     -47.216  12.283  23.333  0.00  0.00     0.043 A 
ATOM     13  C   UNL d   1     -46.406  12.190  23.348  0.00  0.00     0.028 A 
ATOM     14  C   UNL d   1     -46.072  11.465  23.528  0.00  0.00     0.094 A 
ATOM     15  C   UNL d   1     -46.556  10.818  23.698  0.00  0.00     0.024 A 
ATOM     16  C   UNL d   1     -47.378  10.911  23.684  0.00  0.00     0.002 A 
ATOM     17  C   UNL d   1     -47.715  11.639  23.503  0.00  0.00     0.004 A 
BRANCH  14  18
ATOM     18  O   UNL d   1     -45.254  11.375  23.541  0.00  0.00    -0.328 OA
ATOM     19  C   UNL d   1     -44.919  10.622  23.546  0.00  0.00     0.181 C 
ENDBRANCH  14  18
ENDBRANCH   4  12
TORSDOF 2
ENDMDL
MODEL 7
REMARK VINA RESULT:      -6.3      0.940      1.256
REMARK  2 active torsions:
REMARK  status: ('A' for Active; 'I' for Inactive)
REMARK    1  A    between atoms: C_7  and  C_4 
REMARK    2  A    between atoms: O_13  and  C_11 
ROOT
ATOM      1  N   UNL d   1     -48.395  12.927  22.102  0.00  0.00    -0.211 NA
ATOM      2  C   UNL d   1     -49.222  12.827  22.078  0.00  0.00     0.140 A 
ATOM      3  C   UNL d   1     -49.701  13.263  22.585  0.00  0.00     0.051 A 
ATOM      4  C   UNL d   1     -48.063  13.466  22.636  0.00  0.00     0.183 A 
ATOM      5  C   UNL d   1     -49.367  13.798  23.115  0.00  0.00     0.104 A 
ATOM      6  O   UNL d   1     -48.548  13.900  23.142  0.00  0.00    -0.289 OA
ATOM      7  S   UNL d   1     -49.560  12.292  21.549  0.00  0.00    -0.057 SA
ATOM      8  C   UNL d   1     -50.521  13.168  22.566  0.00  0.00     0.004 A 
ATOM      9  C   UNL d   1     -49.841  14.236  23.624  0.00  0.00     0.025 A 
ATOM     10  C   UNL d   1     -51.009  13.605  23.075  0.00  0.00     0.000 A 
ATOM     11  C   UNL d   1     -50.663  14.138  23.601  0.00  0.00     0.002 A 
ENDROOT
BRANCH   4  12
ATOM     12  C   UNL d   1     -47.248  13.559  22.654  0.00  0.00     0.043 A 
ATOM     13  C   UNL d   1     -46.749  12.915  22.605  0.00  0.00     0.028 A 
ATOM     14  C   UNL d   1     -45.937  13.014  22.623  0.00  0.00     0.094 A 
ATOM     15  C   UNL d   1     -45.614  13.770  22.691  0.00  0.00     0.024 A 
ATOM     16  C   UNL d   1     -46.118  14.424  22.740  0.00  0.00     0.002 A 
ATOM     17  C   UNL d   1     -46.934  14.327  22.723  0.00  0.00     0.004 A 
BRANCH  14  18
ATOM     18  O   UNL d   1     -45.437  12.362  22.573  0.00  0.00    -0.328 OA
ATOM     19  C   UNL d   1     -45.359  11.849  23.213  0.00  0.00     0.181 C 
ENDBRANCH  14  18
ENDBRANCH   4  12
TORSDOF 2
ENDMDL
MODEL 8
REMARK VINA RESULT:      -6.3      8.421      9.502
REMARK  2 active torsions:
REMARK  status: ('A' for Active; 'I' for Inactive)
REMARK    1  A    between atoms: C_7  and  C_4 
REMARK    2  A    between atoms: O_13  and  C_11 
ROOT
ATOM      1  N   UNL d   1     -40.781  15.686  19.530  0.00  0.00    -0.211 NA
ATOM      2  C   UNL d   1     -40.747  15.541  20.351  0.00  0.00     0.140 A 
ATOM      3  C   UNL d   1     -40.185  15.020  20.651  0.00  0.00     0.051 A 
ATOM      4  C   UNL d   1     -40.247  15.305  19.026  0.00  0.00     0.183 A 
ATOM      5  C   UNL d   1     -39.656  14.643  20.144  0.00  0.00     0.104 A 
ATOM      6  O   UNL d   1     -39.686  14.784  19.331  0.00  0.00    -0.289 OA
ATOM      7  S   UNL d   1     -41.275  15.917  20.861  0.00  0.00    -0.057 SA
ATOM      8  C   UNL d   1     -40.147  14.872  21.462  0.00  0.00     0.004 A 
ATOM      9  C   UNL d   1     -39.092  14.122  20.439  0.00  0.00     0.025 A 
ATOM     10  C   UNL d   1     -39.582  14.349  21.770  0.00  0.00     0.000 A 
ATOM     11  C   UNL d   1     -39.058  13.976  21.254  0.00  0.00     0.002 A 
ENDROOT
BRANCH   4  12
ATOM     12  C   UNL d   1     -40.286  15.453  18.219  0.00  0.00     0.043 A 
ATOM     13  C   UNL d   1     -40.966  15.303  17.796  0.00  0.00     0.028 A 
ATOM     14  C   UNL d   1     -41.000  15.453  16.992  0.00  0.00     0.094 A 
ATOM     15  C   UNL d   1     -40.341  15.759  16.601  0.00  0.00     0.024 A 
ATOM     16  C   UNL d   1     -39.649  15.912  17.029  0.00  0.00     0.002 A 
ATOM     17  C   UNL d   1     -39.614  15.762  17.836  0.00  0.00     0.004 A 
BRANCH  14  18
ATOM     18  O   UNL d   1     -41.689  15.299  16.568  0.00  0.00    -0.328 OA
ATOM     19  C   UNL d   1     -42.070  15.906  16.161  0.00  0.00     0.181 C 
ENDBRANCH  14  18
ENDBRANCH   4  12
TORSDOF 2
ENDMDL
MODEL 9
REMARK VINA RESULT:      -5.7      9.084      9.554
REMARK  2 active torsions:
REMARK  status: ('A' for Active; 'I' for Inactive)
REMARK    1  A    between atoms: C_7  and  C_4 
REMARK    2  A    between atoms: O_13  and  C_11 
ROOT
ATOM      1  N   UNL d   1     -39.235  14.438  18.846  0.00  0.00    -0.211 NA
ATOM      2  C   UNL d   1     -39.477  14.392  18.049  0.00  0.00     0.140 A 
ATOM      3  C   UNL d   1     -40.075  14.886  17.774  0.00  0.00     0.051 A 
ATOM      4  C   UNL d   1     -39.601  14.980  19.353  0.00  0.00     0.183 A 
ATOM      5  C   UNL d   1     -40.436  15.425  18.283  0.00  0.00     0.104 A 
ATOM      6  O   UNL d   1     -40.199  15.473  19.073  0.00  0.00    -0.289 OA
ATOM      7  S   UNL d   1     -39.119  13.855  17.536  0.00  0.00    -0.057 SA
ATOM      8  C   UNL d   1     -40.318  14.846  16.986  0.00  0.00     0.004 A 
ATOM      9  C   UNL d   1     -41.033  15.920  18.014  0.00  0.00     0.025 A 
ATOM     10  C   UNL d   1     -40.921  15.341  16.704  0.00  0.00     0.000 A 
ATOM     11  C   UNL d   1     -41.275  15.877  17.223  0.00  0.00     0.002 A 
ENDROOT
BRANCH   4  12
ATOM     12  C   UNL d   1     -39.357  15.019  20.136  0.00  0.00     0.043 A 
ATOM     13  C   UNL d   1     -39.579  14.448  20.675  0.00  0.00     0.028 A 
ATOM     14  C   UNL d   1     -39.333  14.492  21.455  0.00  0.00     0.094 A 
ATOM     15  C   UNL d   1     -38.856  15.118  21.703  0.00  0.00     0.024 A 
ATOM     16  C   UNL d   1     -38.631  15.698  21.158  0.00  0.00     0.002 A 
ATOM     17  C   UNL d   1     -38.876  15.656  20.375  0.00  0.00     0.004 A 
BRANCH  14  18
ATOM     18  O   UNL d   1     -39.559  13.914  21.995  0.00  0.00    -0.328 OA
ATOM     19  C   UNL d   1     -38.991  13.517  22.440  0.00  0.00     0.181 C 
ENDBRANCH  14  18
ENDBRANCH   4  12
TORSDOF 2
ENDMDL
