MODEL 1
REMARK VINA RESULT:      35.2      0.000      0.000
REMARK  5 active torsions:
REMARK  status: ('A' for Active; 'I' for Inactive)
REMARK    1  A    between atoms: N_8  and  C_1 
REMARK    2  A    between atoms: S_2  and  C_7 
REMARK    3  A    between atoms: N_9  and  S_2 
REMARK    4  A    between atoms: C_17  and  N_5 
REMARK       I    between atoms: C_10  and  N_8 
REMARK    5  A    between atoms: C_12  and  C_10 
ROOT
ATOM      1  N   UNL d   1      46.064 -15.883  43.712  0.00  0.00    -0.202 NA
ATOM      2  C   UNL d   1      45.795 -16.417  44.292  0.00  0.00     0.279 C 
ATOM      3  O   UNL d   1      45.328 -16.143  44.917  0.00  0.00    -0.265 OA
ENDROOT
BRANCH   2   4
ATOM      4  C   UNL d   1      45.995 -17.208  44.240  0.00  0.00     0.059 A 
ATOM      5  C   UNL d   1      46.085 -17.569  43.500  0.00  0.00     0.019 A 
ATOM      6  C   UNL d   1      46.287 -18.367  43.452  0.00  0.00     0.115 A 
ATOM      7  C   UNL d   1      46.397 -18.805  44.143  0.00  0.00     0.070 A 
ATOM      8  C   UNL d   1      46.308 -18.448  44.873  0.00  0.00     0.012 A 
ATOM      9 CL   UNL d   1      46.598 -19.603  44.094  0.00  0.00    -0.082 Cl
ATOM     10  C   UNL d   1      46.105 -17.644  44.930  0.00  0.00     0.006 A 
BRANCH   6  11
ATOM     11  S   UNL d   1      46.376 -18.725  42.710  0.00  0.00     0.272 S 
ATOM     12  O   UNL d   1      46.543 -17.984  42.379  0.00  0.00    -0.200 OA
ATOM     13  O   UNL d   1      46.211 -19.461  43.039  0.00  0.00    -0.200 OA
BRANCH  11  14
ATOM     14  N   UNL d   1      46.466 -19.075  41.971  0.00  0.00    -0.229 N 
ATOM     15  C   UNL d   1      46.510 -18.602  41.306  0.00  0.00     0.092 A 
ATOM     16  C   UNL d   1      46.601 -18.954  40.564  0.00  0.00     0.020 A 
ATOM     17  C   UNL d   1      46.646 -19.774  40.497  0.00  0.00     0.003 A 
ATOM     18  C   UNL d   1      46.600 -20.243  41.175  0.00  0.00     0.020 A 
ATOM     19  C   UNL d   1      46.510 -19.893  41.913  0.00  0.00     0.092 A 
ENDBRANCH  11  14
ENDBRANCH   6  11
ENDBRANCH   2   4
BRANCH   1  20
ATOM     20  C   UNL d   1      45.863 -15.091  43.767  0.00  0.00     0.160 A 
ATOM     21  C   UNL d   1      45.356 -14.674  43.263  0.00  0.00     0.298 A 
ATOM     22  N   UNL d   1      45.316 -13.901  43.527  0.00  0.00    -0.209 N 
ATOM     23  O   UNL d   1      44.966 -14.987  42.614  0.00  0.00    -0.263 OA
ATOM     24  N   UNL d   1      45.796 -13.834  44.195  0.00  0.00    -0.238 N 
ATOM     25  C   UNL d   1      46.134 -14.565  44.345  0.00  0.00     0.104 A 
ATOM     26  C   UNL d   1      45.915 -13.155  44.632  0.00  0.00     0.120 C 
ATOM     27  C   UNL d   1      46.646 -14.747  44.955  0.00  0.00     0.022 C 
BRANCH  22  28
ATOM     28  C   UNL d   1      44.878 -13.303  43.187  0.00  0.00     0.085 A 
ATOM     29  C   UNL d   1      45.233 -12.792  42.655  0.00  0.00     0.019 A 
ATOM     30  C   UNL d   1      44.790 -12.191  42.315  0.00  0.00     0.002 A 
ATOM     31  C   UNL d   1      44.003 -12.098  42.500  0.00  0.00     0.000 A 
ATOM     32  C   UNL d   1      43.647 -12.617  43.038  0.00  0.00     0.002 A 
ATOM     33  C   UNL d   1      44.089 -13.218  43.379  0.00  0.00     0.019 A 
ENDBRANCH  22  28
ENDBRANCH   1  20
TORSDOF 5
ENDMDL
