MODEL 1
REMARK VINA RESULT:      -9.6      0.000      0.000
REMARK  5 active torsions:
REMARK  status: ('A' for Active; 'I' for Inactive)
REMARK    1  A    between atoms: C_7  and  C_1 
REMARK    2  A    between atoms: C_8  and  C_2 
REMARK    3  A    between atoms: O_16  and  C_8 
REMARK    4  A    between atoms: O_17  and  C_12 
REMARK    5  A    between atoms: C_21  and  O_16 
ROOT
ATOM      1  C   UNL d   1      52.967  32.548  53.412  0.00  0.00     0.069 A 
ATOM      2  C   UNL d   1      53.367  32.459  54.128  0.00  0.00     0.166 A 
ATOM      3  C   UNL d   1      52.746  31.880  52.977  0.00  0.00     0.200 A 
ATOM      4  O   UNL d   1      53.552  31.705  54.420  0.00  0.00    -0.301 OA
ATOM      5  C   UNL d   1      52.927  31.127  53.262  0.00  0.00     0.062 A 
ATOM      6  C   UNL d   1      53.327  31.042  53.978  0.00  0.00     0.106 A 
ATOM      7  C   UNL d   1      53.510  30.276  54.265  0.00  0.00     0.067 A 
ATOM      8  C   UNL d   1      52.706  30.456  52.826  0.00  0.00     0.009 A 
ATOM      9  O   UNL d   1      52.346  31.961  52.260  0.00  0.00    -0.286 OA
ATOM     10  C   UNL d   1      53.289  29.613  53.831  0.00  0.00     0.198 A 
ATOM     11  C   UNL d   1      52.885  29.703  53.108  0.00  0.00     0.042 A 
ATOM     12  O   UNL d   1      53.468  28.861  54.112  0.00  0.00    -0.286 OA
ENDROOT
BRANCH   1  13
ATOM     13  C   UNL d   1      52.788  33.301  53.131  0.00  0.00     0.028 A 
ATOM     14  C   UNL d   1      52.016  33.584  53.203  0.00  0.00     0.094 A 
ATOM     15  C   UNL d   1      51.836  34.337  52.922  0.00  0.00     0.024 A 
ATOM     16  C   UNL d   1      52.421  34.809  52.571  0.00  0.00     0.002 A 
ATOM     17  C   UNL d   1      53.190  34.515  52.505  0.00  0.00     0.000 A 
ATOM     18  C   UNL d   1      53.376  33.760  52.785  0.00  0.00     0.002 A 
BRANCH  14  19
ATOM     19  O   UNL d   1      51.439  33.120  53.548  0.00  0.00    -0.328 OA
ATOM     20  C   UNL d   1      50.654  33.373  53.541  0.00  0.00     0.181 C 
ENDBRANCH  14  19
ENDBRANCH   1  13
BRANCH   2  21
ATOM     21  C   UNL d   1      53.588  33.130  54.564  0.00  0.00     0.323 C 
ATOM     22  O   UNL d   1      53.019  33.537  55.005  0.00  0.00    -0.257 OA
BRANCH  21  23
ATOM     23  O   UNL d   1      54.372  33.389  54.555  0.00  0.00    -0.270 OA
BRANCH  23  24
ATOM     24  C   UNL d   1      54.727  33.623  55.252  0.00  0.00     0.126 C 
ATOM     25  C   UNL d   1      55.491  33.933  55.246  0.00  0.00     0.029 C 
ENDBRANCH  23  24
ENDBRANCH  21  23
ENDBRANCH   2  21
TORSDOF 5
ENDMDL
MODEL 2
REMARK VINA RESULT:      -8.7      0.909      2.600
REMARK  5 active torsions:
REMARK  status: ('A' for Active; 'I' for Inactive)
REMARK    1  A    between atoms: C_7  and  C_1 
REMARK    2  A    between atoms: C_8  and  C_2 
REMARK    3  A    between atoms: O_16  and  C_8 
REMARK    4  A    between atoms: O_17  and  C_12 
REMARK    5  A    between atoms: C_21  and  O_16 
ROOT
ATOM      1  C   UNL d   1      53.327  32.453  53.919  0.00  0.00     0.069 A 
ATOM      2  C   UNL d   1      52.826  32.497  53.266  0.00  0.00     0.166 A 
ATOM      3  C   UNL d   1      53.555  31.715  54.215  0.00  0.00     0.200 A 
ATOM      4  O   UNL d   1      52.544  31.809  52.898  0.00  0.00    -0.301 OA
ATOM      5  C   UNL d   1      53.279  31.026  53.854  0.00  0.00     0.062 A 
ATOM      6  C   UNL d   1      52.778  31.075  53.201  0.00  0.00     0.106 A 
ATOM      7  C   UNL d   1      52.499  30.373  52.836  0.00  0.00     0.067 A 
ATOM      8  C   UNL d   1      53.507  30.284  54.150  0.00  0.00     0.009 A 
ATOM      9  O   UNL d   1      54.056  31.663  54.868  0.00  0.00    -0.286 OA
ATOM     10  C   UNL d   1      52.726  29.640  53.132  0.00  0.00     0.198 A 
ATOM     11  C   UNL d   1      53.233  29.595  53.792  0.00  0.00     0.042 A 
ATOM     12  O   UNL d   1      52.453  28.951  52.775  0.00  0.00    -0.286 OA
ENDROOT
BRANCH   1  13
ATOM     13  C   UNL d   1      53.600  33.143  54.276  0.00  0.00     0.028 A 
ATOM     14  C   UNL d   1      54.367  33.403  54.114  0.00  0.00     0.094 A 
ATOM     15  C   UNL d   1      54.641  34.093  54.471  0.00  0.00     0.024 A 
ATOM     16  C   UNL d   1      54.156  34.524  54.988  0.00  0.00     0.002 A 
ATOM     17  C   UNL d   1      53.391  34.254  55.142  0.00  0.00     0.000 A 
ATOM     18  C   UNL d   1      53.111  33.562  54.787  0.00  0.00     0.002 A 
BRANCH  14  19
ATOM     19  O   UNL d   1      54.845  32.979  53.606  0.00  0.00    -0.328 OA
ATOM     20  C   UNL d   1      55.611  33.245  53.449  0.00  0.00     0.181 C 
ENDBRANCH  14  19
ENDBRANCH   1  13
BRANCH   2  21
ATOM     21  C   UNL d   1      52.597  33.239  52.970  0.00  0.00     0.323 C 
ATOM     22  O   UNL d   1      53.127  33.675  52.507  0.00  0.00    -0.257 OA
BRANCH  21  23
ATOM     23  O   UNL d   1      51.847  33.539  53.138  0.00  0.00    -0.270 OA
BRANCH  23  24
ATOM     24  C   UNL d   1      51.443  33.958  52.565  0.00  0.00     0.126 C 
ATOM     25  C   UNL d   1      50.671  34.210  52.704  0.00  0.00     0.029 C 
ENDBRANCH  23  24
ENDBRANCH  21  23
ENDBRANCH   2  21
TORSDOF 5
ENDMDL
MODEL 3
REMARK VINA RESULT:      -8.4      1.094      3.530
REMARK  5 active torsions:
REMARK  status: ('A' for Active; 'I' for Inactive)
REMARK    1  A    between atoms: C_7  and  C_1 
REMARK    2  A    between atoms: C_8  and  C_2 
REMARK    3  A    between atoms: O_16  and  C_8 
REMARK    4  A    between atoms: O_17  and  C_12 
REMARK    5  A    between atoms: C_21  and  O_16 
ROOT
ATOM      1  C   UNL d   1      53.156  33.286  53.422  0.00  0.00     0.069 A 
ATOM      2  C   UNL d   1      52.777  32.599  53.168  0.00  0.00     0.166 A 
ATOM      3  C   UNL d   1      52.740  34.001  53.449  0.00  0.00     0.200 A 
ATOM      4  O   UNL d   1      51.980  32.613  52.937  0.00  0.00    -0.301 OA
ATOM      5  C   UNL d   1      51.947  34.022  53.221  0.00  0.00     0.062 A 
ATOM      6  C   UNL d   1      51.572  33.333  52.967  0.00  0.00     0.106 A 
ATOM      7  C   UNL d   1      50.766  33.357  52.735  0.00  0.00     0.067 A 
ATOM      8  C   UNL d   1      51.528  34.739  53.247  0.00  0.00     0.009 A 
ATOM      9  O   UNL d   1      53.112  34.692  53.702  0.00  0.00    -0.286 OA
ATOM     10  C   UNL d   1      50.355  34.069  52.763  0.00  0.00     0.198 A 
ATOM     11  C   UNL d   1      50.737  34.763  53.020  0.00  0.00     0.042 A 
ATOM     12  O   UNL d   1      49.564  34.094  52.536  0.00  0.00    -0.286 OA
ENDROOT
BRANCH   1  13
ATOM     13  C   UNL d   1      53.947  33.261  53.649  0.00  0.00     0.028 A 
ATOM     14  C   UNL d   1      54.135  33.288  54.452  0.00  0.00     0.094 A 
ATOM     15  C   UNL d   1      54.927  33.263  54.680  0.00  0.00     0.024 A 
ATOM     16  C   UNL d   1      55.529  33.210  54.113  0.00  0.00     0.002 A 
ATOM     17  C   UNL d   1      55.328  33.183  53.313  0.00  0.00     0.000 A 
ATOM     18  C   UNL d   1      54.536  33.209  53.078  0.00  0.00     0.002 A 
BRANCH  14  19
ATOM     19  O   UNL d   1      53.543  33.340  55.012  0.00  0.00    -0.328 OA
ATOM     20  C   UNL d   1      53.740  33.396  55.811  0.00  0.00     0.181 C 
ENDBRANCH  14  19
ENDBRANCH   1  13
BRANCH   2  21
ATOM     21  C   UNL d   1      53.196  31.882  53.142  0.00  0.00     0.323 C 
ATOM     22  O   UNL d   1      53.793  31.778  52.579  0.00  0.00    -0.257 OA
BRANCH  21  23
ATOM     23  O   UNL d   1      53.016  31.279  53.675  0.00  0.00    -0.270 OA
BRANCH  23  24
ATOM     24  C   UNL d   1      53.052  30.500  53.430  0.00  0.00     0.126 C 
ATOM     25  C   UNL d   1      53.025  29.890  53.983  0.00  0.00     0.029 C 
ENDBRANCH  23  24
ENDBRANCH  21  23
ENDBRANCH   2  21
TORSDOF 5
ENDMDL
MODEL 4
REMARK VINA RESULT:      -7.9      1.054      3.213
REMARK  5 active torsions:
REMARK  status: ('A' for Active; 'I' for Inactive)
REMARK    1  A    between atoms: C_7  and  C_1 
REMARK    2  A    between atoms: C_8  and  C_2 
REMARK    3  A    between atoms: O_16  and  C_8 
REMARK    4  A    between atoms: O_17  and  C_12 
REMARK    5  A    between atoms: C_21  and  O_16 
ROOT
ATOM      1  C   UNL d   1      52.540  33.373  53.652  0.00  0.00     0.069 A 
ATOM      2  C   UNL d   1      53.020  32.717  53.508  0.00  0.00     0.166 A 
ATOM      3  C   UNL d   1      52.805  33.975  54.153  0.00  0.00     0.200 A 
ATOM      4  O   UNL d   1      53.768  32.652  53.860  0.00  0.00    -0.301 OA
ATOM      5  C   UNL d   1      53.549  33.917  54.506  0.00  0.00     0.062 A 
ATOM      6  C   UNL d   1      54.025  33.260  54.360  0.00  0.00     0.106 A 
ATOM      7  C   UNL d   1      54.780  33.204  54.720  0.00  0.00     0.067 A 
ATOM      8  C   UNL d   1      53.816  34.522  55.009  0.00  0.00     0.009 A 
ATOM      9  O   UNL d   1      52.332  34.634  54.301  0.00  0.00    -0.286 OA
ATOM     10  C   UNL d   1      55.041  33.804  55.218  0.00  0.00     0.198 A 
ATOM     11  C   UNL d   1      54.557  34.467  55.363  0.00  0.00     0.042 A 
ATOM     12  O   UNL d   1      55.782  33.750  55.572  0.00  0.00    -0.286 OA
ENDROOT
BRANCH   1  13
ATOM     13  C   UNL d   1      51.799  33.427  53.297  0.00  0.00     0.028 A 
ATOM     14  C   UNL d   1      51.712  33.885  52.617  0.00  0.00     0.094 A 
ATOM     15  C   UNL d   1      50.971  33.940  52.261  0.00  0.00     0.024 A 
ATOM     16  C   UNL d   1      50.318  33.540  52.580  0.00  0.00     0.002 A 
ATOM     17  C   UNL d   1      50.417  33.085  53.261  0.00  0.00     0.000 A 
ATOM     18  C   UNL d   1      51.159  33.026  53.622  0.00  0.00     0.002 A 
BRANCH  14  19
ATOM     19  O   UNL d   1      52.354  34.279  52.302  0.00  0.00    -0.328 OA
ATOM     20  C   UNL d   1      52.263  34.722  51.612  0.00  0.00     0.181 C 
ENDBRANCH  14  19
ENDBRANCH   1  13
BRANCH   2  21
ATOM     21  C   UNL d   1      52.753  32.112  53.005  0.00  0.00     0.323 C 
ATOM     22  O   UNL d   1      52.724  32.243  52.189  0.00  0.00    -0.257 OA
BRANCH  21  23
ATOM     23  O   UNL d   1      52.518  31.386  53.319  0.00  0.00    -0.270 OA
BRANCH  23  24
ATOM     24  C   UNL d   1      52.732  30.695  52.942  0.00  0.00     0.126 C 
ATOM     25  C   UNL d   1      52.636  29.969  53.320  0.00  0.00     0.029 C 
ENDBRANCH  23  24
ENDBRANCH  21  23
ENDBRANCH   2  21
TORSDOF 5
ENDMDL
MODEL 5
REMARK VINA RESULT:      -7.0      1.001      3.172
REMARK  5 active torsions:
REMARK  status: ('A' for Active; 'I' for Inactive)
REMARK    1  A    between atoms: C_7  and  C_1 
REMARK    2  A    between atoms: C_8  and  C_2 
REMARK    3  A    between atoms: O_16  and  C_8 
REMARK    4  A    between atoms: O_17  and  C_12 
REMARK    5  A    between atoms: C_21  and  O_16 
ROOT
ATOM      1  C   UNL d   1      52.949  32.364  53.390  0.00  0.00     0.069 A 
ATOM      2  C   UNL d   1      53.077  32.864  54.033  0.00  0.00     0.166 A 
ATOM      3  C   UNL d   1      52.366  32.549  52.833  0.00  0.00     0.200 A 
ATOM      4  O   UNL d   1      52.628  33.554  54.131  0.00  0.00    -0.301 OA
ATOM      5  C   UNL d   1      51.915  33.234  52.925  0.00  0.00     0.062 A 
ATOM      6  C   UNL d   1      52.046  33.731  53.569  0.00  0.00     0.106 A 
ATOM      7  C   UNL d   1      51.587  34.427  53.660  0.00  0.00     0.067 A 
ATOM      8  C   UNL d   1      51.329  33.421  52.367  0.00  0.00     0.009 A 
ATOM      9  O   UNL d   1      52.232  32.054  52.187  0.00  0.00    -0.286 OA
ATOM     10  C   UNL d   1      51.007  34.609  53.105  0.00  0.00     0.198 A 
ATOM     11  C   UNL d   1      50.878  34.104  52.455  0.00  0.00     0.042 A 
ATOM     12  O   UNL d   1      50.556  35.291  53.193  0.00  0.00    -0.286 OA
ENDROOT
BRANCH   1  13
ATOM     13  C   UNL d   1      53.401  31.681  53.302  0.00  0.00     0.028 A 
ATOM     14  C   UNL d   1      53.054  30.948  53.453  0.00  0.00     0.094 A 
ATOM     15  C   UNL d   1      53.506  30.264  53.365  0.00  0.00     0.024 A 
ATOM     16  C   UNL d   1      54.300  30.309  53.129  0.00  0.00     0.002 A 
ATOM     17  C   UNL d   1      54.636  31.048  52.982  0.00  0.00     0.000 A 
ATOM     18  C   UNL d   1      54.188  31.737  53.068  0.00  0.00     0.002 A 
BRANCH  14  19
ATOM     19  O   UNL d   1      52.273  30.902  53.685  0.00  0.00    -0.328 OA
ATOM     20  C   UNL d   1      51.912  30.165  53.761  0.00  0.00     0.181 C 
ENDBRANCH  14  19
ENDBRANCH   1  13
BRANCH   2  21
ATOM     21  C   UNL d   1      53.663  32.677  54.592  0.00  0.00     0.323 C 
ATOM     22  O   UNL d   1      53.518  32.087  55.154  0.00  0.00    -0.257 OA
BRANCH  21  23
ATOM     23  O   UNL d   1      54.384  33.077  54.585  0.00  0.00    -0.270 OA
BRANCH  23  24
ATOM     24  C   UNL d   1      54.704  33.345  55.287  0.00  0.00     0.126 C 
ATOM     25  C   UNL d   1      55.361  33.843  55.281  0.00  0.00     0.029 C 
ENDBRANCH  23  24
ENDBRANCH  21  23
ENDBRANCH   2  21
TORSDOF 5
ENDMDL
