MODEL 1
REMARK VINA RESULT:      59.1      0.000      0.000
REMARK  5 active torsions:
REMARK  status: ('A' for Active; 'I' for Inactive)
REMARK    1  A    between atoms: C_6  and  N_1 
REMARK    2  A    between atoms: C_7  and  C_2 
REMARK    3  A    between atoms: C_12  and  C_6 
REMARK    4  A    between atoms: C_11  and  C_7 
REMARK       I    between atoms: C_8  and  N_10 
REMARK    5  A    between atoms: N_10  and  C_11 
ROOT
ATOM      1  N   UNL d   1      60.390  49.171  50.663  0.00  0.00    -0.289 N 
ATOM      2  C   UNL d   1      60.773  48.519  50.313  0.00  0.00     0.149 A 
ATOM      3  N   UNL d   1      61.218  48.139  50.898  0.00  0.00    -0.227 NA
ATOM      4  C   UNL d   1      60.599  49.191  51.465  0.00  0.00     0.083 A 
ATOM      5  C   UNL d   1      61.113  48.551  51.611  0.00  0.00     0.099 A 
ATOM      6  C   UNL d   1      60.394  49.703  52.083  0.00  0.00     0.019 A 
ATOM      7  C   UNL d   1      61.415  48.430  52.373  0.00  0.00     0.021 A 
ATOM      8  C   UNL d   1      60.695  49.581  52.838  0.00  0.00     0.002 A 
ATOM      9  C   UNL d   1      61.203  48.947  52.982  0.00  0.00     0.002 A 
ENDROOT
BRANCH   1  10
ATOM     10  C   UNL d   1      59.889  49.705  50.282  0.00  0.00     0.082 C 
BRANCH  10  11
ATOM     11  C   UNL d   1      59.074  49.584  50.286  0.00  0.00     0.018 A 
ATOM     12  C   UNL d   1      58.654  49.623  49.579  0.00  0.00     0.002 A 
ATOM     13  C   UNL d   1      57.832  49.502  49.576  0.00  0.00     0.000 A 
ATOM     14  C   UNL d   1      57.454  49.345  50.285  0.00  0.00     0.000 A 
ATOM     15  C   UNL d   1      57.877  49.305  50.994  0.00  0.00     0.000 A 
ATOM     16  C   UNL d   1      58.691  49.426  50.991  0.00  0.00     0.002 A 
ENDBRANCH  10  11
ENDBRANCH   1  10
BRANCH   2  17
ATOM     17  C   UNL d   1      60.979  48.009  49.702  0.00  0.00     0.058 C 
BRANCH  17  18
ATOM     18  C   UNL d   1      61.475  47.370  49.851  0.00  0.00     0.105 C 
BRANCH  18  19
ATOM     19  N   UNL d   1      61.231  46.608  49.661  0.00  0.00    -0.206 NA
ATOM     20  C   UNL d   1      61.782  46.035  49.461  0.00  0.00     0.280 C 
ATOM     21  O   UNL d   1      62.585  46.226  49.453  0.00  0.00    -0.265 OA
ATOM     22  C   UNL d   1      61.538  45.270  49.270  0.00  0.00     0.068 C 
ENDBRANCH  18  19
ENDBRANCH  17  18
ENDBRANCH   2  17
TORSDOF 5
ENDMDL
