MODEL 1
REMARK VINA RESULT:      62.9      0.000      0.000
REMARK  6 active torsions:
REMARK  status: ('A' for Active; 'I' for Inactive)
REMARK    1  A    between atoms: O_4  and  C_1 
REMARK    2  A    between atoms: C_9  and  C_2 
REMARK    3  A    between atoms: C_5  and  O_4 
REMARK    4  A    between atoms: C_11  and  C_5 
REMARK    5  A    between atoms: N_10  and  C_9 
REMARK    6  A    between atoms: O_19  and  C_17 
ROOT
ATOM      1  C   UNL d   1      57.921  49.623  51.668  0.00  0.00     0.122 A 
ATOM      2  C   UNL d   1      58.738  49.595  51.559  0.00  0.00     0.043 A 
ATOM      3  C   UNL d   1      57.417  49.558  51.018  0.00  0.00     0.105 A 
ATOM      4  C   UNL d   1      57.729  49.465  50.261  0.00  0.00     0.030 A 
ATOM      5  C   UNL d   1      58.542  49.438  50.162  0.00  0.00     0.059 A 
ATOM      6  C   UNL d   1      59.050  49.502  50.802  0.00  0.00     0.015 A 
ATOM      7  N   UNL d   1      56.607  49.587  51.130  0.00  0.00    -0.242 NA
ATOM      8 CL   UNL d   1      58.836  49.343  49.385  0.00  0.00    -0.082 Cl
ATOM      9  C   UNL d   1      57.229  49.402  49.624  0.00  0.00     0.004 A 
ATOM     10  C   UNL d   1      56.103  49.522  50.481  0.00  0.00     0.099 A 
ATOM     11  C   UNL d   1      56.415  49.429  49.724  0.00  0.00     0.021 A 
ENDROOT
BRANCH   1  12
ATOM     12  O   UNL d   1      57.628  49.707  52.350  0.00  0.00    -0.271 OA
BRANCH  12  13
ATOM     13  C   UNL d   1      56.827  49.510  52.849  0.00  0.00     0.300 C 
ATOM     14  O   UNL d   1      56.048  49.229  52.281  0.00  0.00    -0.259 OA
BRANCH  13  15
ATOM     15  C   UNL d   1      56.807  49.574  53.670  0.00  0.00     0.066 A 
ATOM     16  C   UNL d   1      57.518  49.607  54.100  0.00  0.00     0.029 A 
ATOM     17  C   UNL d   1      57.494  49.672  54.931  0.00  0.00     0.094 A 
ATOM     18  C   UNL d   1      56.762  49.704  55.333  0.00  0.00     0.024 A 
ATOM     19  C   UNL d   1      56.055  49.671  54.900  0.00  0.00     0.002 A 
ATOM     20  C   UNL d   1      56.080  49.606  54.069  0.00  0.00     0.005 A 
BRANCH  17  21
ATOM     21  O   UNL d   1      58.255  49.699  55.281  0.00  0.00    -0.328 OA
ATOM     22  C   UNL d   1      58.105  49.260  55.989  0.00  0.00     0.181 C 
ENDBRANCH  17  21
ENDBRANCH  13  15
ENDBRANCH  12  13
ENDBRANCH   1  12
BRANCH   2  23
ATOM     23  C   UNL d   1      59.437  49.648  52.139  0.00  0.00     0.082 C 
BRANCH  23  24
ATOM     24  N   UNL d   1      60.168  49.346  51.919  0.00  0.00    -0.299 N 
ATOM     25  C   UNL d   1      60.448  49.452  51.163  0.00  0.00     0.107 A 
ATOM     26  C   UNL d   1      61.177  49.152  50.941  0.00  0.00     0.142 A 
ATOM     27  O   UNL d   1      61.631  48.736  51.496  0.00  0.00    -0.300 OA
ATOM     28  C   UNL d   1      61.356  48.626  52.256  0.00  0.00     0.142 A 
ATOM     29  C   UNL d   1      60.618  48.936  52.464  0.00  0.00     0.107 A 
ENDBRANCH  23  24
ENDBRANCH   2  23
TORSDOF 6
ENDMDL
