MODEL 1
REMARK VINA RESULT:      -7.1      0.000      0.000
REMARK  5 active torsions:
REMARK  status: ('A' for Active; 'I' for Inactive)
REMARK    1  A    between atoms: N_2  and  S_1 
REMARK    2  A    between atoms: C_3  and  S_1 
REMARK    3  A    between atoms: C_8  and  N_2 
REMARK    4  A    between atoms: C_7  and  C_6 
REMARK    5  A    between atoms: C_16  and  C_8 
ROOT
ATOM      1  C   UNL d   1     -47.435  13.865  22.714  0.00  0.00     0.105 A 
ATOM      2  C   UNL d   1     -46.411  12.594  23.005  0.00  0.00     0.000 A 
ATOM      3  C   UNL d   1     -47.170  13.715  23.480  0.00  0.00     0.013 A 
ATOM      4  C   UNL d   1     -47.189  13.381  22.094  0.00  0.00     0.013 A 
ATOM      5  C   UNL d   1     -46.656  13.076  23.626  0.00  0.00     0.001 A 
ATOM      6  C   UNL d   1     -46.675  12.743  22.241  0.00  0.00     0.001 A 
ENDROOT
BRANCH   1   7
ATOM      7  S   UNL d   1     -47.945  14.498  22.574  0.00  0.00     0.285 S 
ATOM      8  O   UNL d   1     -47.303  14.998  22.472  0.00  0.00    -0.198 OA
ATOM      9  O   UNL d   1     -48.447  15.127  22.434  0.00  0.00    -0.198 OA
BRANCH   7  10
ATOM     10  N   UNL d   1     -48.593  13.998  22.675  0.00  0.00    -0.155 NA
BRANCH  10  11
ATOM     11  C   UNL d   1     -49.358  14.302  22.603  0.00  0.00     0.137 C 
BRANCH  11  12
ATOM     12  C   UNL d   1     -50.016  13.790  22.683  0.00  0.00     0.120 A 
ATOM     13  O   UNL d   1     -50.315  13.479  23.389  0.00  0.00    -0.304 OA
ATOM     14  C   UNL d   1     -50.963  13.006  23.200  0.00  0.00     0.123 A 
ATOM     15  C   UNL d   1     -51.064  13.022  22.389  0.00  0.00     0.029 A 
ATOM     16  C   UNL d   1     -50.480  13.507  22.066  0.00  0.00     0.028 A 
ENDBRANCH  11  12
ENDBRANCH  10  11
ENDBRANCH   7  10
ENDBRANCH   1   7
BRANCH   2  17
ATOM     17  C   UNL d   1     -45.906  11.968  23.154  0.00  0.00     0.000 A 
ATOM     18  C   UNL d   1     -45.121  12.011  22.909  0.00  0.00     0.000 A 
ATOM     19  C   UNL d   1     -44.604  11.384  23.055  0.00  0.00     0.000 A 
ATOM     20  C   UNL d   1     -44.885  10.707  23.453  0.00  0.00     0.000 A 
ATOM     21  C   UNL d   1     -45.670  10.665  23.697  0.00  0.00     0.000 A 
ATOM     22  C   UNL d   1     -44.372  10.078  23.601  0.00  0.00     0.000 C 
ATOM     23  C   UNL d   1     -46.183  11.293  23.550  0.00  0.00     0.000 A 
ENDBRANCH   2  17
TORSDOF 5
ENDMDL
MODEL 2
REMARK VINA RESULT:      -6.9      1.817      4.609
REMARK  5 active torsions:
REMARK  status: ('A' for Active; 'I' for Inactive)
REMARK    1  A    between atoms: N_2  and  S_1 
REMARK    2  A    between atoms: C_3  and  S_1 
REMARK    3  A    between atoms: C_8  and  N_2 
REMARK    4  A    between atoms: C_7  and  C_6 
REMARK    5  A    between atoms: C_16  and  C_8 
ROOT
ATOM      1  C   UNL d   1     -46.302  13.136  22.601  0.00  0.00     0.105 A 
ATOM      2  C   UNL d   1     -47.899  12.872  22.961  0.00  0.00     0.000 A 
ATOM      3  C   UNL d   1     -46.585  13.287  23.360  0.00  0.00     0.013 A 
ATOM      4  C   UNL d   1     -46.815  12.853  22.022  0.00  0.00     0.013 A 
ATOM      5  C   UNL d   1     -47.387  13.155  23.541  0.00  0.00     0.001 A 
ATOM      6  C   UNL d   1     -47.617  12.721  22.203  0.00  0.00     0.001 A 
ENDROOT
BRANCH   1   7
ATOM      7  S   UNL d   1     -45.507  13.268  22.427  0.00  0.00     0.285 S 
ATOM      8  O   UNL d   1     -45.684  14.028  22.173  0.00  0.00    -0.198 OA
ATOM      9  O   UNL d   1     -44.720  13.403  22.253  0.00  0.00    -0.198 OA
BRANCH   7  10
ATOM     10  N   UNL d   1     -45.325  12.505  22.680  0.00  0.00    -0.155 NA
BRANCH  10  11
ATOM     11  C   UNL d   1     -44.574  12.193  22.531  0.00  0.00     0.137 C 
BRANCH  11  12
ATOM     12  C   UNL d   1     -44.334  11.489  22.915  0.00  0.00     0.120 A 
ATOM     13  O   UNL d   1     -44.813  10.986  23.366  0.00  0.00    -0.304 OA
ATOM     14  C   UNL d   1     -44.341  10.365  23.634  0.00  0.00     0.123 A 
ATOM     15  C   UNL d   1     -43.582  10.481  23.355  0.00  0.00     0.029 A 
ATOM     16  C   UNL d   1     -43.574  11.175  22.909  0.00  0.00     0.028 A 
ENDBRANCH  11  12
ENDBRANCH  10  11
ENDBRANCH   7  10
ENDBRANCH   1   7
BRANCH   2  17
ATOM     17  C   UNL d   1     -48.685  12.744  23.143  0.00  0.00     0.000 A 
ATOM     18  C   UNL d   1     -48.912  12.035  23.497  0.00  0.00     0.000 A 
ATOM     19  C   UNL d   1     -49.704  11.898  23.684  0.00  0.00     0.000 A 
ATOM     20  C   UNL d   1     -50.272  12.483  23.512  0.00  0.00     0.000 A 
ATOM     21  C   UNL d   1     -50.045  13.191  23.159  0.00  0.00     0.000 A 
ATOM     22  C   UNL d   1     -51.064  12.349  23.698  0.00  0.00     0.000 C 
ATOM     23  C   UNL d   1     -49.253  13.325  22.974  0.00  0.00     0.000 A 
ENDBRANCH   2  17
TORSDOF 5
ENDMDL
MODEL 3
REMARK VINA RESULT:      -6.6      1.496      2.236
REMARK  5 active torsions:
REMARK  status: ('A' for Active; 'I' for Inactive)
REMARK    1  A    between atoms: N_2  and  S_1 
REMARK    2  A    between atoms: C_3  and  S_1 
REMARK    3  A    between atoms: C_8  and  N_2 
REMARK    4  A    between atoms: C_7  and  C_6 
REMARK    5  A    between atoms: C_16  and  C_8 
ROOT
ATOM      1  C   UNL d   1     -48.735  12.396  23.105  0.00  0.00     0.105 A 
ATOM      2  C   UNL d   1     -47.134  12.574  22.712  0.00  0.00     0.000 A 
ATOM      3  C   UNL d   1     -48.507  12.453  22.315  0.00  0.00     0.013 A 
ATOM      4  C   UNL d   1     -48.165  12.427  23.698  0.00  0.00     0.013 A 
ATOM      5  C   UNL d   1     -47.703  12.543  22.118  0.00  0.00     0.001 A 
ATOM      6  C   UNL d   1     -47.361  12.517  23.501  0.00  0.00     0.001 A 
ENDROOT
BRANCH   1   7
ATOM      7  S   UNL d   1     -49.533  12.307  23.295  0.00  0.00     0.285 S 
ATOM      8  O   UNL d   1     -49.436  11.494  23.345  0.00  0.00    -0.198 OA
ATOM      9  O   UNL d   1     -50.322  12.216  23.484  0.00  0.00    -0.198 OA
BRANCH   7  10
ATOM     10  N   UNL d   1     -49.634  13.124  23.246  0.00  0.00    -0.155 NA
BRANCH  10  11
ATOM     11  C   UNL d   1     -50.381  13.452  23.384  0.00  0.00     0.137 C 
BRANCH  11  12
ATOM     12  C   UNL d   1     -50.486  14.280  23.322  0.00  0.00     0.120 A 
ATOM     13  O   UNL d   1     -50.036  14.864  23.698  0.00  0.00    -0.304 OA
ATOM     14  C   UNL d   1     -50.340  15.597  23.475  0.00  0.00     0.123 A 
ATOM     15  C   UNL d   1     -50.969  15.471  22.969  0.00  0.00     0.029 A 
ATOM     16  C   UNL d   1     -51.062  14.657  22.872  0.00  0.00     0.028 A 
ENDBRANCH  11  12
ENDBRANCH  10  11
ENDBRANCH   7  10
ENDBRANCH   1   7
BRANCH   2  17
ATOM     17  C   UNL d   1     -46.346  12.662  22.514  0.00  0.00     0.000 A 
ATOM     18  C   UNL d   1     -46.116  13.281  22.021  0.00  0.00     0.000 A 
ATOM     19  C   UNL d   1     -45.322  13.377  21.816  0.00  0.00     0.000 A 
ATOM     20  C   UNL d   1     -44.756  12.842  22.112  0.00  0.00     0.000 A 
ATOM     21  C   UNL d   1     -44.986  12.223  22.604  0.00  0.00     0.000 A 
ATOM     22  C   UNL d   1     -43.962  12.934  21.909  0.00  0.00     0.000 C 
ATOM     23  C   UNL d   1     -45.780  12.131  22.807  0.00  0.00     0.000 A 
ENDBRANCH   2  17
TORSDOF 5
ENDMDL
MODEL 4
REMARK VINA RESULT:      -6.6      8.111      9.641
REMARK  5 active torsions:
REMARK  status: ('A' for Active; 'I' for Inactive)
REMARK    1  A    between atoms: N_2  and  S_1 
REMARK    2  A    between atoms: C_3  and  S_1 
REMARK    3  A    between atoms: C_8  and  N_2 
REMARK    4  A    between atoms: C_7  and  C_6 
REMARK    5  A    between atoms: C_16  and  C_8 
ROOT
ATOM      1  C   UNL d   1     -40.221  15.145  19.319  0.00  0.00     0.105 A 
ATOM      2  C   UNL d   1     -39.460  14.620  17.943  0.00  0.00     0.000 A 
ATOM      3  C   UNL d   1     -39.574  15.560  19.021  0.00  0.00     0.013 A 
ATOM      4  C   UNL d   1     -40.488  14.470  18.932  0.00  0.00     0.013 A 
ATOM      5  C   UNL d   1     -39.192  15.296  18.329  0.00  0.00     0.001 A 
ATOM      6  C   UNL d   1     -40.106  14.206  18.240  0.00  0.00     0.001 A 
ENDROOT
BRANCH   1   7
ATOM      7  S   UNL d   1     -40.596  15.411  20.004  0.00  0.00     0.285 S 
ATOM      8  O   UNL d   1     -41.104  15.871  19.554  0.00  0.00    -0.198 OA
ATOM      9  O   UNL d   1     -40.970  15.675  20.681  0.00  0.00    -0.198 OA
BRANCH   7  10
ATOM     10  N   UNL d   1     -40.087  14.949  20.461  0.00  0.00    -0.155 NA
BRANCH  10  11
ATOM     11  C   UNL d   1     -40.146  14.970  21.285  0.00  0.00     0.137 C 
BRANCH  11  12
ATOM     12  C   UNL d   1     -39.626  14.506  21.748  0.00  0.00     0.120 A 
ATOM     13  O   UNL d   1     -39.616  13.680  21.802  0.00  0.00    -0.304 OA
ATOM     14  C   UNL d   1     -39.012  13.469  22.321  0.00  0.00     0.123 A 
ATOM     15  C   UNL d   1     -38.652  14.153  22.587  0.00  0.00     0.029 A 
ATOM     16  C   UNL d   1     -39.029  14.796  22.234  0.00  0.00     0.028 A 
ENDBRANCH  11  12
ENDBRANCH  10  11
ENDBRANCH   7  10
ENDBRANCH   1   7
BRANCH   2  17
ATOM     17  C   UNL d   1     -39.082  14.365  17.265  0.00  0.00     0.000 A 
ATOM     18  C   UNL d   1     -39.104  14.830  16.585  0.00  0.00     0.000 A 
ATOM     19  C   UNL d   1     -38.725  14.580  15.896  0.00  0.00     0.000 A 
ATOM     20  C   UNL d   1     -38.320  13.851  15.895  0.00  0.00     0.000 A 
ATOM     21  C   UNL d   1     -38.298  13.387  16.573  0.00  0.00     0.000 A 
ATOM     22  C   UNL d   1     -37.940  13.598  15.208  0.00  0.00     0.000 C 
ATOM     23  C   UNL d   1     -38.678  13.640  17.260  0.00  0.00     0.000 A 
ENDBRANCH   2  17
TORSDOF 5
ENDMDL
MODEL 5
REMARK VINA RESULT:      -6.6      8.566      9.844
REMARK  5 active torsions:
REMARK  status: ('A' for Active; 'I' for Inactive)
REMARK    1  A    between atoms: N_2  and  S_1 
REMARK    2  A    between atoms: C_3  and  S_1 
REMARK    3  A    between atoms: C_8  and  N_2 
REMARK    4  A    between atoms: C_7  and  C_6 
REMARK    5  A    between atoms: C_16  and  C_8 
ROOT
ATOM      1  C   UNL d   1     -40.161  14.533  18.884  0.00  0.00     0.105 A 
ATOM      2  C   UNL d   1     -39.522  14.983  20.347  0.00  0.00     0.000 A 
ATOM      3  C   UNL d   1     -39.624  14.040  19.270  0.00  0.00     0.013 A 
ATOM      4  C   UNL d   1     -40.378  15.249  19.227  0.00  0.00     0.013 A 
ATOM      5  C   UNL d   1     -39.303  14.266  20.004  0.00  0.00     0.001 A 
ATOM      6  C   UNL d   1     -40.057  15.475  19.962  0.00  0.00     0.001 A 
ENDROOT
BRANCH   1   7
ATOM      7  S   UNL d   1     -40.476  14.305  18.157  0.00  0.00     0.285 S 
ATOM      8  O   UNL d   1     -41.096  13.928  18.538  0.00  0.00    -0.198 OA
ATOM      9  O   UNL d   1     -40.790  14.078  17.438  0.00  0.00    -0.198 OA
BRANCH   7  10
ATOM     10  N   UNL d   1     -39.853  14.683  17.770  0.00  0.00    -0.155 NA
BRANCH  10  11
ATOM     11  C   UNL d   1     -39.798  14.640  16.945  0.00  0.00     0.137 C 
BRANCH  11  12
ATOM     12  C   UNL d   1     -39.155  15.006  16.554  0.00  0.00     0.120 A 
ATOM     13  O   UNL d   1     -39.032  15.819  16.462  0.00  0.00    -0.304 OA
ATOM     14  C   UNL d   1     -38.330  15.921  16.042  0.00  0.00     0.123 A 
ATOM     15  C   UNL d   1     -38.022  15.183  15.876  0.00  0.00     0.029 A 
ATOM     16  C   UNL d   1     -38.530  14.614  16.192  0.00  0.00     0.028 A 
ENDBRANCH  11  12
ENDBRANCH  10  11
ENDBRANCH   7  10
ENDBRANCH   1   7
BRANCH   2  17
ATOM     17  C   UNL d   1     -39.204  15.200  21.067  0.00  0.00     0.000 A 
ATOM     18  C   UNL d   1     -39.541  14.917  21.764  0.00  0.00     0.000 A 
ATOM     19  C   UNL d   1     -39.227  15.131  22.496  0.00  0.00     0.000 A 
ATOM     20  C   UNL d   1     -38.565  15.638  22.524  0.00  0.00     0.000 A 
ATOM     21  C   UNL d   1     -38.229  15.921  21.829  0.00  0.00     0.000 A 
ATOM     22  C   UNL d   1     -38.248  15.855  23.254  0.00  0.00     0.000 C 
ATOM     23  C   UNL d   1     -38.546  15.704  21.098  0.00  0.00     0.000 A 
ENDBRANCH   2  17
TORSDOF 5
ENDMDL
MODEL 6
REMARK VINA RESULT:      -5.8      2.107      4.997
REMARK  5 active torsions:
REMARK  status: ('A' for Active; 'I' for Inactive)
REMARK    1  A    between atoms: N_2  and  S_1 
REMARK    2  A    between atoms: C_3  and  S_1 
REMARK    3  A    between atoms: C_8  and  N_2 
REMARK    4  A    between atoms: C_7  and  C_6 
REMARK    5  A    between atoms: C_16  and  C_8 
ROOT
ATOM      1  C   UNL d   1     -46.609  12.262  23.189  0.00  0.00     0.105 A 
ATOM      2  C   UNL d   1     -47.825  13.373  23.000  0.00  0.00     0.000 A 
ATOM      3  C   UNL d   1     -47.207  12.130  22.638  0.00  0.00     0.013 A 
ATOM      4  C   UNL d   1     -46.617  12.947  23.646  0.00  0.00     0.013 A 
ATOM      5  C   UNL d   1     -47.818  12.688  22.542  0.00  0.00     0.001 A 
ATOM      6  C   UNL d   1     -47.228  13.505  23.550  0.00  0.00     0.001 A 
ENDROOT
BRANCH   1   7
ATOM      7  S   UNL d   1     -46.006  11.706  23.280  0.00  0.00     0.285 S 
ATOM      8  O   UNL d   1     -46.516  11.213  23.692  0.00  0.00    -0.198 OA
ATOM      9  O   UNL d   1     -45.411  11.154  23.372  0.00  0.00    -0.198 OA
BRANCH   7  10
ATOM     10  N   UNL d   1     -45.490  12.199  22.866  0.00  0.00    -0.155 NA
BRANCH  10  11
ATOM     11  C   UNL d   1     -44.732  11.929  22.675  0.00  0.00     0.137 C 
BRANCH  11  12
ATOM     12  C   UNL d   1     -44.243  12.390  22.176  0.00  0.00     0.120 A 
ATOM     13  O   UNL d   1     -44.421  13.135  21.862  0.00  0.00    -0.304 OA
ATOM     14  C   UNL d   1     -43.778  13.375  21.405  0.00  0.00     0.123 A 
ATOM     15  C   UNL d   1     -43.210  12.789  21.435  0.00  0.00     0.029 A 
ATOM     16  C   UNL d   1     -43.495  12.178  21.911  0.00  0.00     0.028 A 
ENDBRANCH  11  12
ENDBRANCH  10  11
ENDBRANCH   7  10
ENDBRANCH   1   7
BRANCH   2  17
ATOM     17  C   UNL d   1     -48.426  13.918  22.903  0.00  0.00     0.000 A 
ATOM     18  C   UNL d   1     -49.185  13.740  23.169  0.00  0.00     0.000 A 
ATOM     19  C   UNL d   1     -49.798  14.285  23.075  0.00  0.00     0.000 A 
ATOM     20  C   UNL d   1     -49.641  15.017  22.708  0.00  0.00     0.000 A 
ATOM     21  C   UNL d   1     -48.883  15.194  22.442  0.00  0.00     0.000 A 
ATOM     22  C   UNL d   1     -50.251  15.564  22.612  0.00  0.00     0.000 C 
ATOM     23  C   UNL d   1     -48.273  14.648  22.538  0.00  0.00     0.000 A 
ENDBRANCH   2  17
TORSDOF 5
ENDMDL
MODEL 7
REMARK VINA RESULT:      -5.2      8.608      9.576
REMARK  5 active torsions:
REMARK  status: ('A' for Active; 'I' for Inactive)
REMARK    1  A    between atoms: N_2  and  S_1 
REMARK    2  A    between atoms: C_3  and  S_1 
REMARK    3  A    between atoms: C_8  and  N_2 
REMARK    4  A    between atoms: C_7  and  C_6 
REMARK    5  A    between atoms: C_16  and  C_8 
ROOT
ATOM      1  C   UNL d   1     -38.750  14.629  18.100  0.00  0.00     0.105 A 
ATOM      2  C   UNL d   1     -38.748  14.201  19.702  0.00  0.00     0.000 A 
ATOM      3  C   UNL d   1     -38.915  13.852  18.321  0.00  0.00     0.013 A 
ATOM      4  C   UNL d   1     -38.584  15.191  18.678  0.00  0.00     0.013 A 
ATOM      5  C   UNL d   1     -38.914  13.637  19.125  0.00  0.00     0.001 A 
ATOM      6  C   UNL d   1     -38.583  14.976  19.483  0.00  0.00     0.001 A 
ENDROOT
BRANCH   1   7
ATOM      7  S   UNL d   1     -38.753  14.837  17.302  0.00  0.00     0.285 S 
ATOM      8  O   UNL d   1     -37.962  14.628  17.240  0.00  0.00    -0.198 OA
ATOM      9  O   UNL d   1     -38.752  15.043  16.511  0.00  0.00    -0.198 OA
BRANCH   7  10
ATOM     10  N   UNL d   1     -39.548  15.049  17.361  0.00  0.00    -0.155 NA
BRANCH  10  11
ATOM     11  C   UNL d   1     -39.881  15.546  16.791  0.00  0.00     0.137 C 
BRANCH  11  12
ATOM     12  C   UNL d   1     -40.712  15.648  16.766  0.00  0.00     0.120 A 
ATOM     13  O   UNL d   1     -41.196  15.902  17.387  0.00  0.00    -0.304 OA
ATOM     14  C   UNL d   1     -41.972  15.919  17.108  0.00  0.00     0.123 A 
ATOM     15  C   UNL d   1     -41.969  15.681  16.327  0.00  0.00     0.029 A 
ATOM     16  C   UNL d   1     -41.191  15.512  16.111  0.00  0.00     0.028 A 
ENDBRANCH  11  12
ENDBRANCH  10  11
ENDBRANCH   7  10
ENDBRANCH   1   7
BRANCH   2  17
ATOM     17  C   UNL d   1     -38.748  13.985  20.490  0.00  0.00     0.000 A 
ATOM     18  C   UNL d   1     -39.351  14.248  20.986  0.00  0.00     0.000 A 
ATOM     19  C   UNL d   1     -39.358  14.035  21.783  0.00  0.00     0.000 A 
ATOM     20  C   UNL d   1     -38.749  13.551  22.082  0.00  0.00     0.000 A 
ATOM     21  C   UNL d   1     -38.147  13.288  21.587  0.00  0.00     0.000 A 
ATOM     22  C   UNL d   1     -38.754  13.336  22.878  0.00  0.00     0.000 C 
ATOM     23  C   UNL d   1     -38.143  13.503  20.791  0.00  0.00     0.000 A 
ENDBRANCH   2  17
TORSDOF 5
ENDMDL
