MODEL 1
REMARK VINA RESULT:      77.4      0.000      0.000
REMARK  5 active torsions:
REMARK  status: ('A' for Active; 'I' for Inactive)
REMARK    1  A    between atoms: C_5  and  N_1 
REMARK    2  A    between atoms: C_7  and  C_3 
REMARK    3  A    between atoms: C_8  and  C_4 
REMARK    4  A    between atoms: N_10  and  C_5 
REMARK    5  A    between atoms: O_21  and  C_15 
ROOT
ATOM      1  N   UNL d   1     -55.426-101.082 -43.846  0.00  0.00    -0.203 N 
ATOM      2  N   UNL d   1     -55.070-101.488 -43.218  0.00  0.00    -0.163 NA
ATOM      3  C   UNL d   1     -55.486-101.364 -42.539  0.00  0.00     0.103 A 
ATOM      4  C   UNL d   1     -56.097-100.683 -43.550  0.00  0.00     0.087 A 
ATOM      5  C   UNL d   1     -56.140-100.854 -42.741  0.00  0.00     0.040 A 
ENDROOT
BRANCH   4   6
ATOM      6  C   UNL d   1     -56.635-100.204 -43.956  0.00  0.00     0.018 A 
ATOM      7  C   UNL d   1     -56.663 -99.394 -43.823  0.00  0.00     0.004 A 
ATOM      8  C   UNL d   1     -57.199 -98.919 -44.228  0.00  0.00     0.024 A 
ATOM      9  C   UNL d   1     -57.712 -99.259 -44.772  0.00  0.00     0.094 A 
ATOM     10  C   UNL d   1     -57.695-100.049 -44.912  0.00  0.00     0.024 A 
ATOM     11  C   UNL d   1     -57.157-100.528 -44.506  0.00  0.00     0.004 A 
BRANCH   9  12
ATOM     12  O   UNL d   1     -58.251 -98.756 -45.174  0.00  0.00    -0.328 OA
ATOM     13  C   UNL d   1     -59.061 -98.974 -45.263  0.00  0.00     0.181 C 
ENDBRANCH   9  12
ENDBRANCH   4   6
BRANCH   1  14
ATOM     14  C   UNL d   1     -55.163-101.067 -44.647  0.00  0.00     0.222 C 
ATOM     15  S   UNL d   1     -54.762-100.379 -44.935  0.00  0.00    -0.037 SA
BRANCH  14  16
ATOM     16  N   UNL d   1     -55.290-101.723 -45.166  0.00  0.00    -0.214 NA
ATOM     17  C   UNL d   1     -54.713-101.925 -45.730  0.00  0.00     0.122 C 
ENDBRANCH  14  16
ENDBRANCH   1  14
BRANCH   3  18
ATOM     18  C   UNL d   1     -55.294-101.685 -41.794  0.00  0.00     0.019 A 
ATOM     19  C   UNL d   1     -55.455-102.473 -41.620  0.00  0.00     0.002 A 
ATOM     20  C   UNL d   1     -55.255-102.777 -40.867  0.00  0.00     0.000 A 
ATOM     21  C   UNL d   1     -54.903-102.293 -40.310  0.00  0.00     0.000 A 
ATOM     22  C   UNL d   1     -54.749-101.505 -40.502  0.00  0.00     0.000 A 
ATOM     23  C   UNL d   1     -54.712-102.817 -39.416  0.00  0.00     0.000 C 
ATOM     24  C   UNL d   1     -54.940-101.205 -41.230  0.00  0.00     0.002 A 
ENDBRANCH   3  18
TORSDOF 5
ENDMDL
MODEL 2
REMARK VINA RESULT:      80.1      1.412      1.861
REMARK  5 active torsions:
REMARK  status: ('A' for Active; 'I' for Inactive)
REMARK    1  A    between atoms: C_5  and  N_1 
REMARK    2  A    between atoms: C_7  and  C_3 
REMARK    3  A    between atoms: C_8  and  C_4 
REMARK    4  A    between atoms: N_10  and  C_5 
REMARK    5  A    between atoms: O_21  and  C_15 
ROOT
ATOM      1  N   UNL d   1     -55.354-102.044 -42.863  0.00  0.00    -0.203 N 
ATOM      2  N   UNL d   1     -55.285-102.417 -42.128  0.00  0.00    -0.163 NA
ATOM      3  C   UNL d   1     -55.271-101.865 -41.540  0.00  0.00     0.103 A 
ATOM      4  C   UNL d   1     -55.385-101.220 -42.735  0.00  0.00     0.087 A 
ATOM      5  C   UNL d   1     -55.334-101.102 -41.917  0.00  0.00     0.040 A 
ENDROOT
BRANCH   4   6
ATOM      6  C   UNL d   1     -55.452-100.611 -43.291  0.00  0.00     0.018 A 
ATOM      7  C   UNL d   1     -56.165-100.221 -43.406  0.00  0.00     0.004 A 
ATOM      8  C   UNL d   1     -56.231 -99.616 -43.960  0.00  0.00     0.024 A 
ATOM      9  C   UNL d   1     -55.574 -99.399 -44.403  0.00  0.00     0.094 A 
ATOM     10  C   UNL d   1     -54.871 -99.772 -44.301  0.00  0.00     0.024 A 
ATOM     11  C   UNL d   1     -54.803-100.381 -43.745  0.00  0.00     0.004 A 
BRANCH   9  12
ATOM     12  O   UNL d   1     -55.663 -98.779 -44.962  0.00  0.00    -0.328 OA
ATOM     13  C   UNL d   1     -55.249 -98.800 -45.698  0.00  0.00     0.181 C 
ENDBRANCH   9  12
ENDBRANCH   4   6
BRANCH   1  14
ATOM     14  C   UNL d   1     -55.387-102.422 -43.616  0.00  0.00     0.222 C 
ATOM     15  S   UNL d   1     -54.712-102.384 -44.125  0.00  0.00    -0.037 SA
BRANCH  14  16
ATOM     16  N   UNL d   1     -56.079-102.837 -43.872  0.00  0.00    -0.214 NA
ATOM     17  C   UNL d   1     -56.825-102.471 -43.824  0.00  0.00     0.122 C 
ENDBRANCH  14  16
ENDBRANCH   1  14
BRANCH   3  18
ATOM     18  C   UNL d   1     -55.207-102.034 -40.725  0.00  0.00     0.019 A 
ATOM     19  C   UNL d   1     -55.535-102.721 -40.410  0.00  0.00     0.002 A 
ATOM     20  C   UNL d   1     -55.460-102.873 -39.591  0.00  0.00     0.000 A 
ATOM     21  C   UNL d   1     -55.066-102.343 -39.111  0.00  0.00     0.000 A 
ATOM     22  C   UNL d   1     -54.744-101.661 -39.444  0.00  0.00     0.000 A 
ATOM     23  C   UNL d   1     -55.055-102.671 -38.109  0.00  0.00     0.000 C 
ATOM     24  C   UNL d   1     -54.812-101.507 -40.237  0.00  0.00     0.002 A 
ENDBRANCH   3  18
TORSDOF 5
ENDMDL
