MODEL 1
REMARK VINA RESULT:      27.3      0.000      0.000
REMARK  6 active torsions:
REMARK  status: ('A' for Active; 'I' for Inactive)
REMARK    1  A    between atoms: S_2  and  C_1 
REMARK    2  A    between atoms: C_7  and  S_2 
REMARK    3  A    between atoms: N_10  and  C_6 
REMARK    4  A    between atoms: C_18  and  N_10 
REMARK    5  A    between atoms: N_14  and  C_19 
REMARK    6  A    between atoms: C_19  and  C_18 
ROOT
ATOM      1  C   UNL d   1      14.372  13.204  -1.299  0.00  0.00     0.187 A 
ATOM      2  N   UNL d   1      13.995  12.998  -1.964  0.00  0.00    -0.208 NA
ATOM      3  C   UNL d   1      14.437  12.556  -0.841  0.00  0.00     0.118 A 
ATOM      4  S   UNL d   1      14.097  11.949  -1.229  0.00  0.00    -0.035 SA
ATOM      5  C   UNL d   1      13.823  12.223  -1.926  0.00  0.00     0.196 A 
ATOM      6 CL   UNL d   1      14.790  12.518  -0.101  0.00  0.00    -0.073 Cl
ENDROOT
BRANCH   1   7
ATOM      7  S   UNL d   1      14.649  13.952  -1.111  0.00  0.00     0.228 S 
ATOM      8  O   UNL d   1      14.457  13.881  -0.180  0.00  0.00    -0.216 OA
ATOM      9  O   UNL d   1      14.856  14.069  -2.017  0.00  0.00    -0.216 OA
BRANCH   7  10
ATOM     10  C   UNL d   1      14.930  14.704  -0.940  0.00  0.00     0.089 A 
ATOM     11  C   UNL d   1      15.246  14.867  -0.196  0.00  0.00     0.011 A 
ATOM     12  C   UNL d   1      15.529  15.619  -0.020  0.00  0.00     0.001 A 
ATOM     13  C   UNL d   1      15.496  16.212  -0.594  0.00  0.00     0.000 A 
ATOM     14  C   UNL d   1      15.179  16.052  -1.343  0.00  0.00     0.001 A 
ATOM     15  C   UNL d   1      15.779  16.968  -0.420  0.00  0.00     0.000 C 
ATOM     16  C   UNL d   1      14.897  15.292  -1.509  0.00  0.00     0.011 A 
ENDBRANCH   7  10
ENDBRANCH   1   7
BRANCH   5  17
ATOM     17  N   UNL d   1      13.432  11.779  -2.500  0.00  0.00    -0.218 NA
BRANCH  17  18
ATOM     18  C   UNL d   1      13.093  12.149  -3.138  0.00  0.00     0.120 C 
BRANCH  18  19
ATOM     19  C   UNL d   1      13.108  11.788  -3.888  0.00  0.00     0.101 C 
BRANCH  19  20
ATOM     20  N   UNL d   1      13.063  12.248  -4.570  0.00  0.00    -0.299 N 
ATOM     21  C   UNL d   1      13.175  11.909  -5.306  0.00  0.00     0.100 C 
ATOM     22  C   UNL d   1      12.903  13.055  -4.512  0.00  0.00     0.100 C 
ENDBRANCH  19  20
ENDBRANCH  18  19
ENDBRANCH  17  18
ENDBRANCH   5  17
TORSDOF 6
ENDMDL
