MODEL 1
REMARK VINA RESULT:      22.4      0.000      0.000
REMARK  3 active torsions:
REMARK  status: ('A' for Active; 'I' for Inactive)
REMARK    1  A    between atoms: C_7  and  N_1 
REMARK    2  A    between atoms: C_6  and  C_3 
REMARK    3  A    between atoms: O_16  and  C_13 
ROOT
ATOM      1  N   UNL d   1     -51.540  25.209  33.495  0.00  0.00    -0.273 N 
ATOM      2  C   UNL d   1     -50.784  24.899  33.377  0.00  0.00     0.265 A 
ATOM      3  C   UNL d   1     -51.000  26.533  33.477  0.00  0.00     0.087 A 
ATOM      4  C   UNL d   1     -51.648  26.026  33.545  0.00  0.00     0.089 A 
ATOM      5  C   UNL d   1     -50.136  25.406  33.309  0.00  0.00     0.069 A 
ATOM      6  O   UNL d   1     -50.676  24.082  33.327  0.00  0.00    -0.267 OA
ENDROOT
BRANCH   1   7
ATOM      7  C   UNL d   1     -52.188  24.702  33.562  0.00  0.00     0.067 A 
ATOM      8  C   UNL d   1     -52.909  24.996  33.828  0.00  0.00     0.020 A 
ATOM      9  C   UNL d   1     -53.549  24.495  33.895  0.00  0.00     0.026 A 
ATOM     10  C   UNL d   1     -53.479  23.692  33.697  0.00  0.00     0.094 A 
ATOM     11  C   UNL d   1     -52.753  23.402  33.431  0.00  0.00     0.026 A 
ATOM     12  C   UNL d   1     -52.106  23.908  33.363  0.00  0.00     0.020 A 
BRANCH  10  13
ATOM     13  O   UNL d   1     -54.129  23.189  33.766  0.00  0.00    -0.328 OA
ATOM     14  C   UNL d   1     -54.806  23.317  33.310  0.00  0.00     0.181 C 
ENDBRANCH  10  13
ENDBRANCH   1   7
BRANCH   3  15
ATOM     15  C   UNL d   1     -50.888  27.429  33.500  0.00  0.00     0.212 C 
ATOM     16  O   UNL d   1     -50.075  27.779  33.714  0.00  0.00    -0.644 OA
ATOM     17  O   UNL d   1     -51.584  27.984  33.310  0.00  0.00    -0.644 OA
ENDBRANCH   3  15
TORSDOF 3
ENDMDL
