MODEL 1
REMARK VINA RESULT:      12.1      0.000      0.000
REMARK  1 active torsions:
REMARK  status: ('A' for Active; 'I' for Inactive)
REMARK    1  A    between atoms: C_4  and  C_1 
ROOT
ATOM      1  C   UNL d   1      58.106  49.689  50.329  0.00  0.00     0.168 A 
ATOM      2  N   UNL d   1      58.755  49.689  49.824  0.00  0.00    -0.225 NA
ATOM      3  N   UNL d   1      58.389  49.686  51.110  0.00  0.00    -0.225 NA
ATOM      4  C   UNL d   1      59.443  49.687  50.290  0.00  0.00     0.101 A 
ATOM      5  C   UNL d   1      59.214  49.685  51.083  0.00  0.00     0.101 A 
ATOM      6  C   UNL d   1      60.247  49.686  50.088  0.00  0.00     0.021 A 
ATOM      7  C   UNL d   1      59.800  49.682  51.676  0.00  0.00     0.021 A 
ATOM      8  C   UNL d   1      60.822  49.683  50.678  0.00  0.00     0.002 A 
ATOM      9  C   UNL d   1      60.599  49.681  51.472  0.00  0.00     0.002 A 
ENDROOT
BRANCH   1  10
ATOM     10  C   UNL d   1      57.313  49.691  50.106  0.00  0.00     0.065 A 
ATOM     11  S   UNL d   1      56.681  49.687  50.457  0.00  0.00    -0.083 SA
ATOM     12  C   UNL d   1      56.068  49.691  50.081  0.00  0.00     0.035 A 
ATOM     13  C   UNL d   1      56.076  49.699  49.364  0.00  0.00     0.008 A 
ATOM     14  C   UNL d   1      56.706  49.704  49.014  0.00  0.00     0.010 A 
ENDBRANCH   1  10
TORSDOF 1
ENDMDL
