MODEL 1
REMARK VINA RESULT:      37.3      0.000      0.000
REMARK  3 active torsions:
REMARK  status: ('A' for Active; 'I' for Inactive)
REMARK    1  A    between atoms: C_8  and  C_1 
REMARK    2  A    between atoms: N_5  and  C_2 
REMARK       I    between atoms: C_7  and  N_5 
REMARK    3  A    between atoms: C_10  and  C_7 
ROOT
ATOM      1  C   UNL d   1     -55.085-102.162 -41.061  0.00  0.00     0.212 A 
ATOM      2  C   UNL d   1     -54.917-101.397 -42.143  0.00  0.00     0.297 A 
ATOM      3  O   UNL d   1     -55.149-101.389 -41.352  0.00  0.00    -0.253 OA
ATOM      4  N   UNL d   1     -54.815-102.636 -41.672  0.00  0.00    -0.119 NA
ATOM      5  N   UNL d   1     -54.712-102.165 -42.340  0.00  0.00    -0.101 NA
ENDROOT
BRANCH   2   6
ATOM      6  N   UNL d   1     -54.898-100.740 -42.642  0.00  0.00    -0.165 NA
ATOM      7  C   UNL d   1     -54.853-100.838 -43.450  0.00  0.00     0.282 C 
ATOM      8  O   UNL d   1     -54.826-101.595 -43.782  0.00  0.00    -0.265 OA
BRANCH   7   9
ATOM      9  C   UNL d   1     -54.835-100.178 -43.950  0.00  0.00     0.060 A 
ATOM     10  C   UNL d   1     -54.827-100.270 -44.770  0.00  0.00     0.034 A 
ATOM     11  C   UNL d   1     -54.808 -99.610 -45.261  0.00  0.00     0.140 A 
ATOM     12  F   UNL d   1     -54.800 -99.703 -46.094  0.00  0.00    -0.204 F 
ATOM     13  C   UNL d   1     -54.797 -98.851 -44.938  0.00  0.00     0.030 A 
ATOM     14  C   UNL d   1     -54.805 -98.760 -44.121  0.00  0.00     0.003 A 
ATOM     15  C   UNL d   1     -54.823 -99.415 -43.628  0.00  0.00     0.005 A 
ENDBRANCH   7   9
ENDBRANCH   2   6
BRANCH   1  16
ATOM     16  C   UNL d   1     -55.264-102.402 -40.288  0.00  0.00     0.072 A 
ATOM     17  S   UNL d   1     -54.752-102.391 -39.648  0.00  0.00    -0.083 SA
ATOM     18  C   UNL d   1     -55.160-102.677 -38.991  0.00  0.00     0.035 A 
ATOM     19  C   UNL d   1     -55.931-102.865 -39.229  0.00  0.00     0.008 A 
ATOM     20  C   UNL d   1     -55.994-102.693 -40.036  0.00  0.00     0.011 A 
ENDBRANCH   1  16
TORSDOF 3
ENDMDL
MODEL 2
REMARK VINA RESULT:      39.6      1.439      2.116
REMARK  3 active torsions:
REMARK  status: ('A' for Active; 'I' for Inactive)
REMARK    1  A    between atoms: C_8  and  C_1 
REMARK    2  A    between atoms: N_5  and  C_2 
REMARK       I    between atoms: C_7  and  N_5 
REMARK    3  A    between atoms: C_10  and  C_7 
ROOT
ATOM      1  C   UNL d   1     -55.164-102.180 -39.021  0.00  0.00     0.212 A 
ATOM      2  C   UNL d   1     -55.056-101.892 -40.321  0.00  0.00     0.297 A 
ATOM      3  O   UNL d   1     -54.994-101.576 -39.562  0.00  0.00    -0.253 OA
ATOM      4  N   UNL d   1     -55.328-102.859 -39.450  0.00  0.00    -0.119 NA
ATOM      5  N   UNL d   1     -55.262-102.681 -40.252  0.00  0.00    -0.101 NA
ENDROOT
BRANCH   2   6
ATOM      6  N   UNL d   1     -54.930-101.476 -41.022  0.00  0.00    -0.165 NA
ATOM      7  C   UNL d   1     -55.142-101.804 -41.739  0.00  0.00     0.282 C 
ATOM      8  O   UNL d   1     -55.485-102.556 -41.773  0.00  0.00    -0.265 OA
BRANCH   7   9
ATOM      9  C   UNL d   1     -55.016-101.386 -42.442  0.00  0.00     0.060 A 
ATOM     10  C   UNL d   1     -55.058-101.767 -43.173  0.00  0.00     0.034 A 
ATOM     11  C   UNL d   1     -54.932-101.347 -43.868  0.00  0.00     0.140 A 
ATOM     12  F   UNL d   1     -54.975-101.733 -44.611  0.00  0.00    -0.204 F 
ATOM     13  C   UNL d   1     -54.761-100.540 -43.841  0.00  0.00     0.030 A 
ATOM     14  C   UNL d   1     -54.719-100.160 -43.113  0.00  0.00     0.003 A 
ATOM     15  C   UNL d   1     -54.845-100.576 -42.418  0.00  0.00     0.005 A 
ENDBRANCH   7   9
ENDBRANCH   2   6
BRANCH   1  16
ATOM     16  C   UNL d   1     -55.165-102.102 -38.196  0.00  0.00     0.072 A 
ATOM     17  S   UNL d   1     -54.892-101.455 -37.771  0.00  0.00    -0.083 SA
ATOM     18  C   UNL d   1     -54.999-101.615 -36.970  0.00  0.00     0.035 A 
ATOM     19  C   UNL d   1     -55.341-102.366 -36.900  0.00  0.00     0.008 A 
ATOM     20  C   UNL d   1     -55.443-102.667 -37.663  0.00  0.00     0.011 A 
ENDBRANCH   1  16
TORSDOF 3
ENDMDL
