MODEL 1
REMARK VINA RESULT:     111.2      0.000      0.000
REMARK  4 active torsions:
REMARK  status: ('A' for Active; 'I' for Inactive)
REMARK    1  A    between atoms: N_10  and  C_3 
REMARK    2  A    between atoms: C_13  and  C_5 
REMARK    3  A    between atoms: C_12  and  C_9 
REMARK    4  A    between atoms: C_19  and  N_11 
ROOT
ATOM      1  N   UNL d   1     -56.137-100.774 -42.913  0.00  0.00    -0.196 N 
ATOM      2  C   UNL d   1     -56.275-100.444 -43.660  0.00  0.00     0.167 A 
ATOM      3  C   UNL d   1     -55.668-101.438 -42.853  0.00  0.00     0.152 A 
ATOM      4  N   UNL d   1     -56.934 -99.770 -42.336  0.00  0.00    -0.163 NA
ATOM      5  C   UNL d   1     -56.736 -99.788 -43.738  0.00  0.00     0.055 A 
ATOM      6  N   UNL d   1     -55.941-100.788 -44.327  0.00  0.00    -0.231 NA
ATOM      7  C   UNL d   1     -55.332-101.784 -43.523  0.00  0.00     0.052 A 
ATOM      8  C   UNL d   1     -57.070 -99.445 -43.071  0.00  0.00     0.104 A 
ATOM      9  C   UNL d   1     -55.468-101.459 -44.258  0.00  0.00     0.063 A 
ATOM     10  C   UNL d   1     -57.538 -98.782 -43.136  0.00  0.00     0.023 C 
ENDROOT
BRANCH   3  11
ATOM     11  N   UNL d   1     -55.525-101.778 -42.083  0.00  0.00    -0.286 N 
ATOM     12  C   UNL d   1     -54.828-101.632 -41.631  0.00  0.00     0.101 A 
ATOM     13  C   UNL d   1     -54.736-101.993 -40.875  0.00  0.00     0.100 A 
ATOM     14  N   UNL d   1     -55.341-102.505 -40.563  0.00  0.00    -0.300 N 
ATOM     15  C   UNL d   1     -56.035-102.646 -41.022  0.00  0.00     0.100 A 
ATOM     16  C   UNL d   1     -56.133-102.282 -41.790  0.00  0.00     0.101 A 
BRANCH  14  17
ATOM     17  C   UNL d   1     -55.257-102.870 -39.808  0.00  0.00     0.080 C 
ATOM     18  C   UNL d   1     -55.778-102.643 -39.180  0.00  0.00     0.021 C 
ENDBRANCH  14  17
ENDBRANCH   3  11
BRANCH   9  19
ATOM     19  C   UNL d   1     -55.123-101.813 -44.952  0.00  0.00     0.036 C 
ATOM     20  C   UNL d   1     -54.780-102.157 -45.639  0.00  0.00     0.006 C 
ATOM     21  C   UNL d   1     -55.177-102.656 -45.070  0.00  0.00     0.006 C 
ATOM     22  C   UNL d   1     -54.729-101.317 -45.517  0.00  0.00     0.006 C 
ENDBRANCH   9  19
BRANCH   5  23
ATOM     23  C   UNL d   1     -56.873 -99.462 -44.478  0.00  0.00     0.004 A 
ATOM     24  C   UNL d   1     -57.642 -99.349 -44.730  0.00  0.00     0.000 A 
ATOM     25  C   UNL d   1     -57.781 -99.019 -45.476  0.00  0.00     0.000 A 
ATOM     26  C   UNL d   1     -57.146 -98.812 -45.949  0.00  0.00     0.000 A 
ATOM     27  C   UNL d   1     -56.380 -98.931 -45.683  0.00  0.00     0.000 A 
ATOM     28  C   UNL d   1     -56.244 -99.256 -44.948  0.00  0.00     0.000 A 
ENDBRANCH   5  23
TORSDOF 4
ENDMDL
