MODEL 1
REMARK VINA RESULT:      -3.1      0.000      0.000
REMARK  1 active torsions:
REMARK  status: ('A' for Active; 'I' for Inactive)
REMARK    1  A    between atoms: C_7  and  C_1 
ROOT
ATOM      1  C   UNL d   1      31.343  16.813 -24.002  0.00  0.00     0.102 A 
ATOM      2  C   UNL d   1      30.893  17.343 -24.421  0.00  0.00     0.303 A 
ATOM      3  C   UNL d   1      30.976  16.203 -23.578  0.00  0.00     0.011 A 
ATOM      4  O   UNL d   1      30.068  17.273 -24.424  0.00  0.00    -0.273 OA
ATOM      5  C   UNL d   1      29.703  16.664 -24.002  0.00  0.00     0.106 A 
ATOM      6  C   UNL d   1      30.153  16.134 -23.583  0.00  0.00     0.023 A 
ATOM      7  C   UNL d   1      28.877  16.593 -24.005  0.00  0.00     0.067 A 
ATOM      8  O   UNL d   1      31.254  17.950 -24.842  0.00  0.00    -0.259 OA
ATOM      9  C   UNL d   1      29.785  15.524 -23.159  0.00  0.00     0.005 A 
ATOM     10  C   UNL d   1      28.509  15.983 -23.582  0.00  0.00     0.198 A 
ATOM     11  C   UNL d   1      28.959  15.453 -23.162  0.00  0.00     0.042 A 
ATOM     12  O   UNL d   1      27.697  15.839 -23.530  0.00  0.00    -0.286 OA
ENDROOT
BRANCH   1  13
ATOM     13  C   UNL d   1      32.162  16.881 -23.996  0.00  0.00     0.201 C 
ATOM     14  O   UNL d   1      32.615  16.493 -24.571  0.00  0.00    -0.286 OA
ATOM     15  C   UNL d   1      32.532  17.325 -23.432  0.00  0.00     0.045 C 
ENDBRANCH   1  13
TORSDOF 1
ENDMDL
MODEL 2
REMARK VINA RESULT:      -3.1      0.818      3.063
REMARK  1 active torsions:
REMARK  status: ('A' for Active; 'I' for Inactive)
REMARK    1  A    between atoms: C_7  and  C_1 
ROOT
ATOM      1  C   UNL d   1      29.475  16.607 -24.189  0.00  0.00     0.102 A 
ATOM      2  C   UNL d   1      29.509  17.305 -24.602  0.00  0.00     0.303 A 
ATOM      3  C   UNL d   1      30.161  16.298 -23.843  0.00  0.00     0.011 A 
ATOM      4  O   UNL d   1      30.229  17.707 -24.676  0.00  0.00    -0.273 OA
ATOM      5  C   UNL d   1      30.912  17.398 -24.330  0.00  0.00     0.106 A 
ATOM      6  C   UNL d   1      30.879  16.699 -23.917  0.00  0.00     0.023 A 
ATOM      7  C   UNL d   1      31.633  17.800 -24.404  0.00  0.00     0.067 A 
ATOM      8  O   UNL d   1      28.829  17.614 -24.947  0.00  0.00    -0.259 OA
ATOM      9  C   UNL d   1      31.565  16.391 -23.571  0.00  0.00     0.005 A 
ATOM     10  C   UNL d   1      32.320  17.491 -24.057  0.00  0.00     0.198 A 
ATOM     11  C   UNL d   1      32.287  16.793 -23.645  0.00  0.00     0.042 A 
ATOM     12  O   UNL d   1      33.077  17.824 -24.081  0.00  0.00    -0.286 OA
ENDROOT
BRANCH   1  13
ATOM     13  C   UNL d   1      28.761  16.205 -24.114  0.00  0.00     0.201 C 
ATOM     14  O   UNL d   1      28.541  15.639 -24.677  0.00  0.00    -0.286 OA
ATOM     15  C   UNL d   1      28.269  16.359 -23.493  0.00  0.00     0.045 C 
ENDBRANCH   1  13
TORSDOF 1
ENDMDL
MODEL 3
REMARK VINA RESULT:      -3.0      0.874      1.420
REMARK  1 active torsions:
REMARK  status: ('A' for Active; 'I' for Inactive)
REMARK    1  A    between atoms: C_7  and  C_1 
ROOT
ATOM      1  C   UNL d   1      31.490  17.178 -24.067  0.00  0.00     0.102 A 
ATOM      2  C   UNL d   1      31.624  16.548 -23.571  0.00  0.00     0.303 A 
ATOM      3  C   UNL d   1      30.725  17.331 -24.342  0.00  0.00     0.011 A 
ATOM      4  O   UNL d   1      30.993  16.062 -23.342  0.00  0.00    -0.273 OA
ATOM      5  C   UNL d   1      30.230  16.217 -23.618  0.00  0.00     0.106 A 
ATOM      6  C   UNL d   1      30.097  16.846 -24.114  0.00  0.00     0.023 A 
ATOM      7  C   UNL d   1      29.600  15.730 -23.389  0.00  0.00     0.067 A 
ATOM      8  O   UNL d   1      32.383  16.393 -23.296  0.00  0.00    -0.259 OA
ATOM      9  C   UNL d   1      29.331  17.000 -24.389  0.00  0.00     0.005 A 
ATOM     10  C   UNL d   1      28.833  15.884 -23.665  0.00  0.00     0.198 A 
ATOM     11  C   UNL d   1      28.700  16.513 -24.161  0.00  0.00     0.042 A 
ATOM     12  O   UNL d   1      28.150  15.453 -23.489  0.00  0.00    -0.286 OA
ENDROOT
BRANCH   1  13
ATOM     13  C   UNL d   1      32.114  17.662 -24.295  0.00  0.00     0.201 C 
ATOM     14  O   UNL d   1      32.324  18.316 -23.833  0.00  0.00    -0.286 OA
ATOM     15  C   UNL d   1      32.526  17.506 -24.972  0.00  0.00     0.045 C 
ENDBRANCH   1  13
TORSDOF 1
ENDMDL
MODEL 4
REMARK VINA RESULT:      -2.9      1.055      3.315
REMARK  1 active torsions:
REMARK  status: ('A' for Active; 'I' for Inactive)
REMARK    1  A    between atoms: C_7  and  C_1 
ROOT
ATOM      1  C   UNL d   1      29.719  16.371 -23.915  0.00  0.00     0.102 A 
ATOM      2  C   UNL d   1      30.156  16.013 -23.332  0.00  0.00     0.303 A 
ATOM      3  C   UNL d   1      30.073  16.935 -24.408  0.00  0.00     0.011 A 
ATOM      4  O   UNL d   1      30.953  16.213 -23.231  0.00  0.00    -0.273 OA
ATOM      5  C   UNL d   1      31.304  16.776 -23.723  0.00  0.00     0.106 A 
ATOM      6  C   UNL d   1      30.868  17.134 -24.306  0.00  0.00     0.023 A 
ATOM      7  C   UNL d   1      32.102  16.976 -23.622  0.00  0.00     0.067 A 
ATOM      8  O   UNL d   1      29.808  15.452 -22.841  0.00  0.00    -0.259 OA
ATOM      9  C   UNL d   1      31.221  17.698 -24.799  0.00  0.00     0.005 A 
ATOM     10  C   UNL d   1      32.456  17.541 -24.115  0.00  0.00     0.198 A 
ATOM     11  C   UNL d   1      32.019  17.899 -24.698  0.00  0.00     0.042 A 
ATOM     12  O   UNL d   1      33.241  17.798 -24.085  0.00  0.00    -0.286 OA
ENDROOT
BRANCH   1  13
ATOM     13  C   UNL d   1      28.927  16.175 -24.018  0.00  0.00     0.201 C 
ATOM     14  O   UNL d   1      28.711  15.588 -24.560  0.00  0.00    -0.286 OA
ATOM     15  C   UNL d   1      28.354  16.552 -23.592  0.00  0.00     0.045 C 
ENDBRANCH   1  13
TORSDOF 1
ENDMDL
MODEL 5
REMARK VINA RESULT:      -2.8      5.043      6.434
REMARK  1 active torsions:
REMARK  status: ('A' for Active; 'I' for Inactive)
REMARK    1  A    between atoms: C_7  and  C_1 
ROOT
ATOM      1  C   UNL d   1      32.687  22.412 -21.243  0.00  0.00     0.102 A 
ATOM      2  C   UNL d   1      32.573  21.971 -20.571  0.00  0.00     0.303 A 
ATOM      3  C   UNL d   1      32.883  22.036 -21.955  0.00  0.00     0.011 A 
ATOM      4  O   UNL d   1      32.653  21.147 -20.599  0.00  0.00    -0.273 OA
ATOM      5  C   UNL d   1      32.849  20.774 -21.309  0.00  0.00     0.106 A 
ATOM      6  C   UNL d   1      32.963  21.215 -21.981  0.00  0.00     0.023 A 
ATOM      7  C   UNL d   1      32.930  19.950 -21.337  0.00  0.00     0.067 A 
ATOM      8  O   UNL d   1      32.377  22.340 -19.863  0.00  0.00    -0.259 OA
ATOM      9  C   UNL d   1      33.160  20.839 -22.693  0.00  0.00     0.005 A 
ATOM     10  C   UNL d   1      33.127  19.574 -22.049  0.00  0.00     0.198 A 
ATOM     11  C   UNL d   1      33.241  20.015 -22.721  0.00  0.00     0.042 A 
ATOM     12  O   UNL d   1      33.227  18.762 -22.166  0.00  0.00    -0.286 OA
ENDROOT
BRANCH   1  13
ATOM     13  C   UNL d   1      32.608  23.230 -21.219  0.00  0.00     0.201 C 
ATOM     14  O   UNL d   1      33.171  23.691 -20.825  0.00  0.00    -0.286 OA
ATOM     15  C   UNL d   1      31.981  23.590 -21.579  0.00  0.00     0.045 C 
ENDBRANCH   1  13
TORSDOF 1
ENDMDL
MODEL 6
REMARK VINA RESULT:      -2.3      7.112      8.260
REMARK  1 active torsions:
REMARK  status: ('A' for Active; 'I' for Inactive)
REMARK    1  A    between atoms: C_7  and  C_1 
ROOT
ATOM      1  C   UNL d   1      32.416  22.886 -20.795  0.00  0.00     0.102 A 
ATOM      2  C   UNL d   1      31.825  23.423 -20.648  0.00  0.00     0.303 A 
ATOM      3  C   UNL d   1      32.891  22.614 -20.174  0.00  0.00     0.011 A 
ATOM      4  O   UNL d   1      31.700  23.698 -19.877  0.00  0.00    -0.273 OA
ATOM      5  C   UNL d   1      32.175  23.427 -19.259  0.00  0.00     0.106 A 
ATOM      6  C   UNL d   1      32.765  22.890 -19.406  0.00  0.00     0.023 A 
ATOM      7  C   UNL d   1      32.049  23.702 -18.487  0.00  0.00     0.067 A 
ATOM      8  O   UNL d   1      31.351  23.694 -21.263  0.00  0.00    -0.259 OA
ATOM      9  C   UNL d   1      33.241  22.618 -18.784  0.00  0.00     0.005 A 
ATOM     10  C   UNL d   1      32.525  23.431 -17.865  0.00  0.00     0.198 A 
ATOM     11  C   UNL d   1      33.116  22.894 -18.012  0.00  0.00     0.042 A 
ATOM     12  O   UNL d   1      32.470  23.651 -17.070  0.00  0.00    -0.286 OA
ENDROOT
BRANCH   1  13
ATOM     13  C   UNL d   1      32.543  22.610 -21.560  0.00  0.00     0.201 C 
ATOM     14  O   UNL d   1      32.246  21.873 -21.791  0.00  0.00    -0.286 OA
ATOM     15  C   UNL d   1      32.957  23.056 -22.091  0.00  0.00     0.045 C 
ENDBRANCH   1  13
TORSDOF 1
ENDMDL
MODEL 7
REMARK VINA RESULT:      -2.1      2.192      3.639
REMARK  1 active torsions:
REMARK  status: ('A' for Active; 'I' for Inactive)
REMARK    1  A    between atoms: C_7  and  C_1 
ROOT
ATOM      1  C   UNL d   1      32.447  16.952 -23.878  0.00  0.00     0.102 A 
ATOM      2  C   UNL d   1      32.104  17.483 -24.388  0.00  0.00     0.303 A 
ATOM      3  C   UNL d   1      32.820  17.223 -23.190  0.00  0.00     0.011 A 
ATOM      4  O   UNL d   1      32.129  18.294 -24.218  0.00  0.00    -0.273 OA
ATOM      5  C   UNL d   1      32.501  18.562 -23.531  0.00  0.00     0.106 A 
ATOM      6  C   UNL d   1      32.844  18.031 -23.022  0.00  0.00     0.023 A 
ATOM      7  C   UNL d   1      32.525  19.372 -23.361  0.00  0.00     0.067 A 
ATOM      8  O   UNL d   1      31.733  17.218 -25.072  0.00  0.00    -0.259 OA
ATOM      9  C   UNL d   1      33.217  18.301 -22.333  0.00  0.00     0.005 A 
ATOM     10  C   UNL d   1      32.898  19.643 -22.672  0.00  0.00     0.198 A 
ATOM     11  C   UNL d   1      33.241  19.112 -22.163  0.00  0.00     0.042 A 
ATOM     12  O   UNL d   1      32.968  20.429 -22.426  0.00  0.00    -0.286 OA
ENDROOT
BRANCH   1  13
ATOM     13  C   UNL d   1      32.425  16.147 -24.044  0.00  0.00     0.201 C 
ATOM     14  O   UNL d   1      33.002  15.807 -24.530  0.00  0.00    -0.286 OA
ATOM     15  C   UNL d   1      31.842  15.683 -23.735  0.00  0.00     0.045 C 
ENDBRANCH   1  13
TORSDOF 1
ENDMDL
MODEL 8
REMARK VINA RESULT:      -2.1      6.297      7.208
REMARK  1 active torsions:
REMARK  status: ('A' for Active; 'I' for Inactive)
REMARK    1  A    between atoms: C_7  and  C_1 
ROOT
ATOM      1  C   UNL d   1      32.825  22.197 -21.114  0.00  0.00     0.102 A 
ATOM      2  C   UNL d   1      33.095  21.542 -21.511  0.00  0.00     0.303 A 
ATOM      3  C   UNL d   1      32.691  22.903 -21.525  0.00  0.00     0.011 A 
ATOM      4  O   UNL d   1      33.235  21.581 -22.326  0.00  0.00    -0.273 OA
ATOM      5  C   UNL d   1      33.101  22.286 -22.735  0.00  0.00     0.106 A 
ATOM      6  C   UNL d   1      32.831  22.941 -22.338  0.00  0.00     0.023 A 
ATOM      7  C   UNL d   1      33.241  22.326 -23.550  0.00  0.00     0.067 A 
ATOM      8  O   UNL d   1      33.228  20.839 -21.105  0.00  0.00    -0.259 OA
ATOM      9  C   UNL d   1      32.698  23.648 -22.750  0.00  0.00     0.005 A 
ATOM     10  C   UNL d   1      33.107  23.033 -23.963  0.00  0.00     0.198 A 
ATOM     11  C   UNL d   1      32.838  23.688 -23.566  0.00  0.00     0.042 A 
ATOM     12  O   UNL d   1      33.220  23.160 -24.772  0.00  0.00    -0.286 OA
ENDROOT
BRANCH   1  13
ATOM     13  C   UNL d   1      32.685  22.161 -20.304  0.00  0.00     0.201 C 
ATOM     14  O   UNL d   1      31.976  21.842 -20.019  0.00  0.00    -0.286 OA
ATOM     15  C   UNL d   1      33.236  22.435 -19.782  0.00  0.00     0.045 C 
ENDBRANCH   1  13
TORSDOF 1
ENDMDL
MODEL 9
REMARK VINA RESULT:      -1.6      3.796      5.375
REMARK  1 active torsions:
REMARK  status: ('A' for Active; 'I' for Inactive)
REMARK    1  A    between atoms: C_7  and  C_1 
ROOT
ATOM      1  C   UNL d   1      33.059  20.982 -21.634  0.00  0.00     0.102 A 
ATOM      2  C   UNL d   1      33.168  20.408 -21.070  0.00  0.00     0.303 A 
ATOM      3  C   UNL d   1      33.009  20.772 -22.433  0.00  0.00     0.011 A 
ATOM      4  O   UNL d   1      33.229  19.614 -21.297  0.00  0.00    -0.273 OA
ATOM      5  C   UNL d   1      33.179  19.405 -22.094  0.00  0.00     0.106 A 
ATOM      6  C   UNL d   1      33.070  19.980 -22.658  0.00  0.00     0.023 A 
ATOM      7  C   UNL d   1      33.240  18.611 -22.321  0.00  0.00     0.067 A 
ATOM      8  O   UNL d   1      33.218  20.613 -20.276  0.00  0.00    -0.259 OA
ATOM      9  C   UNL d   1      33.020  19.770 -23.457  0.00  0.00     0.005 A 
ATOM     10  C   UNL d   1      33.190  18.400 -23.121  0.00  0.00     0.198 A 
ATOM     11  C   UNL d   1      33.081  18.975 -23.685  0.00  0.00     0.042 A 
ATOM     12  O   UNL d   1      33.240  17.637 -23.434  0.00  0.00    -0.286 OA
ENDROOT
BRANCH   1  13
ATOM     13  C   UNL d   1      32.998  21.772 -21.412  0.00  0.00     0.201 C 
ATOM     14  O   UNL d   1      32.687  21.973 -20.672  0.00  0.00    -0.286 OA
ATOM     15  C   UNL d   1      33.241  22.357 -21.914  0.00  0.00     0.045 C 
ENDBRANCH   1  13
TORSDOF 1
ENDMDL
