MODEL 1
REMARK VINA RESULT:      43.9      0.000      0.000
REMARK  3 active torsions:
REMARK  status: ('A' for Active; 'I' for Inactive)
REMARK    1  A    between atoms: S_4  and  C_1 
REMARK    2  A    between atoms: C_8  and  S_4 
REMARK    3  A    between atoms: C_9  and  C_8 
ROOT
ATOM      1  C   UNL d   1     -50.475  26.754  33.445  0.00  0.00     0.114 A 
ATOM      2  C   UNL d   1     -50.735  27.537  33.445  0.00  0.00     0.042 A 
ATOM      3  N   UNL d   1     -49.680  26.589  33.578  0.00  0.00    -0.217 NA
ATOM      4  N   UNL d   1     -49.407  27.988  33.710  0.00  0.00    -0.224 NA
ATOM      5  C   UNL d   1     -49.145  27.208  33.711  0.00  0.00     0.200 A 
ATOM      6  C   UNL d   1     -50.202  28.152  33.577  0.00  0.00     0.085 A 
ATOM      7  C   UNL d   1     -51.530  27.702  33.312  0.00  0.00     0.004 A 
ATOM      8  C   UNL d   1     -50.468  28.935  33.576  0.00  0.00     0.019 A 
ATOM      9  C   UNL d   1     -51.805  28.487  33.309  0.00  0.00     0.000 A 
ATOM     10  C   UNL d   1     -51.263  29.100  33.443  0.00  0.00     0.002 A 
ENDROOT
BRANCH   1  11
ATOM     11  S   UNL d   1     -51.014  26.133  33.311  0.00  0.00    -0.067 SA
BRANCH  11  12
ATOM     12  C   UNL d   1     -50.803  25.361  33.485  0.00  0.00     0.037 C 
BRANCH  12  13
ATOM     13  C   UNL d   1     -51.369  24.760  33.445  0.00  0.00     0.006 A 
ATOM     14  C   UNL d   1     -51.123  23.960  33.440  0.00  0.00     0.001 A 
ATOM     15  C   UNL d   1     -50.319  23.777  33.476  0.00  0.00     0.000 C 
ATOM     16  C   UNL d   1     -51.698  23.362  33.400  0.00  0.00     0.000 A 
ATOM     17  C   UNL d   1     -52.490  23.552  33.364  0.00  0.00     0.000 A 
ATOM     18  C   UNL d   1     -52.726  24.340  33.369  0.00  0.00     0.000 A 
ATOM     19  C   UNL d   1     -52.169  24.952  33.409  0.00  0.00     0.001 A 
ENDBRANCH  12  13
ENDBRANCH  11  12
ENDBRANCH   1  11
TORSDOF 3
ENDMDL
