MODEL 1
REMARK VINA RESULT:      -8.5      0.000      0.000
REMARK  8 active torsions:
REMARK  status: ('A' for Active; 'I' for Inactive)
REMARK    1  A    between atoms: C_2  and  S_1 
REMARK    2  A    between atoms: N_11  and  S_1 
REMARK    3  A    between atoms: N_6  and  C_17 
REMARK    4  A    between atoms: C_21  and  N_11 
REMARK    5  A    between atoms: O_16  and  C_12 
REMARK    6  A    between atoms: C_22  and  O_16 
REMARK    7  A    between atoms: C_17  and  C_18 
REMARK    8  A    between atoms: C_18  and  C_21 
ROOT
ATOM      1  C   UNL d   1      52.138  33.648  53.389  0.00  0.00     0.105 A 
ATOM      2  C   UNL d   1      52.506  32.911  53.316  0.00  0.00     0.014 A 
ATOM      3  C   UNL d   1      53.228  32.776  53.692  0.00  0.00     0.024 A 
ATOM      4  C   UNL d   1      52.494  34.250  53.838  0.00  0.00     0.015 A 
ATOM      5  C   UNL d   1      53.591  33.368  54.141  0.00  0.00     0.100 A 
ATOM      6  C   UNL d   1      53.216  34.111  54.212  0.00  0.00     0.025 A 
ATOM      7  C   UNL d   1      52.150  32.317  52.870  0.00  0.00     0.001 A 
ATOM      8  C   UNL d   1      53.594  32.050  53.623  0.00  0.00     0.002 A 
ATOM      9  C   UNL d   1      52.525  31.582  52.803  0.00  0.00     0.000 A 
ATOM     10  C   UNL d   1      53.247  31.447  53.178  0.00  0.00     0.000 A 
ENDROOT
BRANCH   1  11
ATOM     11  S   UNL d   1      51.416  33.787  53.015  0.00  0.00     0.285 S 
ATOM     12  O   UNL d   1      51.813  34.112  52.370  0.00  0.00    -0.198 OA
ATOM     13  O   UNL d   1      51.019  33.461  53.662  0.00  0.00    -0.198 OA
BRANCH  11  14
ATOM     14  N   UNL d   1      50.694  33.927  52.641  0.00  0.00    -0.157 NA
BRANCH  14  15
ATOM     15  C   UNL d   1      50.203  34.540  52.910  0.00  0.00     0.114 C 
BRANCH  15  16
ATOM     16  C   UNL d   1      49.509  34.717  52.501  0.00  0.00     0.041 C 
BRANCH  16  17
ATOM     17  C   UNL d   1      48.982  35.280  52.797  0.00  0.00     0.083 C 
BRANCH  17  18
ATOM     18  N   UNL d   1      48.308  35.486  52.368  0.00  0.00    -0.285 N 
ATOM     19  C   UNL d   1      48.092  35.181  51.631  0.00  0.00     0.183 A 
ATOM     20  N   UNL d   1      47.380  35.541  51.409  0.00  0.00    -0.222 NA
ATOM     21  C   UNL d   1      47.160  36.065  52.007  0.00  0.00     0.120 A 
ATOM     22  C   UNL d   1      47.736  36.030  52.600  0.00  0.00     0.102 A 
ENDBRANCH  17  18
ENDBRANCH  16  17
ENDBRANCH  15  16
ENDBRANCH  14  15
ENDBRANCH  11  14
ENDBRANCH   1  11
BRANCH   5  23
ATOM     23  O   UNL d   1      54.313  33.229  54.515  0.00  0.00    -0.305 OA
BRANCH  23  24
ATOM     24  C   UNL d   1      54.608  33.781  55.042  0.00  0.00     0.123 C 
ATOM     25  C   UNL d   1      55.394  33.730  55.287  0.00  0.00     0.029 C 
ENDBRANCH  23  24
ENDBRANCH   5  23
TORSDOF 8
ENDMDL
MODEL 2
REMARK VINA RESULT:      -8.4      0.822      1.891
REMARK  8 active torsions:
REMARK  status: ('A' for Active; 'I' for Inactive)
REMARK    1  A    between atoms: C_2  and  S_1 
REMARK    2  A    between atoms: N_11  and  S_1 
REMARK    3  A    between atoms: N_6  and  C_17 
REMARK    4  A    between atoms: C_21  and  N_11 
REMARK    5  A    between atoms: O_16  and  C_12 
REMARK    6  A    between atoms: C_22  and  O_16 
REMARK    7  A    between atoms: C_17  and  C_18 
REMARK    8  A    between atoms: C_18  and  C_21 
ROOT
ATOM      1  C   UNL d   1      52.144  33.142  53.240  0.00  0.00     0.105 A 
ATOM      2  C   UNL d   1      52.810  33.215  53.724  0.00  0.00     0.014 A 
ATOM      3  C   UNL d   1      53.309  32.568  53.834  0.00  0.00     0.024 A 
ATOM      4  C   UNL d   1      51.977  32.420  52.865  0.00  0.00     0.015 A 
ATOM      5  C   UNL d   1      53.152  31.844  53.465  0.00  0.00     0.100 A 
ATOM      6  C   UNL d   1      52.479  31.774  52.977  0.00  0.00     0.025 A 
ATOM      7  C   UNL d   1      52.972  33.933  54.095  0.00  0.00     0.001 A 
ATOM      8  C   UNL d   1      53.967  32.635  54.311  0.00  0.00     0.002 A 
ATOM      9  C   UNL d   1      53.640  33.998  54.578  0.00  0.00     0.000 A 
ATOM     10  C   UNL d   1      54.139  33.350  54.687  0.00  0.00     0.000 A 
ENDROOT
BRANCH   1  11
ATOM     11  S   UNL d   1      51.643  33.788  53.128  0.00  0.00     0.285 S 
ATOM     12  O   UNL d   1      52.085  34.018  52.472  0.00  0.00    -0.198 OA
ATOM     13  O   UNL d   1      51.199  33.557  53.786  0.00  0.00    -0.198 OA
BRANCH  11  14
ATOM     14  N   UNL d   1      51.141  34.433  53.016  0.00  0.00    -0.157 NA
BRANCH  14  15
ATOM     15  C   UNL d   1      50.362  34.310  52.757  0.00  0.00     0.114 C 
BRANCH  15  16
ATOM     16  C   UNL d   1      49.815  34.926  52.795  0.00  0.00     0.041 C 
BRANCH  16  17
ATOM     17  C   UNL d   1      49.070  34.844  52.449  0.00  0.00     0.083 C 
BRANCH  17  18
ATOM     18  N   UNL d   1      48.495  35.426  52.556  0.00  0.00    -0.285 N 
ATOM     19  C   UNL d   1      48.348  35.837  53.258  0.00  0.00     0.183 A 
ATOM     20  N   UNL d   1      47.726  36.366  53.114  0.00  0.00    -0.222 NA
ATOM     21  C   UNL d   1      47.493  36.280  52.328  0.00  0.00     0.120 A 
ATOM     22  C   UNL d   1      47.970  35.698  51.983  0.00  0.00     0.102 A 
ENDBRANCH  17  18
ENDBRANCH  16  17
ENDBRANCH  15  16
ENDBRANCH  14  15
ENDBRANCH  11  14
ENDBRANCH   1  11
BRANCH   5  23
ATOM     23  O   UNL d   1      53.654  31.199  53.577  0.00  0.00    -0.305 OA
BRANCH  23  24
ATOM     24  C   UNL d   1      53.425  30.459  53.312  0.00  0.00     0.123 C 
ATOM     25  C   UNL d   1      53.732  29.784  53.675  0.00  0.00     0.029 C 
ENDBRANCH  23  24
ENDBRANCH   5  23
TORSDOF 8
ENDMDL
MODEL 3
REMARK VINA RESULT:      -6.1      2.431      5.429
REMARK  8 active torsions:
REMARK  status: ('A' for Active; 'I' for Inactive)
REMARK    1  A    between atoms: C_2  and  S_1 
REMARK    2  A    between atoms: N_11  and  S_1 
REMARK    3  A    between atoms: N_6  and  C_17 
REMARK    4  A    between atoms: C_21  and  N_11 
REMARK    5  A    between atoms: O_16  and  C_12 
REMARK    6  A    between atoms: C_22  and  O_16 
REMARK    7  A    between atoms: C_17  and  C_18 
REMARK    8  A    between atoms: C_18  and  C_21 
ROOT
ATOM      1  C   UNL d   1      52.196  33.058  53.177  0.00  0.00     0.105 A 
ATOM      2  C   UNL d   1      52.410  33.823  53.406  0.00  0.00     0.014 A 
ATOM      3  C   UNL d   1      51.854  34.431  53.366  0.00  0.00     0.024 A 
ATOM      4  C   UNL d   1      51.426  32.901  52.908  0.00  0.00     0.015 A 
ATOM      5  C   UNL d   1      51.084  34.287  53.099  0.00  0.00     0.100 A 
ATOM      6  C   UNL d   1      50.873  33.512  52.869  0.00  0.00     0.025 A 
ATOM      7  C   UNL d   1      53.174  33.974  53.673  0.00  0.00     0.001 A 
ATOM      8  C   UNL d   1      52.059  35.188  53.591  0.00  0.00     0.002 A 
ATOM      9  C   UNL d   1      53.379  34.743  53.901  0.00  0.00     0.000 A 
ATOM     10  C   UNL d   1      52.823  35.351  53.860  0.00  0.00     0.000 A 
ENDROOT
BRANCH   1  11
ATOM     11  S   UNL d   1      52.749  32.447  53.216  0.00  0.00     0.285 S 
ATOM     12  O   UNL d   1      52.660  32.418  54.035  0.00  0.00    -0.198 OA
ATOM     13  O   UNL d   1      52.839  32.476  52.395  0.00  0.00    -0.198 OA
BRANCH  11  14
ATOM     14  N   UNL d   1      53.302  31.836  53.255  0.00  0.00    -0.157 NA
BRANCH  14  15
ATOM     15  C   UNL d   1      53.053  31.049  53.170  0.00  0.00     0.114 C 
BRANCH  15  16
ATOM     16  C   UNL d   1      53.438  30.450  53.587  0.00  0.00     0.041 C 
BRANCH  16  17
ATOM     17  C   UNL d   1      53.134  29.682  53.591  0.00  0.00     0.083 C 
BRANCH  17  18
ATOM     18  N   UNL d   1      53.262  29.186  54.238  0.00  0.00    -0.285 N 
ATOM     19  C   UNL d   1      53.665  28.465  54.221  0.00  0.00     0.183 A 
ATOM     20  N   UNL d   1      53.662  28.157  54.991  0.00  0.00    -0.222 NA
ATOM     21  C   UNL d   1      53.258  28.687  55.477  0.00  0.00     0.120 A 
ATOM     22  C   UNL d   1      53.011  29.324  55.009  0.00  0.00     0.102 A 
ENDBRANCH  17  18
ENDBRANCH  16  17
ENDBRANCH  15  16
ENDBRANCH  14  15
ENDBRANCH  11  14
ENDBRANCH   1  11
BRANCH   5  23
ATOM     23  O   UNL d   1      50.531  34.898  53.061  0.00  0.00    -0.305 OA
BRANCH  23  24
ATOM     24  C   UNL d   1      49.768  34.736  52.814  0.00  0.00     0.123 C 
ATOM     25  C   UNL d   1      49.168  35.284  52.959  0.00  0.00     0.029 C 
ENDBRANCH  23  24
ENDBRANCH   5  23
TORSDOF 8
ENDMDL
MODEL 4
REMARK VINA RESULT:      -5.7      1.719      5.553
REMARK  8 active torsions:
REMARK  status: ('A' for Active; 'I' for Inactive)
REMARK    1  A    between atoms: C_2  and  S_1 
REMARK    2  A    between atoms: N_11  and  S_1 
REMARK    3  A    between atoms: N_6  and  C_17 
REMARK    4  A    between atoms: C_21  and  N_11 
REMARK    5  A    between atoms: O_16  and  C_12 
REMARK    6  A    between atoms: C_22  and  O_16 
REMARK    7  A    between atoms: C_17  and  C_18 
REMARK    8  A    between atoms: C_18  and  C_21 
ROOT
ATOM      1  C   UNL d   1      49.639  34.815  52.764  0.00  0.00     0.105 A 
ATOM      2  C   UNL d   1      49.201  34.768  52.065  0.00  0.00     0.014 A 
ATOM      3  C   UNL d   1      48.476  35.159  52.009  0.00  0.00     0.024 A 
ATOM      4  C   UNL d   1      49.353  35.254  53.408  0.00  0.00     0.015 A 
ATOM      5  C   UNL d   1      48.182  35.599  52.645  0.00  0.00     0.100 A 
ATOM      6  C   UNL d   1      48.628  35.644  53.350  0.00  0.00     0.025 A 
ATOM      7  C   UNL d   1      49.488  34.332  51.427  0.00  0.00     0.001 A 
ATOM      8  C   UNL d   1      48.040  35.116  51.322  0.00  0.00     0.002 A 
ATOM      9  C   UNL d   1      49.043  34.290  50.731  0.00  0.00     0.000 A 
ATOM     10  C   UNL d   1      48.319  34.682  50.676  0.00  0.00     0.000 A 
ENDROOT
BRANCH   1  11
ATOM     11  S   UNL d   1      50.364  34.425  52.823  0.00  0.00     0.285 S 
ATOM     12  O   UNL d   1      50.747  35.091  52.525  0.00  0.00    -0.198 OA
ATOM     13  O   UNL d   1      49.980  33.758  53.121  0.00  0.00    -0.198 OA
BRANCH  11  14
ATOM     14  N   UNL d   1      51.089  34.036  52.882  0.00  0.00    -0.157 NA
BRANCH  14  15
ATOM     15  C   UNL d   1      51.655  34.299  53.429  0.00  0.00     0.114 C 
BRANCH  15  16
ATOM     16  C   UNL d   1      52.339  33.855  53.556  0.00  0.00     0.041 C 
BRANCH  16  17
ATOM     17  C   UNL d   1      52.975  34.180  53.970  0.00  0.00     0.083 C 
BRANCH  17  18
ATOM     18  N   UNL d   1      53.573  33.693  54.265  0.00  0.00    -0.285 N 
ATOM     19  C   UNL d   1      53.930  33.068  53.859  0.00  0.00     0.183 A 
ATOM     20  N   UNL d   1      54.498  32.733  54.363  0.00  0.00    -0.222 NA
ATOM     21  C   UNL d   1      54.487  33.151  55.074  0.00  0.00     0.120 A 
ATOM     22  C   UNL d   1      53.914  33.745  55.011  0.00  0.00     0.102 A 
ENDBRANCH  17  18
ENDBRANCH  16  17
ENDBRANCH  15  16
ENDBRANCH  14  15
ENDBRANCH  11  14
ENDBRANCH   1  11
BRANCH   5  23
ATOM     23  O   UNL d   1      47.457  35.989  52.586  0.00  0.00    -0.305 OA
BRANCH  23  24
ATOM     24  C   UNL d   1      47.102  36.286  53.261  0.00  0.00     0.123 C 
ATOM     25  C   UNL d   1      46.396  36.708  53.198  0.00  0.00     0.029 C 
ENDBRANCH  23  24
ENDBRANCH   5  23
TORSDOF 8
ENDMDL
MODEL 5
REMARK VINA RESULT:      -5.6      2.525      5.084
REMARK  8 active torsions:
REMARK  status: ('A' for Active; 'I' for Inactive)
REMARK    1  A    between atoms: C_2  and  S_1 
REMARK    2  A    between atoms: N_11  and  S_1 
REMARK    3  A    between atoms: N_6  and  C_17 
REMARK    4  A    between atoms: C_21  and  N_11 
REMARK    5  A    between atoms: O_16  and  C_12 
REMARK    6  A    between atoms: C_22  and  O_16 
REMARK    7  A    between atoms: C_17  and  C_18 
REMARK    8  A    between atoms: C_18  and  C_21 
ROOT
ATOM      1  C   UNL d   1      52.548  33.085  53.275  0.00  0.00     0.105 A 
ATOM      2  C   UNL d   1      51.933  33.588  53.048  0.00  0.00     0.014 A 
ATOM      3  C   UNL d   1      51.943  34.378  53.284  0.00  0.00     0.024 A 
ATOM      4  C   UNL d   1      53.174  33.372  53.739  0.00  0.00     0.015 A 
ATOM      5  C   UNL d   1      52.562  34.675  53.747  0.00  0.00     0.100 A 
ATOM      6  C   UNL d   1      53.181  34.163  53.974  0.00  0.00     0.025 A 
ATOM      7  C   UNL d   1      51.314  33.299  52.587  0.00  0.00     0.001 A 
ATOM      8  C   UNL d   1      51.339  34.879  53.063  0.00  0.00     0.002 A 
ATOM      9  C   UNL d   1      50.702  33.810  52.364  0.00  0.00     0.000 A 
ATOM     10  C   UNL d   1      50.713  34.600  52.601  0.00  0.00     0.000 A 
ENDROOT
BRANCH   1  11
ATOM     11  S   UNL d   1      52.541  32.294  53.040  0.00  0.00     0.285 S 
ATOM     12  O   UNL d   1      51.994  32.123  53.632  0.00  0.00    -0.198 OA
ATOM     13  O   UNL d   1      53.090  32.465  52.447  0.00  0.00    -0.198 OA
BRANCH  11  14
ATOM     14  N   UNL d   1      52.534  31.503  52.806  0.00  0.00    -0.157 NA
BRANCH  14  15
ATOM     15  C   UNL d   1      53.150  30.998  53.041  0.00  0.00     0.114 C 
BRANCH  15  16
ATOM     16  C   UNL d   1      52.975  30.240  53.316  0.00  0.00     0.041 C 
BRANCH  16  17
ATOM     17  C   UNL d   1      53.582  29.732  53.555  0.00  0.00     0.083 C 
BRANCH  17  18
ATOM     18  N   UNL d   1      53.469  29.218  54.189  0.00  0.00    -0.285 N 
ATOM     19  C   UNL d   1      53.486  28.392  54.151  0.00  0.00     0.183 A 
ATOM     20  N   UNL d   1      53.347  28.102  54.915  0.00  0.00    -0.222 NA
ATOM     21  C   UNL d   1      53.244  28.747  55.420  0.00  0.00     0.120 A 
ATOM     22  C   UNL d   1      53.321  29.437  54.968  0.00  0.00     0.102 A 
ENDBRANCH  17  18
ENDBRANCH  16  17
ENDBRANCH  15  16
ENDBRANCH  14  15
ENDBRANCH  11  14
ENDBRANCH   1  11
BRANCH   5  23
ATOM     23  O   UNL d   1      52.569  35.466  53.981  0.00  0.00    -0.305 OA
BRANCH  23  24
ATOM     24  C   UNL d   1      53.112  35.717  54.540  0.00  0.00     0.123 C 
ATOM     25  C   UNL d   1      53.088  36.496  54.810  0.00  0.00     0.029 C 
ENDBRANCH  23  24
ENDBRANCH   5  23
TORSDOF 8
ENDMDL
