MODEL 1
REMARK VINA RESULT:      -9.2      0.000      0.000
REMARK  3 active torsions:
REMARK  status: ('A' for Active; 'I' for Inactive)
REMARK    1  A    between atoms: C_4  and  N_1 
REMARK    2  A    between atoms: S_5  and  C_6 
REMARK    3  A    between atoms: C_9  and  S_5 
ROOT
ATOM      1  C   UNL d   1     -49.342  14.460  23.034  0.00  0.00     0.078 A 
ATOM      2  C   UNL d   1     -49.899  14.257  22.446  0.00  0.00     0.080 A 
ATOM      3  C   UNL d   1     -49.560  14.963  23.650  0.00  0.00     0.018 A 
ATOM      4  C   UNL d   1     -50.666  14.563  22.487  0.00  0.00     0.010 A 
ATOM      5  C   UNL d   1     -50.325  15.267  23.688  0.00  0.00     0.002 A 
ATOM      6  C   UNL d   1     -50.881  15.066  23.104  0.00  0.00     0.001 A 
ENDROOT
BRANCH   1   7
ATOM      7  N   UNL d   1     -48.579  14.157  22.998  0.00  0.00    -0.241 N 
ATOM      8  C   UNL d   1     -48.327  13.433  23.301  0.00  0.00     0.267 A 
ATOM      9  C   UNL d   1     -47.524  13.357  23.140  0.00  0.00     0.061 A 
ATOM     10  O   UNL d   1     -48.798  12.882  23.697  0.00  0.00    -0.267 OA
ATOM     11  C   UNL d   1     -46.989  12.760  23.309  0.00  0.00     0.005 A 
ATOM     12  C   UNL d   1     -47.276  14.029  22.739  0.00  0.00     0.061 A 
ATOM     13  C   UNL d   1     -46.200  12.833  23.076  0.00  0.00     0.000 A 
ATOM     14  C   UNL d   1     -45.956  13.515  22.671  0.00  0.00     0.000 A 
ATOM     15  C   UNL d   1     -46.495  14.109  22.504  0.00  0.00     0.005 A 
ATOM     16  C   UNL d   1     -47.926  14.527  22.648  0.00  0.00     0.267 A 
ATOM     17  O   UNL d   1     -47.929  15.266  22.276  0.00  0.00    -0.267 OA
ENDBRANCH   1   7
BRANCH   2  18
ATOM     18  S   UNL d   1     -49.682  13.753  21.829  0.00  0.00     0.160 S 
ATOM     19  O   UNL d   1     -49.245  13.376  21.345  0.00  0.00    -0.244 OA
BRANCH  18  20
ATOM     20  C   UNL d   1     -50.264  13.354  21.403  0.00  0.00     0.477 C 
ATOM     21  F   UNL d   1     -50.602  12.568  21.537  0.00  0.00    -0.158 F 
ATOM     22  F   UNL d   1     -50.700  13.610  20.701  0.00  0.00    -0.158 F 
ATOM     23  F   UNL d   1     -50.794  12.990  21.015  0.00  0.00    -0.158 F 
ENDBRANCH  18  20
ENDBRANCH   2  18
TORSDOF 3
ENDMDL
MODEL 2
REMARK VINA RESULT:      -8.1      1.234      3.172
REMARK  3 active torsions:
REMARK  status: ('A' for Active; 'I' for Inactive)
REMARK    1  A    between atoms: C_4  and  N_1 
REMARK    2  A    between atoms: S_5  and  C_6 
REMARK    3  A    between atoms: C_9  and  S_5 
ROOT
ATOM      1  C   UNL d   1     -47.707  13.841  22.837  0.00  0.00     0.078 A 
ATOM      2  C   UNL d   1     -47.628  13.363  22.157  0.00  0.00     0.080 A 
ATOM      3  C   UNL d   1     -47.079  13.910  23.366  0.00  0.00     0.018 A 
ATOM      4  C   UNL d   1     -46.918  12.961  22.021  0.00  0.00     0.010 A 
ATOM      5  C   UNL d   1     -46.372  13.508  23.228  0.00  0.00     0.002 A 
ATOM      6  C   UNL d   1     -46.291  13.031  22.553  0.00  0.00     0.001 A 
ENDROOT
BRANCH   1   7
ATOM      7  N   UNL d   1     -48.411  14.242  22.976  0.00  0.00    -0.241 N 
ATOM      8  C   UNL d   1     -48.584  15.015  22.745  0.00  0.00     0.267 A 
ATOM      9  C   UNL d   1     -49.347  15.188  22.998  0.00  0.00     0.061 A 
ATOM     10  O   UNL d   1     -48.081  15.524  22.333  0.00  0.00    -0.267 OA
ATOM     11  C   UNL d   1     -49.805  15.865  22.925  0.00  0.00     0.005 A 
ATOM     12  C   UNL d   1     -49.649  14.530  23.384  0.00  0.00     0.061 A 
ATOM     13  C   UNL d   1     -50.569  15.884  23.239  0.00  0.00     0.000 A 
ATOM     14  C   UNL d   1     -50.866  15.214  23.628  0.00  0.00     0.000 A 
ATOM     15  C   UNL d   1     -50.405  14.541  23.698  0.00  0.00     0.005 A 
ATOM     16  C   UNL d   1     -49.071  13.941  23.372  0.00  0.00     0.267 A 
ATOM     17  O   UNL d   1     -49.138  13.183  23.698  0.00  0.00    -0.267 OA
ENDBRANCH   1   7
BRANCH   2  18
ATOM     18  S   UNL d   1     -48.256  13.293  21.627  0.00  0.00     0.160 S 
ATOM     19  O   UNL d   1     -48.896  13.454  21.265  0.00  0.00    -0.244 OA
BRANCH  18  20
ATOM     20  C   UNL d   1     -48.285  12.652  21.109  0.00  0.00     0.477 C 
ATOM     21  F   UNL d   1     -48.736  11.916  21.170  0.00  0.00    -0.158 F 
ATOM     22  F   UNL d   1     -47.871  12.537  20.358  0.00  0.00    -0.158 F 
ATOM     23  F   UNL d   1     -48.312  12.069  20.637  0.00  0.00    -0.158 F 
ENDBRANCH  18  20
ENDBRANCH   2  18
TORSDOF 3
ENDMDL
MODEL 3
REMARK VINA RESULT:      -7.5      8.622     10.043
REMARK  3 active torsions:
REMARK  status: ('A' for Active; 'I' for Inactive)
REMARK    1  A    between atoms: C_4  and  N_1 
REMARK    2  A    between atoms: S_5  and  C_6 
REMARK    3  A    between atoms: C_9  and  S_5 
ROOT
ATOM      1  C   UNL d   1     -39.559  14.304  18.246  0.00  0.00     0.078 A 
ATOM      2  C   UNL d   1     -39.857  14.618  17.532  0.00  0.00     0.080 A 
ATOM      3  C   UNL d   1     -39.020  13.681  18.227  0.00  0.00     0.018 A 
ATOM      4  C   UNL d   1     -39.607  14.300  16.810  0.00  0.00     0.010 A 
ATOM      5  C   UNL d   1     -38.773  13.365  17.507  0.00  0.00     0.002 A 
ATOM      6  C   UNL d   1     -39.067  13.676  16.795  0.00  0.00     0.001 A 
ENDROOT
BRANCH   1   7
ATOM      7  N   UNL d   1     -39.804  14.617  18.965  0.00  0.00    -0.241 N 
ATOM      8  C   UNL d   1     -39.456  15.249  19.365  0.00  0.00     0.267 A 
ATOM      9  C   UNL d   1     -39.881  15.373  20.058  0.00  0.00     0.061 A 
ATOM     10  O   UNL d   1     -38.798  15.680  19.113  0.00  0.00    -0.267 OA
ATOM     11  C   UNL d   1     -39.788  15.919  20.663  0.00  0.00     0.005 A 
ATOM     12  C   UNL d   1     -40.489  14.823  20.092  0.00  0.00     0.061 A 
ATOM     13  C   UNL d   1     -40.306  15.917  21.306  0.00  0.00     0.000 A 
ATOM     14  C   UNL d   1     -40.919  15.357  21.333  0.00  0.00     0.000 A 
ATOM     15  C   UNL d   1     -41.007  14.814  20.726  0.00  0.00     0.005 A 
ATOM     16  C   UNL d   1     -40.445  14.353  19.416  0.00  0.00     0.267 A 
ATOM     17  O   UNL d   1     -40.951  13.727  19.222  0.00  0.00    -0.267 OA
ENDBRANCH   1   7
BRANCH   2  18
ATOM     18  S   UNL d   1     -40.396  15.242  17.549  0.00  0.00     0.160 S 
ATOM     19  O   UNL d   1     -40.798  15.822  17.813  0.00  0.00    -0.244 OA
BRANCH  18  20
ATOM     20  C   UNL d   1     -40.832  15.425  16.874  0.00  0.00     0.477 C 
ATOM     21  F   UNL d   1     -41.629  15.174  16.649  0.00  0.00    -0.158 F 
ATOM     22  F   UNL d   1     -40.612  15.922  16.200  0.00  0.00    -0.158 F 
ATOM     23  F   UNL d   1     -41.229  15.592  16.259  0.00  0.00    -0.158 F 
ENDBRANCH  18  20
ENDBRANCH   2  18
TORSDOF 3
ENDMDL
