MODEL 1
REMARK VINA RESULT:      69.2      0.000      0.000
REMARK  2 active torsions:
REMARK  status: ('A' for Active; 'I' for Inactive)
REMARK    1  A    between atoms: C_6  and  C_1 
REMARK    2  A    between atoms: C_8  and  N_3 
REMARK       I    between atoms: N_7  and  C_6 
ROOT
ATOM      1  C   UNL d   1      60.484  49.152  50.468  0.00  0.00     0.124 A 
ATOM      2  C   UNL d   1      59.818  49.172  49.958  0.00  0.00     0.181 A 
ATOM      3  N   UNL d   1      59.151  49.378  50.425  0.00  0.00    -0.276 N 
ATOM      4  C   UNL d   1      59.399  49.483  51.205  0.00  0.00     0.152 A 
ATOM      5  S   UNL d   1      60.226  49.345  51.247  0.00  0.00    -0.051 SA
ATOM      6  S   UNL d   1      58.922  49.687  51.837  0.00  0.00    -0.052 SA
ATOM      7  N   UNL d   1      59.910  49.004  49.158  0.00  0.00    -0.128 N 
ENDROOT
BRANCH   1   8
ATOM      8  C   UNL d   1      61.232  48.966  50.184  0.00  0.00     0.274 C 
ATOM      9  N   UNL d   1      61.492  48.186  50.205  0.00  0.00    -0.267 N 
ATOM     10  C   UNL d   1      61.002  47.577  50.512  0.00  0.00     0.110 A 
ATOM     11  C   UNL d   1      62.253  47.986  49.918  0.00  0.00     0.110 A 
ATOM     12  C   UNL d   1      61.276  46.788  50.529  0.00  0.00     0.142 A 
ATOM     13  O   UNL d   1      62.028  46.609  50.242  0.00  0.00    -0.300 OA
ATOM     14  C   UNL d   1      62.513  47.206  49.939  0.00  0.00     0.142 A 
ATOM     15  O   UNL d   1      61.717  49.552  49.883  0.00  0.00    -0.266 OA
ENDBRANCH   1   8
BRANCH   3  16
ATOM     16  C   UNL d   1      58.372  49.461  50.135  0.00  0.00     0.067 A 
ATOM     17  C   UNL d   1      57.753  49.597  50.652  0.00  0.00     0.018 A 
ATOM     18  C   UNL d   1      56.974  49.678  50.350  0.00  0.00     0.002 A 
ATOM     19  C   UNL d   1      56.839  49.621  49.548  0.00  0.00     0.000 A 
ATOM     20  C   UNL d   1      57.471  49.482  49.028  0.00  0.00     0.002 A 
ATOM     21  C   UNL d   1      56.071  49.701  49.256  0.00  0.00     0.000 C 
ATOM     22  C   UNL d   1      58.238  49.402  49.317  0.00  0.00     0.018 A 
ENDBRANCH   3  16
TORSDOF 2
ENDMDL
