MODEL 1
REMARK VINA RESULT:      -6.0      0.000      0.000
REMARK  5 active torsions:
REMARK  status: ('A' for Active; 'I' for Inactive)
REMARK       I    between atoms: C_2  and  N_6 
REMARK    1  A    between atoms: C_7  and  C_2 
REMARK    2  A    between atoms: N_3  and  C_4 
REMARK    3  A    between atoms: C_12  and  N_5 
REMARK    4  A    between atoms: N_6  and  C_18 
REMARK    5  A    between atoms: O_33  and  C_30 
ROOT
ATOM      1  C   UNL d   1      50.418  34.514  52.208  0.00  0.00     0.086 A 
ATOM      2  C   UNL d   1      49.901  34.845  52.754  0.00  0.00     0.074 A 
ATOM      3  C   UNL d   1      50.168  34.356  51.442  0.00  0.00     0.102 C 
ATOM      4  N   UNL d   1      49.914  34.199  50.676  0.00  0.00    -0.191 NA
ATOM      5  C   UNL d   1      50.152  35.003  53.520  0.00  0.00     0.020 A 
ATOM      6  C   UNL d   1      51.199  34.337  52.429  0.00  0.00     0.031 A 
ATOM      7  C   UNL d   1      51.457  34.492  53.194  0.00  0.00     0.085 A 
ATOM      8  C   UNL d   1      50.931  34.829  53.751  0.00  0.00     0.021 A 
ENDROOT
BRANCH   2   9
ATOM      9  N   UNL d   1      49.123  35.023  52.540  0.00  0.00    -0.301 N 
ATOM     10  C   UNL d   1      48.815  35.760  52.733  0.00  0.00     0.100 A 
ATOM     11  C   UNL d   1      48.033  35.946  52.522  0.00  0.00     0.100 A 
ATOM     12  N   UNL d   1      47.575  35.388  52.120  0.00  0.00    -0.301 N 
ATOM     13  C   UNL d   1      47.892  34.649  51.930  0.00  0.00     0.100 A 
ATOM     14  C   UNL d   1      48.665  34.465  52.139  0.00  0.00     0.100 A 
BRANCH  12  15
ATOM     15  C   UNL d   1      46.794  35.574  51.909  0.00  0.00     0.064 A 
ATOM     16  C   UNL d   1      46.578  35.601  51.116  0.00  0.00     0.020 A 
ATOM     17  C   UNL d   1      45.801  35.787  50.905  0.00  0.00     0.026 A 
ATOM     18  C   UNL d   1      45.232  35.947  51.491  0.00  0.00     0.094 A 
ATOM     19  C   UNL d   1      45.446  35.921  52.296  0.00  0.00     0.026 A 
ATOM     20  C   UNL d   1      46.227  35.735  52.503  0.00  0.00     0.020 A 
BRANCH  18  21
ATOM     21  O   UNL d   1      44.452  36.134  51.288  0.00  0.00    -0.328 OA
ATOM     22  C   UNL d   1      44.314  36.661  50.673  0.00  0.00     0.181 C 
ENDBRANCH  18  21
ENDBRANCH  12  15
ENDBRANCH   2   9
BRANCH   7  23
ATOM     23  N   UNL d   1      52.231  34.318  53.418  0.00  0.00    -0.208 NA
ATOM     24  C   UNL d   1      52.384  33.665  53.891  0.00  0.00     0.279 C 
ATOM     25  O   UNL d   1      51.768  33.182  54.143  0.00  0.00    -0.265 OA
BRANCH  24  26
ATOM     26  C   UNL d   1      53.161  33.492  54.114  0.00  0.00     0.060 A 
ATOM     27  C   UNL d   1      53.577  34.014  54.578  0.00  0.00     0.031 A 
ATOM     28  C   UNL d   1      54.353  33.838  54.799  0.00  0.00     0.119 A 
ATOM     29  O   UNL d   1      54.899  34.243  55.252  0.00  0.00    -0.300 OA
ATOM     30  C   UNL d   1      54.695  33.140  54.549  0.00  0.00     0.119 A 
ATOM     31  C   UNL d   1      55.587  33.795  55.284  0.00  0.00     0.304 A 
ATOM     32  O   UNL d   1      55.462  33.112  54.849  0.00  0.00    -0.300 OA
ATOM     33  C   UNL d   1      54.278  32.610  54.080  0.00  0.00     0.026 A 
ATOM     34  C   UNL d   1      53.509  32.786  53.861  0.00  0.00     0.007 A 
ENDBRANCH  24  26
ENDBRANCH   7  23
TORSDOF 5
ENDMDL
MODEL 2
REMARK VINA RESULT:      -5.9     11.488     12.422
REMARK  5 active torsions:
REMARK  status: ('A' for Active; 'I' for Inactive)
REMARK       I    between atoms: C_2  and  N_6 
REMARK    1  A    between atoms: C_7  and  C_2 
REMARK    2  A    between atoms: N_3  and  C_4 
REMARK    3  A    between atoms: C_12  and  N_5 
REMARK    4  A    between atoms: N_6  and  C_18 
REMARK    5  A    between atoms: O_33  and  C_30 
ROOT
ATOM      1  C   UNL d   1      45.107  27.263  58.386  0.00  0.00     0.086 A 
ATOM      2  C   UNL d   1      44.727  26.578  58.632  0.00  0.00     0.074 A 
ATOM      3  C   UNL d   1      45.500  27.283  57.665  0.00  0.00     0.102 C 
ATOM      4  N   UNL d   1      45.892  27.299  56.942  0.00  0.00    -0.191 NA
ATOM      5  C   UNL d   1      44.334  26.559  59.354  0.00  0.00     0.020 A 
ATOM      6  C   UNL d   1      45.096  27.941  58.866  0.00  0.00     0.031 A 
ATOM      7  C   UNL d   1      44.706  27.929  59.589  0.00  0.00     0.085 A 
ATOM      8  C   UNL d   1      44.318  27.231  59.841  0.00  0.00     0.021 A 
ENDROOT
BRANCH   2   9
ATOM      9  N   UNL d   1      44.733  25.901  58.160  0.00  0.00    -0.301 N 
ATOM     10  C   UNL d   1      45.158  25.243  58.410  0.00  0.00     0.100 A 
ATOM     11  C   UNL d   1      45.168  24.559  57.940  0.00  0.00     0.100 A 
ATOM     12  N   UNL d   1      44.752  24.547  57.226  0.00  0.00    -0.301 N 
ATOM     13  C   UNL d   1      44.328  25.212  56.981  0.00  0.00     0.100 A 
ATOM     14  C   UNL d   1      44.317  25.889  57.446  0.00  0.00     0.100 A 
BRANCH  12  15
ATOM     15  C   UNL d   1      44.763  23.862  56.756  0.00  0.00     0.064 A 
ATOM     16  C   UNL d   1      44.439  23.163  57.042  0.00  0.00     0.020 A 
ATOM     17  C   UNL d   1      44.449  22.481  56.575  0.00  0.00     0.026 A 
ATOM     18  C   UNL d   1      44.787  22.496  55.814  0.00  0.00     0.094 A 
ATOM     19  C   UNL d   1      45.117  23.203  55.520  0.00  0.00     0.026 A 
ATOM     20  C   UNL d   1      45.104  23.885  55.992  0.00  0.00     0.020 A 
BRANCH  18  21
ATOM     21  O   UNL d   1      44.802  21.818  55.341  0.00  0.00    -0.328 OA
ATOM     22  C   UNL d   1      44.467  21.846  54.591  0.00  0.00     0.181 C 
ENDBRANCH  18  21
ENDBRANCH  12  15
ENDBRANCH   2   9
BRANCH   7  23
ATOM     23  N   UNL d   1      44.693  28.599  60.069  0.00  0.00    -0.208 NA
ATOM     24  C   UNL d   1      44.644  28.518  60.884  0.00  0.00     0.279 C 
ATOM     25  O   UNL d   1      44.608  27.772  61.226  0.00  0.00    -0.265 OA
BRANCH  24  26
ATOM     26  C   UNL d   1      44.631  29.192  61.364  0.00  0.00     0.060 A 
ATOM     27  C   UNL d   1      44.553  29.929  61.029  0.00  0.00     0.031 A 
ATOM     28  C   UNL d   1      44.541  30.599  61.511  0.00  0.00     0.119 A 
ATOM     29  O   UNL d   1      44.471  31.395  61.340  0.00  0.00    -0.300 OA
ATOM     30  C   UNL d   1      44.607  30.515  62.320  0.00  0.00     0.119 A 
ATOM     31  C   UNL d   1      44.494  31.810  62.049  0.00  0.00     0.304 A 
ATOM     32  O   UNL d   1      44.578  31.267  62.655  0.00  0.00    -0.300 OA
ATOM     33  C   UNL d   1      44.687  29.772  62.662  0.00  0.00     0.026 A 
ATOM     34  C   UNL d   1      44.699  29.108  62.183  0.00  0.00     0.007 A 
ENDBRANCH  24  26
ENDBRANCH   7  23
TORSDOF 5
ENDMDL
MODEL 3
REMARK VINA RESULT:      -5.4     10.716     11.806
REMARK  5 active torsions:
REMARK  status: ('A' for Active; 'I' for Inactive)
REMARK       I    between atoms: C_2  and  N_6 
REMARK    1  A    between atoms: C_7  and  C_2 
REMARK    2  A    between atoms: N_3  and  C_4 
REMARK    3  A    between atoms: C_12  and  N_5 
REMARK    4  A    between atoms: N_6  and  C_18 
REMARK    5  A    between atoms: O_33  and  C_30 
ROOT
ATOM      1  C   UNL d   1      44.439  27.143  56.958  0.00  0.00     0.086 A 
ATOM      2  C   UNL d   1      44.487  27.006  57.766  0.00  0.00     0.074 A 
ATOM      3  C   UNL d   1      44.445  27.910  56.666  0.00  0.00     0.102 C 
ATOM      4  N   UNL d   1      44.451  28.680  56.378  0.00  0.00    -0.191 NA
ATOM      5  C   UNL d   1      44.481  26.237  58.058  0.00  0.00     0.020 A 
ATOM      6  C   UNL d   1      44.383  26.503  56.430  0.00  0.00     0.031 A 
ATOM      7  C   UNL d   1      44.376  25.732  56.714  0.00  0.00     0.085 A 
ATOM      8  C   UNL d   1      44.426  25.592  57.538  0.00  0.00     0.021 A 
ENDROOT
BRANCH   2   9
ATOM      9  N   UNL d   1      44.543  27.637  58.297  0.00  0.00    -0.301 N 
ATOM     10  C   UNL d   1      44.325  27.520  59.081  0.00  0.00     0.100 A 
ATOM     11  C   UNL d   1      44.378  28.150  59.619  0.00  0.00     0.100 A 
ATOM     12  N   UNL d   1      44.650  28.886  59.360  0.00  0.00    -0.301 N 
ATOM     13  C   UNL d   1      44.867  28.996  58.571  0.00  0.00     0.100 A 
ATOM     14  C   UNL d   1      44.814  28.373  58.038  0.00  0.00     0.100 A 
BRANCH  12  15
ATOM     15  C   UNL d   1      44.703  29.516  59.900  0.00  0.00     0.064 A 
ATOM     16  C   UNL d   1      44.808  29.363  60.700  0.00  0.00     0.020 A 
ATOM     17  C   UNL d   1      44.861  29.989  61.238  0.00  0.00     0.026 A 
ATOM     18  C   UNL d   1      44.808  30.777  60.973  0.00  0.00     0.094 A 
ATOM     19  C   UNL d   1      44.702  30.936  60.163  0.00  0.00     0.026 A 
ATOM     20  C   UNL d   1      44.650  30.306  59.627  0.00  0.00     0.020 A 
BRANCH  18  21
ATOM     21  O   UNL d   1      44.861  31.408  61.505  0.00  0.00    -0.328 OA
ATOM     22  C   UNL d   1      44.554  31.320  62.262  0.00  0.00     0.181 C 
ENDBRANCH  18  21
ENDBRANCH  12  15
ENDBRANCH   2   9
BRANCH   7  23
ATOM     23  N   UNL d   1      44.321  25.096  56.194  0.00  0.00    -0.208 NA
ATOM     24  C   UNL d   1      45.003  24.770  55.872  0.00  0.00     0.279 C 
ATOM     25  O   UNL d   1      45.740  25.075  56.066  0.00  0.00    -0.265 OA
BRANCH  24  26
ATOM     26  C   UNL d   1      44.945  24.130  55.350  0.00  0.00     0.060 A 
ATOM     27  C   UNL d   1      44.688  24.249  54.588  0.00  0.00     0.031 A 
ATOM     28  C   UNL d   1      44.632  23.609  54.070  0.00  0.00     0.119 A 
ATOM     29  O   UNL d   1      44.398  23.555  53.290  0.00  0.00    -0.300 OA
ATOM     30  C   UNL d   1      44.836  22.861  54.329  0.00  0.00     0.119 A 
ATOM     31  C   UNL d   1      44.456  22.768  53.059  0.00  0.00     0.304 A 
ATOM     32  O   UNL d   1      44.727  22.339  53.702  0.00  0.00    -0.300 OA
ATOM     33  C   UNL d   1      45.097  22.738  55.098  0.00  0.00     0.026 A 
ATOM     34  C   UNL d   1      45.152  23.374  55.611  0.00  0.00     0.007 A 
ENDBRANCH  24  26
ENDBRANCH   7  23
TORSDOF 5
ENDMDL
MODEL 4
REMARK VINA RESULT:      -5.1     10.883     11.947
REMARK  5 active torsions:
REMARK  status: ('A' for Active; 'I' for Inactive)
REMARK       I    between atoms: C_2  and  N_6 
REMARK    1  A    between atoms: C_7  and  C_2 
REMARK    2  A    between atoms: N_3  and  C_4 
REMARK    3  A    between atoms: C_12  and  N_5 
REMARK    4  A    between atoms: N_6  and  C_18 
REMARK    5  A    between atoms: O_33  and  C_30 
ROOT
ATOM      1  C   UNL d   1      44.898  28.895  58.815  0.00  0.00     0.086 A 
ATOM      2  C   UNL d   1      44.589  28.604  59.518  0.00  0.00     0.074 A 
ATOM      3  C   UNL d   1      45.173  29.668  58.772  0.00  0.00     0.102 C 
ATOM      4  N   UNL d   1      45.446  30.442  58.732  0.00  0.00    -0.191 NA
ATOM      5  C   UNL d   1      44.314  27.830  59.561  0.00  0.00     0.020 A 
ATOM      6  C   UNL d   1      44.935  28.408  58.143  0.00  0.00     0.031 A 
ATOM      7  C   UNL d   1      44.662  27.633  58.179  0.00  0.00     0.085 A 
ATOM      8  C   UNL d   1      44.347  27.336  58.895  0.00  0.00     0.021 A 
ENDROOT
BRANCH   2   9
ATOM      9  N   UNL d   1      44.549  29.083  60.190  0.00  0.00    -0.301 N 
ATOM     10  C   UNL d   1      44.708  28.753  60.926  0.00  0.00     0.100 A 
ATOM     11  C   UNL d   1      44.669  29.229  61.605  0.00  0.00     0.100 A 
ATOM     12  N   UNL d   1      44.472  30.028  61.534  0.00  0.00    -0.301 N 
ATOM     13  C   UNL d   1      44.314  30.353  60.790  0.00  0.00     0.100 A 
ATOM     14  C   UNL d   1      44.352  29.882  60.118  0.00  0.00     0.100 A 
BRANCH  12  15
ATOM     15  C   UNL d   1      44.434  30.504  62.214  0.00  0.00     0.064 A 
ATOM     16  C   UNL d   1      44.467  31.322  62.144  0.00  0.00     0.020 A 
ATOM     17  C   UNL d   1      44.429  31.796  62.821  0.00  0.00     0.026 A 
ATOM     18  C   UNL d   1      44.358  31.450  63.575  0.00  0.00     0.094 A 
ATOM     19  C   UNL d   1      44.325  30.621  63.649  0.00  0.00     0.026 A 
ATOM     20  C   UNL d   1      44.363  30.149  62.968  0.00  0.00     0.020 A 
BRANCH  18  21
ATOM     21  O   UNL d   1      44.320  31.917  64.256  0.00  0.00    -0.328 OA
ATOM     22  C   UNL d   1      44.513  31.584  64.982  0.00  0.00     0.181 C 
ENDBRANCH  18  21
ENDBRANCH  12  15
ENDBRANCH   2   9
BRANCH   7  23
ATOM     23  N   UNL d   1      44.697  27.147  57.515  0.00  0.00    -0.208 NA
ATOM     24  C   UNL d   1      44.665  26.331  57.603  0.00  0.00     0.279 C 
ATOM     25  O   UNL d   1      44.597  25.996  58.350  0.00  0.00    -0.265 OA
BRANCH  24  26
ATOM     26  C   UNL d   1      44.700  25.844  56.935  0.00  0.00     0.060 A 
ATOM     27  C   UNL d   1      44.845  25.049  57.018  0.00  0.00     0.031 A 
ATOM     28  C   UNL d   1      44.880  24.566  56.349  0.00  0.00     0.119 A 
ATOM     29  O   UNL d   1      45.013  23.765  56.258  0.00  0.00    -0.300 OA
ATOM     30  C   UNL d   1      44.767  24.892  55.609  0.00  0.00     0.119 A 
ATOM     31  C   UNL d   1      44.983  23.591  55.455  0.00  0.00     0.304 A 
ATOM     32  O   UNL d   1      44.831  24.288  55.054  0.00  0.00    -0.300 OA
ATOM     33  C   UNL d   1      44.620  25.696  55.521  0.00  0.00     0.026 A 
ATOM     34  C   UNL d   1      44.586  26.174  56.185  0.00  0.00     0.007 A 
ENDBRANCH  24  26
ENDBRANCH   7  23
TORSDOF 5
ENDMDL
MODEL 5
REMARK VINA RESULT:      -4.8     11.210     12.069
REMARK  5 active torsions:
REMARK  status: ('A' for Active; 'I' for Inactive)
REMARK       I    between atoms: C_2  and  N_6 
REMARK    1  A    between atoms: C_7  and  C_2 
REMARK    2  A    between atoms: N_3  and  C_4 
REMARK    3  A    between atoms: C_12  and  N_5 
REMARK    4  A    between atoms: N_6  and  C_18 
REMARK    5  A    between atoms: O_33  and  C_30 
ROOT
ATOM      1  C   UNL d   1      44.930  29.489  59.943  0.00  0.00     0.086 A 
ATOM      2  C   UNL d   1      44.687  28.707  60.006  0.00  0.00     0.074 A 
ATOM      3  C   UNL d   1      45.236  29.773  59.235  0.00  0.00     0.102 C 
ATOM      4  N   UNL d   1      45.542  30.053  58.526  0.00  0.00    -0.191 NA
ATOM      5  C   UNL d   1      44.381  28.423  60.714  0.00  0.00     0.020 A 
ATOM      6  C   UNL d   1      44.867  29.998  60.596  0.00  0.00     0.031 A 
ATOM      7  C   UNL d   1      44.562  29.722  61.308  0.00  0.00     0.085 A 
ATOM      8  C   UNL d   1      44.314  28.925  61.373  0.00  0.00     0.021 A 
ENDROOT
BRANCH   2   9
ATOM      9  N   UNL d   1      44.747  28.195  59.360  0.00  0.00    -0.301 N 
ATOM     10  C   UNL d   1      44.314  28.356  58.681  0.00  0.00     0.100 A 
ATOM     11  C   UNL d   1      44.370  27.846  58.028  0.00  0.00     0.100 A 
ATOM     12  N   UNL d   1      44.860  27.182  58.070  0.00  0.00    -0.301 N 
ATOM     13  C   UNL d   1      45.292  27.026  58.756  0.00  0.00     0.100 A 
ATOM     14  C   UNL d   1      45.237  27.531  59.402  0.00  0.00     0.100 A 
BRANCH  12  15
ATOM     15  C   UNL d   1      44.915  26.672  57.416  0.00  0.00     0.064 A 
ATOM     16  C   UNL d   1      45.331  26.905  56.747  0.00  0.00     0.020 A 
ATOM     17  C   UNL d   1      45.387  26.398  56.096  0.00  0.00     0.026 A 
ATOM     18  C   UNL d   1      45.023  25.650  56.114  0.00  0.00     0.094 A 
ATOM     19  C   UNL d   1      44.600  25.409  56.790  0.00  0.00     0.026 A 
ATOM     20  C   UNL d   1      44.547  25.921  57.440  0.00  0.00     0.020 A 
BRANCH  18  21
ATOM     21  O   UNL d   1      45.074  25.137  55.467  0.00  0.00    -0.328 OA
ATOM     22  C   UNL d   1      44.947  24.333  55.582  0.00  0.00     0.181 C 
ENDBRANCH  18  21
ENDBRANCH  12  15
ENDBRANCH   2   9
BRANCH   7  23
ATOM     23  N   UNL d   1      44.498  30.224  61.958  0.00  0.00    -0.208 NA
ATOM     24  C   UNL d   1      44.658  29.940  62.712  0.00  0.00     0.279 C 
ATOM     25  O   UNL d   1      44.883  29.157  62.821  0.00  0.00    -0.265 OA
BRANCH  24  26
ATOM     26  C   UNL d   1      44.593  30.445  63.363  0.00  0.00     0.060 A 
ATOM     27  C   UNL d   1      44.509  30.137  64.111  0.00  0.00     0.031 A 
ATOM     28  C   UNL d   1      44.444  30.644  64.759  0.00  0.00     0.119 A 
ATOM     29  O   UNL d   1      44.356  30.502  65.559  0.00  0.00    -0.300 OA
ATOM     30  C   UNL d   1      44.466  31.452  64.643  0.00  0.00     0.119 A 
ATOM     31  C   UNL d   1      44.323  31.227  65.944  0.00  0.00     0.304 A 
ATOM     32  O   UNL d   1      44.390  31.815  65.378  0.00  0.00    -0.300 OA
ATOM     33  C   UNL d   1      44.551  31.767  63.889  0.00  0.00     0.026 A 
ATOM     34  C   UNL d   1      44.615  31.263  63.247  0.00  0.00     0.007 A 
ENDBRANCH  24  26
ENDBRANCH   7  23
TORSDOF 5
ENDMDL
MODEL 6
REMARK VINA RESULT:      -4.1     10.002     10.815
REMARK  5 active torsions:
REMARK  status: ('A' for Active; 'I' for Inactive)
REMARK       I    between atoms: C_2  and  N_6 
REMARK    1  A    between atoms: C_7  and  C_2 
REMARK    2  A    between atoms: N_3  and  C_4 
REMARK    3  A    between atoms: C_12  and  N_5 
REMARK    4  A    between atoms: N_6  and  C_18 
REMARK    5  A    between atoms: O_33  and  C_30 
ROOT
ATOM      1  C   UNL d   1      44.949  27.582  58.057  0.00  0.00     0.086 A 
ATOM      2  C   UNL d   1      44.615  27.857  57.359  0.00  0.00     0.074 A 
ATOM      3  C   UNL d   1      45.247  28.110  58.610  0.00  0.00     0.102 C 
ATOM      4  N   UNL d   1      45.545  28.642  59.161  0.00  0.00    -0.191 NA
ATOM      5  C   UNL d   1      44.316  27.328  56.805  0.00  0.00     0.020 A 
ATOM      6  C   UNL d   1      44.986  26.765  58.206  0.00  0.00     0.031 A 
ATOM      7  C   UNL d   1      44.690  26.230  57.657  0.00  0.00     0.085 A 
ATOM      8  C   UNL d   1      44.349  26.510  56.946  0.00  0.00     0.021 A 
ENDROOT
BRANCH   2   9
ATOM      9  N   UNL d   1      44.574  28.667  57.203  0.00  0.00    -0.301 N 
ATOM     10  C   UNL d   1      44.757  28.939  56.449  0.00  0.00     0.100 A 
ATOM     11  C   UNL d   1      44.718  29.753  56.286  0.00  0.00     0.100 A 
ATOM     12  N   UNL d   1      44.496  30.279  56.884  0.00  0.00    -0.301 N 
ATOM     13  C   UNL d   1      44.314  29.998  57.639  0.00  0.00     0.100 A 
ATOM     14  C   UNL d   1      44.352  29.193  57.801  0.00  0.00     0.100 A 
BRANCH  12  15
ATOM     15  C   UNL d   1      44.458  31.092  56.720  0.00  0.00     0.064 A 
ATOM     16  C   UNL d   1      44.459  31.635  57.337  0.00  0.00     0.020 A 
ATOM     17  C   UNL d   1      44.420  32.445  57.175  0.00  0.00     0.026 A 
ATOM     18  C   UNL d   1      44.380  32.716  56.389  0.00  0.00     0.094 A 
ATOM     19  C   UNL d   1      44.379  32.169  55.761  0.00  0.00     0.026 A 
ATOM     20  C   UNL d   1      44.418  31.358  55.928  0.00  0.00     0.020 A 
BRANCH  18  21
ATOM     21  O   UNL d   1      44.342  33.524  56.219  0.00  0.00    -0.328 OA
ATOM     22  C   UNL d   1      44.357  33.770  55.435  0.00  0.00     0.181 C 
ENDBRANCH  18  21
ENDBRANCH  12  15
ENDBRANCH   2   9
BRANCH   7  23
ATOM     23  N   UNL d   1      44.725  25.420  57.802  0.00  0.00    -0.208 NA
ATOM     24  C   UNL d   1      44.989  24.910  57.215  0.00  0.00     0.279 C 
ATOM     25  O   UNL d   1      45.218  25.204  56.483  0.00  0.00    -0.265 OA
BRANCH  24  26
ATOM     26  C   UNL d   1      45.023  24.097  57.362  0.00  0.00     0.060 A 
ATOM     27  C   UNL d   1      45.207  23.825  58.106  0.00  0.00     0.031 A 
ATOM     28  C   UNL d   1      45.241  23.013  58.250  0.00  0.00     0.119 A 
ATOM     29  O   UNL d   1      45.407  22.582  58.923  0.00  0.00    -0.300 OA
ATOM     30  C   UNL d   1      45.089  22.489  57.642  0.00  0.00     0.119 A 
ATOM     31  C   UNL d   1      45.358  21.784  58.734  0.00  0.00     0.304 A 
ATOM     32  O   UNL d   1      45.162  21.726  57.942  0.00  0.00    -0.300 OA
ATOM     33  C   UNL d   1      44.903  22.760  56.888  0.00  0.00     0.026 A 
ATOM     34  C   UNL d   1      44.870  23.566  56.748  0.00  0.00     0.007 A 
ENDBRANCH  24  26
ENDBRANCH   7  23
TORSDOF 5
ENDMDL
MODEL 7
REMARK VINA RESULT:      -3.9     12.081     12.669
REMARK  5 active torsions:
REMARK  status: ('A' for Active; 'I' for Inactive)
REMARK       I    between atoms: C_2  and  N_6 
REMARK    1  A    between atoms: C_7  and  C_2 
REMARK    2  A    between atoms: N_3  and  C_4 
REMARK    3  A    between atoms: C_12  and  N_5 
REMARK    4  A    between atoms: N_6  and  C_18 
REMARK    5  A    between atoms: O_33  and  C_30 
ROOT
ATOM      1  C   UNL d   1      44.505  29.739  62.061  0.00  0.00     0.086 A 
ATOM      2  C   UNL d   1      44.451  29.123  61.521  0.00  0.00     0.074 A 
ATOM      3  C   UNL d   1      44.600  30.512  61.800  0.00  0.00     0.102 C 
ATOM      4  N   UNL d   1      44.695  31.284  61.535  0.00  0.00    -0.191 NA
ATOM      5  C   UNL d   1      44.356  28.349  61.783  0.00  0.00     0.020 A 
ATOM      6  C   UNL d   1      44.465  29.583  62.876  0.00  0.00     0.031 A 
ATOM      7  C   UNL d   1      44.370  28.812  63.145  0.00  0.00     0.085 A 
ATOM      8  C   UNL d   1      44.314  28.183  62.596  0.00  0.00     0.021 A 
ENDROOT
BRANCH   2   9
ATOM      9  N   UNL d   1      44.491  29.270  60.709  0.00  0.00    -0.301 N 
ATOM     10  C   UNL d   1      44.316  30.024  60.431  0.00  0.00     0.100 A 
ATOM     11  C   UNL d   1      44.354  30.179  59.617  0.00  0.00     0.100 A 
ATOM     12  N   UNL d   1      44.567  29.575  59.095  0.00  0.00    -0.301 N 
ATOM     13  C   UNL d   1      44.741  28.820  59.382  0.00  0.00     0.100 A 
ATOM     14  C   UNL d   1      44.703  28.666  60.188  0.00  0.00     0.100 A 
BRANCH  12  15
ATOM     15  C   UNL d   1      44.605  29.731  58.280  0.00  0.00     0.064 A 
ATOM     16  C   UNL d   1      44.608  30.508  58.011  0.00  0.00     0.020 A 
ATOM     17  C   UNL d   1      44.645  30.664  57.200  0.00  0.00     0.026 A 
ATOM     18  C   UNL d   1      44.680  30.039  56.651  0.00  0.00     0.094 A 
ATOM     19  C   UNL d   1      44.678  29.250  56.920  0.00  0.00     0.026 A 
ATOM     20  C   UNL d   1      44.640  29.098  57.734  0.00  0.00     0.020 A 
BRANCH  18  21
ATOM     21  O   UNL d   1      44.718  30.187  55.839  0.00  0.00    -0.328 OA
ATOM     22  C   UNL d   1      44.399  30.885  55.544  0.00  0.00     0.181 C 
ENDBRANCH  18  21
ENDBRANCH  12  15
ENDBRANCH   2   9
BRANCH   7  23
ATOM     23  N   UNL d   1      44.329  28.653  63.953  0.00  0.00    -0.208 NA
ATOM     24  C   UNL d   1      44.552  27.916  64.237  0.00  0.00     0.279 C 
ATOM     25  O   UNL d   1      44.817  27.335  63.720  0.00  0.00    -0.265 OA
BRANCH  24  26
ATOM     26  C   UNL d   1      44.511  27.758  65.048  0.00  0.00     0.060 A 
ATOM     27  C   UNL d   1      44.621  28.358  65.586  0.00  0.00     0.031 A 
ATOM     28  C   UNL d   1      44.579  28.197  66.394  0.00  0.00     0.119 A 
ATOM     29  O   UNL d   1      44.663  28.672  67.052  0.00  0.00    -0.300 OA
ATOM     30  C   UNL d   1      44.426  27.435  66.646  0.00  0.00     0.119 A 
ATOM     31  C   UNL d   1      44.562  28.204  67.720  0.00  0.00     0.304 A 
ATOM     32  O   UNL d   1      44.416  27.439  67.470  0.00  0.00    -0.300 OA
ATOM     33  C   UNL d   1      44.314  26.826  66.105  0.00  0.00     0.026 A 
ATOM     34  C   UNL d   1      44.357  26.988  65.304  0.00  0.00     0.007 A 
ENDBRANCH  24  26
ENDBRANCH   7  23
TORSDOF 5
ENDMDL
MODEL 8
REMARK VINA RESULT:      -3.9     11.789     12.859
REMARK  5 active torsions:
REMARK  status: ('A' for Active; 'I' for Inactive)
REMARK       I    between atoms: C_2  and  N_6 
REMARK    1  A    between atoms: C_7  and  C_2 
REMARK    2  A    between atoms: N_3  and  C_4 
REMARK    3  A    between atoms: C_12  and  N_5 
REMARK    4  A    between atoms: N_6  and  C_18 
REMARK    5  A    between atoms: O_33  and  C_30 
ROOT
ATOM      1  C   UNL d   1      44.717  29.659  60.837  0.00  0.00     0.086 A 
ATOM      2  C   UNL d   1      44.515  29.177  61.471  0.00  0.00     0.074 A 
ATOM      3  C   UNL d   1      44.892  30.452  60.958  0.00  0.00     0.102 C 
ATOM      4  N   UNL d   1      45.066  31.245  61.083  0.00  0.00    -0.191 NA
ATOM      5  C   UNL d   1      44.340  28.383  61.350  0.00  0.00     0.020 A 
ATOM      6  C   UNL d   1      44.744  29.345  60.068  0.00  0.00     0.031 A 
ATOM      7  C   UNL d   1      44.571  28.552  59.939  0.00  0.00     0.085 A 
ATOM      8  C   UNL d   1      44.365  28.060  60.585  0.00  0.00     0.021 A 
ENDROOT
BRANCH   2   9
ATOM      9  N   UNL d   1      44.486  29.482  62.238  0.00  0.00    -0.301 N 
ATOM     10  C   UNL d   1      44.570  28.971  62.876  0.00  0.00     0.100 A 
ATOM     11  C   UNL d   1      44.541  29.271  63.649  0.00  0.00     0.100 A 
ATOM     12  N   UNL d   1      44.429  30.081  63.769  0.00  0.00    -0.301 N 
ATOM     13  C   UNL d   1      44.345  30.589  63.123  0.00  0.00     0.100 A 
ATOM     14  C   UNL d   1      44.374  30.292  62.358  0.00  0.00     0.100 A 
BRANCH  12  15
ATOM     15  C   UNL d   1      44.400  30.381  64.543  0.00  0.00     0.064 A 
ATOM     16  C   UNL d   1      44.395  31.194  64.668  0.00  0.00     0.020 A 
ATOM     17  C   UNL d   1      44.367  31.493  65.438  0.00  0.00     0.026 A 
ATOM     18  C   UNL d   1      44.343  30.976  66.091  0.00  0.00     0.094 A 
ATOM     19  C   UNL d   1      44.348  30.152  65.968  0.00  0.00     0.026 A 
ATOM     20  C   UNL d   1      44.377  29.856  65.194  0.00  0.00     0.020 A 
BRANCH  18  21
ATOM     21  O   UNL d   1      44.315  31.268  66.864  0.00  0.00    -0.328 OA
ATOM     22  C   UNL d   1      44.800  30.934  67.437  0.00  0.00     0.181 C 
ENDBRANCH  18  21
ENDBRANCH  12  15
ENDBRANCH   2   9
BRANCH   7  23
ATOM     23  N   UNL d   1      44.597  28.236  59.178  0.00  0.00    -0.208 NA
ATOM     24  C   UNL d   1      44.850  27.464  59.064  0.00  0.00     0.279 C 
ATOM     25  O   UNL d   1      45.078  27.002  59.704  0.00  0.00    -0.265 OA
BRANCH  24  26
ATOM     26  C   UNL d   1      44.876  27.149  58.299  0.00  0.00     0.060 A 
ATOM     27  C   UNL d   1      44.727  26.359  58.179  0.00  0.00     0.031 A 
ATOM     28  C   UNL d   1      44.754  26.048  57.415  0.00  0.00     0.119 A 
ATOM     29  O   UNL d   1      44.633  25.294  57.125  0.00  0.00    -0.300 OA
ATOM     30  C   UNL d   1      44.929  26.539  56.785  0.00  0.00     0.119 A 
ATOM     31  C   UNL d   1      44.733  25.314  56.310  0.00  0.00     0.304 A 
ATOM     32  O   UNL d   1      44.917  26.084  56.099  0.00  0.00    -0.300 OA
ATOM     33  C   UNL d   1      45.080  27.338  56.903  0.00  0.00     0.026 A 
ATOM     34  C   UNL d   1      45.053  27.645  57.662  0.00  0.00     0.007 A 
ENDBRANCH  24  26
ENDBRANCH   7  23
TORSDOF 5
ENDMDL
MODEL 9
REMARK VINA RESULT:      -3.8      8.351     10.412
REMARK  5 active torsions:
REMARK  status: ('A' for Active; 'I' for Inactive)
REMARK       I    between atoms: C_2  and  N_6 
REMARK    1  A    between atoms: C_7  and  C_2 
REMARK    2  A    between atoms: N_3  and  C_4 
REMARK    3  A    between atoms: C_12  and  N_5 
REMARK    4  A    between atoms: N_6  and  C_18 
REMARK    5  A    between atoms: O_33  and  C_30 
ROOT
ATOM      1  C   UNL d   1      44.783  30.075  57.882  0.00  0.00     0.086 A 
ATOM      2  C   UNL d   1      44.586  29.595  57.245  0.00  0.00     0.074 A 
ATOM      3  C   UNL d   1      45.006  29.742  58.599  0.00  0.00     0.102 C 
ATOM      4  N   UNL d   1      45.228  29.405  59.315  0.00  0.00    -0.191 NA
ATOM      5  C   UNL d   1      44.363  29.928  56.527  0.00  0.00     0.020 A 
ATOM      6  C   UNL d   1      44.757  30.901  57.803  0.00  0.00     0.031 A 
ATOM      7  C   UNL d   1      44.535  31.242  57.089  0.00  0.00     0.085 A 
ATOM      8  C   UNL d   1      44.334  30.753  56.439  0.00  0.00     0.021 A 
ENDROOT
BRANCH   2   9
ATOM      9  N   UNL d   1      44.609  28.772  57.316  0.00  0.00    -0.301 N 
ATOM     10  C   UNL d   1      44.827  28.320  56.665  0.00  0.00     0.100 A 
ATOM     11  C   UNL d   1      44.853  27.493  56.729  0.00  0.00     0.100 A 
ATOM     12  N   UNL d   1      44.659  27.133  57.448  0.00  0.00    -0.301 N 
ATOM     13  C   UNL d   1      44.441  27.594  58.098  0.00  0.00     0.100 A 
ATOM     14  C   UNL d   1      44.416  28.412  58.034  0.00  0.00     0.100 A 
BRANCH  12  15
ATOM     15  C   UNL d   1      44.685  26.305  57.512  0.00  0.00     0.064 A 
ATOM     16  C   UNL d   1      44.707  25.952  58.254  0.00  0.00     0.020 A 
ATOM     17  C   UNL d   1      44.733  25.128  58.318  0.00  0.00     0.026 A 
ATOM     18  C   UNL d   1      44.736  24.651  57.635  0.00  0.00     0.094 A 
ATOM     19  C   UNL d   1      44.714  25.006  56.882  0.00  0.00     0.026 A 
ATOM     20  C   UNL d   1      44.688  25.832  56.821  0.00  0.00     0.020 A 
BRANCH  18  21
ATOM     21  O   UNL d   1      44.762  23.827  57.692  0.00  0.00    -0.328 OA
ATOM     22  C   UNL d   1      44.549  23.467  58.400  0.00  0.00     0.181 C 
ENDBRANCH  18  21
ENDBRANCH  12  15
ENDBRANCH   2   9
BRANCH   7  23
ATOM     23  N   UNL d   1      44.508  32.061  57.006  0.00  0.00    -0.208 NA
ATOM     24  C   UNL d   1      44.414  32.395  56.262  0.00  0.00     0.279 C 
ATOM     25  O   UNL d   1      44.346  31.917  55.598  0.00  0.00    -0.265 OA
BRANCH  24  26
ATOM     26  C   UNL d   1      44.387  33.218  56.182  0.00  0.00     0.060 A 
ATOM     27  C   UNL d   1      44.407  33.556  55.443  0.00  0.00     0.031 A 
ATOM     28  C   UNL d   1      44.380  34.377  55.366  0.00  0.00     0.119 A 
ATOM     29  O   UNL d   1      44.390  34.867  54.713  0.00  0.00    -0.300 OA
ATOM     30  C   UNL d   1      44.334  34.844  56.035  0.00  0.00     0.119 A 
ATOM     31  C   UNL d   1      44.350  35.645  54.976  0.00  0.00     0.304 A 
ATOM     32  O   UNL d   1      44.316  35.631  55.794  0.00  0.00    -0.300 OA
ATOM     33  C   UNL d   1      44.314  34.506  56.784  0.00  0.00     0.026 A 
ATOM     34  C   UNL d   1      44.341  33.691  56.858  0.00  0.00     0.007 A 
ENDBRANCH  24  26
ENDBRANCH   7  23
TORSDOF 5
ENDMDL
