MODEL 1
REMARK VINA RESULT:      81.9      0.000      0.000
REMARK  4 active torsions:
REMARK  status: ('A' for Active; 'I' for Inactive)
REMARK    1  A    between atoms: N_11  and  C_4 
REMARK    2  A    between atoms: C_13  and  C_17 
REMARK    3  A    between atoms: C_17  and  N_16 
REMARK    4  A    between atoms: O_29  and  C_18 
ROOT
ATOM      1  N   UNL d   1     -50.978  26.011  33.402  0.00  0.00    -0.195 N 
ATOM      2  C   UNL d   1     -51.104  25.212  33.371  0.00  0.00     0.168 A 
ATOM      3  C   UNL d   1     -51.845  24.916  33.370  0.00  0.00     0.073 A 
ATOM      4  C   UNL d   1     -50.231  26.289  33.402  0.00  0.00     0.153 A 
ATOM      5  N   UNL d   1     -52.336  26.224  33.432  0.00  0.00    -0.143 NA
ATOM      6  C   UNL d   1     -52.462  25.424  33.400  0.00  0.00     0.185 A 
ATOM      7  N   UNL d   1     -50.479  24.710  33.340  0.00  0.00    -0.227 NA
ATOM      8  C   UNL d   1     -51.970  24.125  33.339  0.00  0.00     0.007 A 
ATOM      9  N   UNL d   1     -53.219  25.139  33.400  0.00  0.00    -0.225 NA
ATOM     10  C   UNL d   1     -49.608  25.797  33.372  0.00  0.00     0.057 A 
ATOM     11  C   UNL d   1     -52.713  23.829  33.338  0.00  0.00     0.019 A 
ATOM     12  C   UNL d   1     -49.734  24.997  33.341  0.00  0.00     0.086 A 
ATOM     13  C   UNL d   1     -53.345  24.340  33.369  0.00  0.00     0.083 A 
ATOM     14  C   UNL d   1     -51.341  23.623  33.308  0.00  0.00     0.000 C 
ATOM     15  C   UNL d   1     -49.081  24.479  33.309  0.00  0.00     0.021 C 
ATOM     16  C   UNL d   1     -54.085  24.052  33.368  0.00  0.00     0.021 C 
ENDROOT
BRANCH   4  17
ATOM     17  N   UNL d   1     -50.109  27.115  33.435  0.00  0.00    -0.286 N 
ATOM     18  C   UNL d   1     -50.594  27.775  33.490  0.00  0.00     0.101 A 
ATOM     19  C   UNL d   1     -50.258  28.538  33.509  0.00  0.00     0.100 A 
ATOM     20  N   UNL d   1     -49.436  28.645  33.472  0.00  0.00    -0.300 N 
ATOM     21  C   UNL d   1     -48.940  27.961  33.416  0.00  0.00     0.100 A 
ATOM     22  C   UNL d   1     -49.285  27.200  33.397  0.00  0.00     0.101 A 
BRANCH  20  23
ATOM     23  C   UNL d   1     -49.101  29.404  33.491  0.00  0.00     0.082 C 
BRANCH  23  24
ATOM     24  C   UNL d   1     -48.646  29.644  34.136  0.00  0.00     0.042 A 
ATOM     25  C   UNL d   1     -48.585  30.455  34.325  0.00  0.00     0.096 A 
ATOM     26  C   UNL d   1     -48.126  30.683  34.974  0.00  0.00     0.027 A 
ATOM     27  C   UNL d   1     -47.728  30.122  35.435  0.00  0.00     0.032 A 
ATOM     28  C   UNL d   1     -47.788  29.309  35.246  0.00  0.00     0.140 A 
ATOM     29  C   UNL d   1     -48.250  29.075  34.593  0.00  0.00     0.033 A 
ATOM     30  F   UNL d   1     -47.392  28.737  35.702  0.00  0.00    -0.204 F 
BRANCH  25  31
ATOM     31  O   UNL d   1     -48.976  31.014  33.873  0.00  0.00    -0.328 OA
ATOM     32  C   UNL d   1     -48.556  31.648  33.530  0.00  0.00     0.181 C 
ENDBRANCH  25  31
ENDBRANCH  23  24
ENDBRANCH  20  23
ENDBRANCH   4  17
TORSDOF 4
ENDMDL
MODEL 2
REMARK VINA RESULT:      83.1      2.112      6.264
REMARK  4 active torsions:
REMARK  status: ('A' for Active; 'I' for Inactive)
REMARK    1  A    between atoms: N_11  and  C_4 
REMARK    2  A    between atoms: C_13  and  C_17 
REMARK    3  A    between atoms: C_17  and  N_16 
REMARK    4  A    between atoms: O_29  and  C_18 
ROOT
ATOM      1  N   UNL d   1     -48.258  29.850  34.506  0.00  0.00    -0.195 N 
ATOM      2  C   UNL d   1     -47.891  30.424  34.944  0.00  0.00     0.168 A 
ATOM      3  C   UNL d   1     -47.834  31.171  34.669  0.00  0.00     0.073 A 
ATOM      4  C   UNL d   1     -48.306  29.109  34.796  0.00  0.00     0.153 A 
ATOM      5  N   UNL d   1     -48.514  30.768  33.516  0.00  0.00    -0.143 NA
ATOM      6  C   UNL d   1     -48.147  31.342  33.953  0.00  0.00     0.185 A 
ATOM      7  N   UNL d   1     -47.581  30.242  35.660  0.00  0.00    -0.227 NA
ATOM      8  C   UNL d   1     -47.471  31.740  35.102  0.00  0.00     0.007 A 
ATOM      9  N   UNL d   1     -48.097  32.095  33.661  0.00  0.00    -0.225 NA
ATOM     10  C   UNL d   1     -48.000  28.923  35.506  0.00  0.00     0.057 A 
ATOM     11  C   UNL d   1     -47.414  32.488  34.826  0.00  0.00     0.019 A 
ATOM     12  C   UNL d   1     -47.633  29.497  35.943  0.00  0.00     0.086 A 
ATOM     13  C   UNL d   1     -47.730  32.670  34.099  0.00  0.00     0.083 A 
ATOM     14  C   UNL d   1     -47.160  31.556  35.821  0.00  0.00     0.000 C 
ATOM     15  C   UNL d   1     -47.311  29.305  36.688  0.00  0.00     0.021 C 
ATOM     16  C   UNL d   1     -47.677  33.411  33.819  0.00  0.00     0.021 C 
ENDROOT
BRANCH   4  17
ATOM     17  N   UNL d   1     -48.687  28.521  34.339  0.00  0.00    -0.286 N 
ATOM     18  C   UNL d   1     -49.013  28.489  33.587  0.00  0.00     0.101 A 
ATOM     19  C   UNL d   1     -49.356  27.779  33.313  0.00  0.00     0.100 A 
ATOM     20  N   UNL d   1     -49.373  27.101  33.790  0.00  0.00    -0.300 N 
ATOM     21  C   UNL d   1     -49.035  27.140  34.565  0.00  0.00     0.100 A 
ATOM     22  C   UNL d   1     -48.694  27.854  34.831  0.00  0.00     0.101 A 
BRANCH  20  23
ATOM     23  C   UNL d   1     -49.714  26.394  33.518  0.00  0.00     0.082 C 
BRANCH  23  24
ATOM     24  C   UNL d   1     -50.533  26.325  33.448  0.00  0.00     0.042 A 
ATOM     25  C   UNL d   1     -50.886  25.569  33.407  0.00  0.00     0.096 A 
ATOM     26  C   UNL d   1     -51.709  25.513  33.337  0.00  0.00     0.027 A 
ATOM     27  C   UNL d   1     -52.183  26.192  33.307  0.00  0.00     0.032 A 
ATOM     28  C   UNL d   1     -51.830  26.949  33.347  0.00  0.00     0.140 A 
ATOM     29  C   UNL d   1     -51.002  27.010  33.418  0.00  0.00     0.033 A 
ATOM     30  F   UNL d   1     -52.297  27.636  33.318  0.00  0.00    -0.204 F 
BRANCH  25  31
ATOM     31  O   UNL d   1     -50.423  24.895  33.437  0.00  0.00    -0.328 OA
ATOM     32  C   UNL d   1     -50.762  24.145  33.306  0.00  0.00     0.181 C 
ENDBRANCH  25  31
ENDBRANCH  23  24
ENDBRANCH  20  23
ENDBRANCH   4  17
TORSDOF 4
ENDMDL
