MODEL 1
REMARK VINA RESULT:      -9.1      0.000      0.000
REMARK  5 active torsions:
REMARK  status: ('A' for Active; 'I' for Inactive)
REMARK    1  A    between atoms: C_2  and  C_1 
REMARK    2  A    between atoms: N_13  and  C_7 
REMARK    3  A    between atoms: C_12  and  C_21 
REMARK    4  A    between atoms: C_21  and  N_13 
REMARK    5  A    between atoms: O_24  and  C_22 
ROOT
ATOM      1  C   UNL d   1      52.076  33.386  52.989  0.00  0.00     0.089 A 
ATOM      2  C   UNL d   1      52.733  33.780  53.290  0.00  0.00     0.302 A 
ATOM      3  C   UNL d   1      52.080  32.558  52.931  0.00  0.00     0.009 A 
ATOM      4  O   UNL d   1      53.397  33.348  53.534  0.00  0.00    -0.273 OA
ATOM      5  C   UNL d   1      52.743  32.132  53.176  0.00  0.00     0.025 A 
ATOM      6  C   UNL d   1      53.400  32.526  53.476  0.00  0.00     0.103 A 
ATOM      7  O   UNL d   1      52.739  34.610  53.352  0.00  0.00    -0.259 OA
ATOM      8  C   UNL d   1      52.743  31.313  53.117  0.00  0.00     0.026 A 
ATOM      9  C   UNL d   1      54.059  32.102  53.719  0.00  0.00     0.027 A 
ATOM     10  C   UNL d   1      53.413  30.888  53.364  0.00  0.00     0.094 A 
ATOM     11  C   UNL d   1      54.064  31.278  53.662  0.00  0.00     0.026 A 
ENDROOT
BRANCH   1  12
ATOM     12  C   UNL d   1      51.412  33.814  52.745  0.00  0.00     0.140 A 
ATOM     13  S   UNL d   1      50.775  34.079  53.205  0.00  0.00    -0.026 SA
ATOM     14  C   UNL d   1      50.256  34.479  52.706  0.00  0.00     0.216 A 
ATOM     15  N   UNL d   1      50.574  34.460  51.945  0.00  0.00    -0.121 NA
ATOM     16  N   UNL d   1      51.285  34.050  51.973  0.00  0.00    -0.139 NA
BRANCH  14  17
ATOM     17  N   UNL d   1      49.543  34.838  52.922  0.00  0.00    -0.216 NA
BRANCH  17  18
ATOM     18  C   UNL d   1      49.044  35.141  52.337  0.00  0.00     0.126 C 
BRANCH  18  19
ATOM     19  C   UNL d   1      48.376  35.585  52.551  0.00  0.00     0.119 A 
ATOM     20  O   UNL d   1      48.179  36.010  53.229  0.00  0.00    -0.304 OA
ATOM     21  C   UNL d   1      47.437  36.337  53.121  0.00  0.00     0.123 A 
ATOM     22  C   UNL d   1      47.168  36.122  52.386  0.00  0.00     0.029 A 
ATOM     23  C   UNL d   1      47.748  35.652  52.021  0.00  0.00     0.028 A 
ENDBRANCH  18  19
ENDBRANCH  17  18
ENDBRANCH  14  17
ENDBRANCH   1  12
BRANCH  10  24
ATOM     24  O   UNL d   1      53.406  30.065  53.302  0.00  0.00    -0.328 OA
ATOM     25  C   UNL d   1      53.314  29.591  53.975  0.00  0.00     0.181 C 
ENDBRANCH  10  24
TORSDOF 5
ENDMDL
MODEL 2
REMARK VINA RESULT:      -8.6      1.149      1.905
REMARK  5 active torsions:
REMARK  status: ('A' for Active; 'I' for Inactive)
REMARK    1  A    between atoms: C_2  and  C_1 
REMARK    2  A    between atoms: N_13  and  C_7 
REMARK    3  A    between atoms: C_12  and  C_21 
REMARK    4  A    between atoms: C_21  and  N_13 
REMARK    5  A    between atoms: O_24  and  C_22 
ROOT
ATOM      1  C   UNL d   1      52.075  33.457  53.165  0.00  0.00     0.089 A 
ATOM      2  C   UNL d   1      52.214  32.663  52.999  0.00  0.00     0.302 A 
ATOM      3  C   UNL d   1      52.567  33.860  53.698  0.00  0.00     0.009 A 
ATOM      4  O   UNL d   1      52.845  32.270  53.364  0.00  0.00    -0.273 OA
ATOM      5  C   UNL d   1      53.195  33.465  54.060  0.00  0.00     0.025 A 
ATOM      6  C   UNL d   1      53.334  32.671  53.893  0.00  0.00     0.103 A 
ATOM      7  O   UNL d   1      51.726  32.250  52.466  0.00  0.00    -0.259 OA
ATOM      8  C   UNL d   1      53.679  33.868  54.586  0.00  0.00     0.026 A 
ATOM      9  C   UNL d   1      53.957  32.277  54.252  0.00  0.00     0.027 A 
ATOM     10  C   UNL d   1      54.310  33.465  54.947  0.00  0.00     0.094 A 
ATOM     11  C   UNL d   1      54.447  32.679  54.782  0.00  0.00     0.026 A 
ENDROOT
BRANCH   1  12
ATOM     12  C   UNL d   1      51.446  33.853  52.803  0.00  0.00     0.140 A 
ATOM     13  S   UNL d   1      50.721  34.077  53.137  0.00  0.00    -0.026 SA
ATOM     14  C   UNL d   1      50.283  34.455  52.551  0.00  0.00     0.216 A 
ATOM     15  N   UNL d   1      50.737  34.462  51.863  0.00  0.00    -0.121 NA
ATOM     16  N   UNL d   1      51.452  34.091  52.021  0.00  0.00    -0.139 NA
BRANCH  14  17
ATOM     17  N   UNL d   1      49.523  34.773  52.631  0.00  0.00    -0.216 NA
BRANCH  17  18
ATOM     18  C   UNL d   1      49.035  34.838  51.968  0.00  0.00     0.126 C 
BRANCH  18  19
ATOM     19  C   UNL d   1      48.323  35.263  52.016  0.00  0.00     0.119 A 
ATOM     20  O   UNL d   1      48.006  35.761  52.591  0.00  0.00    -0.304 OA
ATOM     21  C   UNL d   1      47.276  36.023  52.331  0.00  0.00     0.123 A 
ATOM     22  C   UNL d   1      47.134  35.695  51.601  0.00  0.00     0.029 A 
ATOM     23  C   UNL d   1      47.783  35.218  51.396  0.00  0.00     0.028 A 
ENDBRANCH  18  19
ENDBRANCH  17  18
ENDBRANCH  14  17
ENDBRANCH   1  12
BRANCH  10  24
ATOM     24  O   UNL d   1      54.793  33.876  55.475  0.00  0.00    -0.328 OA
ATOM     25  C   UNL d   1      55.570  34.075  55.271  0.00  0.00     0.181 C 
ENDBRANCH  10  24
TORSDOF 5
ENDMDL
MODEL 3
REMARK VINA RESULT:      -7.8      0.851      1.025
REMARK  5 active torsions:
REMARK  status: ('A' for Active; 'I' for Inactive)
REMARK    1  A    between atoms: C_2  and  C_1 
REMARK    2  A    between atoms: N_13  and  C_7 
REMARK    3  A    between atoms: C_12  and  C_21 
REMARK    4  A    between atoms: C_21  and  N_13 
REMARK    5  A    between atoms: O_24  and  C_22 
ROOT
ATOM      1  C   UNL d   1      51.757  33.470  52.966  0.00  0.00     0.089 A 
ATOM      2  C   UNL d   1      52.475  33.862  53.051  0.00  0.00     0.302 A 
ATOM      3  C   UNL d   1      51.735  32.640  52.969  0.00  0.00     0.009 A 
ATOM      4  O   UNL d   1      53.175  33.427  53.140  0.00  0.00    -0.273 OA
ATOM      5  C   UNL d   1      52.434  32.210  53.058  0.00  0.00     0.025 A 
ATOM      6  C   UNL d   1      53.153  32.603  53.143  0.00  0.00     0.103 A 
ATOM      7  O   UNL d   1      52.508  34.694  53.049  0.00  0.00    -0.259 OA
ATOM      8  C   UNL d   1      52.408  31.390  53.060  0.00  0.00     0.026 A 
ATOM      9  C   UNL d   1      53.847  32.176  53.231  0.00  0.00     0.027 A 
ATOM     10  C   UNL d   1      53.115  30.962  53.150  0.00  0.00     0.094 A 
ATOM     11  C   UNL d   1      53.826  31.350  53.234  0.00  0.00     0.026 A 
ENDROOT
BRANCH   1  12
ATOM     12  C   UNL d   1      51.057  33.901  52.877  0.00  0.00     0.140 A 
ATOM     13  S   UNL d   1      50.627  34.044  52.182  0.00  0.00    -0.026 SA
ATOM     14  C   UNL d   1      49.973  34.502  52.383  0.00  0.00     0.216 A 
ATOM     15  N   UNL d   1      50.002  34.639  53.196  0.00  0.00    -0.121 NA
ATOM     16  N   UNL d   1      50.670  34.268  53.496  0.00  0.00    -0.139 NA
BRANCH  14  17
ATOM     17  N   UNL d   1      49.388  34.779  51.868  0.00  0.00    -0.216 NA
BRANCH  17  18
ATOM     18  C   UNL d   1      48.666  35.040  52.172  0.00  0.00     0.126 C 
BRANCH  18  19
ATOM     19  C   UNL d   1      48.022  35.163  51.663  0.00  0.00     0.119 A 
ATOM     20  O   UNL d   1      47.869  34.933  50.886  0.00  0.00    -0.304 OA
ATOM     21  C   UNL d   1      47.133  35.220  50.672  0.00  0.00     0.123 A 
ATOM     22  C   UNL d   1      46.825  35.625  51.305  0.00  0.00     0.029 A 
ATOM     23  C   UNL d   1      47.373  35.596  51.929  0.00  0.00     0.028 A 
ENDBRANCH  18  19
ENDBRANCH  17  18
ENDBRANCH  14  17
ENDBRANCH   1  12
BRANCH  10  24
ATOM     24  O   UNL d   1      53.082  30.137  53.151  0.00  0.00    -0.328 OA
ATOM     25  C   UNL d   1      53.418  29.701  53.770  0.00  0.00     0.181 C 
ENDBRANCH  10  24
TORSDOF 5
ENDMDL
MODEL 4
REMARK VINA RESULT:      -7.7      1.714      5.841
REMARK  5 active torsions:
REMARK  status: ('A' for Active; 'I' for Inactive)
REMARK    1  A    between atoms: C_2  and  C_1 
REMARK    2  A    between atoms: N_13  and  C_7 
REMARK    3  A    between atoms: C_12  and  C_21 
REMARK    4  A    between atoms: C_21  and  N_13 
REMARK    5  A    between atoms: O_24  and  C_22 
ROOT
ATOM      1  C   UNL d   1      49.929  34.527  52.616  0.00  0.00     0.089 A 
ATOM      2  C   UNL d   1      49.761  34.481  51.812  0.00  0.00     0.302 A 
ATOM      3  C   UNL d   1      49.435  34.964  53.119  0.00  0.00     0.009 A 
ATOM      4  O   UNL d   1      49.097  34.873  51.507  0.00  0.00    -0.273 OA
ATOM      5  C   UNL d   1      48.775  35.353  52.811  0.00  0.00     0.025 A 
ATOM      6  C   UNL d   1      48.607  35.307  52.007  0.00  0.00     0.103 A 
ATOM      7  O   UNL d   1      50.251  34.045  51.299  0.00  0.00    -0.259 OA
ATOM      8  C   UNL d   1      48.288  35.785  53.312  0.00  0.00     0.026 A 
ATOM      9  C   UNL d   1      47.951  35.693  51.701  0.00  0.00     0.027 A 
ATOM     10  C   UNL d   1      47.625  36.174  52.997  0.00  0.00     0.094 A 
ATOM     11  C   UNL d   1      47.458  36.129  52.201  0.00  0.00     0.026 A 
ENDROOT
BRANCH   1  12
ATOM     12  C   UNL d   1      50.591  34.137  52.924  0.00  0.00     0.140 A 
ATOM     13  S   UNL d   1      51.370  34.416  52.980  0.00  0.00    -0.026 SA
ATOM     14  C   UNL d   1      51.823  33.822  53.326  0.00  0.00     0.216 A 
ATOM     15  N   UNL d   1      51.325  33.183  53.480  0.00  0.00    -0.121 NA
ATOM     16  N   UNL d   1      50.568  33.381  53.231  0.00  0.00    -0.139 NA
BRANCH  14  17
ATOM     17  N   UNL d   1      52.633  33.853  53.492  0.00  0.00    -0.216 NA
BRANCH  17  18
ATOM     18  C   UNL d   1      52.917  33.542  54.202  0.00  0.00     0.126 C 
BRANCH  18  19
ATOM     19  C   UNL d   1      53.735  33.462  54.323  0.00  0.00     0.119 A 
ATOM     20  O   UNL d   1      54.348  33.187  53.845  0.00  0.00    -0.304 OA
ATOM     21  C   UNL d   1      55.046  33.240  54.267  0.00  0.00     0.123 A 
ATOM     22  C   UNL d   1      54.878  33.544  55.001  0.00  0.00     0.029 A 
ATOM     23  C   UNL d   1      54.061  33.686  55.046  0.00  0.00     0.028 A 
ENDBRANCH  18  19
ENDBRANCH  17  18
ENDBRANCH  14  17
ENDBRANCH   1  12
BRANCH  10  24
ATOM     24  O   UNL d   1      47.140  36.606  53.506  0.00  0.00    -0.328 OA
ATOM     25  C   UNL d   1      46.336  36.709  53.338  0.00  0.00     0.181 C 
ENDBRANCH  10  24
TORSDOF 5
ENDMDL
MODEL 5
REMARK VINA RESULT:      -7.6      1.162      5.786
REMARK  5 active torsions:
REMARK  status: ('A' for Active; 'I' for Inactive)
REMARK    1  A    between atoms: C_2  and  C_1 
REMARK    2  A    between atoms: N_13  and  C_7 
REMARK    3  A    between atoms: C_12  and  C_21 
REMARK    4  A    between atoms: C_21  and  N_13 
REMARK    5  A    between atoms: O_24  and  C_22 
ROOT
ATOM      1  C   UNL d   1      49.976  34.609  52.563  0.00  0.00     0.089 A 
ATOM      2  C   UNL d   1      49.641  34.524  51.816  0.00  0.00     0.302 A 
ATOM      3  C   UNL d   1      49.581  35.047  53.147  0.00  0.00     0.009 A 
ATOM      4  O   UNL d   1      48.909  34.876  51.650  0.00  0.00    -0.273 OA
ATOM      5  C   UNL d   1      48.853  35.396  52.977  0.00  0.00     0.025 A 
ATOM      6  C   UNL d   1      48.517  35.311  52.231  0.00  0.00     0.103 A 
ATOM      7  O   UNL d   1      50.029  34.086  51.224  0.00  0.00    -0.259 OA
ATOM      8  C   UNL d   1      48.466  35.829  53.558  0.00  0.00     0.026 A 
ATOM      9  C   UNL d   1      47.794  35.658  52.062  0.00  0.00     0.027 A 
ATOM     10  C   UNL d   1      47.732  36.178  53.382  0.00  0.00     0.094 A 
ATOM     11  C   UNL d   1      47.400  36.094  52.643  0.00  0.00     0.026 A 
ENDROOT
BRANCH   1  12
ATOM     12  C   UNL d   1      50.706  34.259  52.732  0.00  0.00     0.140 A 
ATOM     13  S   UNL d   1      50.852  33.510  53.057  0.00  0.00    -0.026 SA
ATOM     14  C   UNL d   1      51.668  33.419  53.116  0.00  0.00     0.216 A 
ATOM     15  N   UNL d   1      52.020  34.108  52.829  0.00  0.00    -0.121 NA
ATOM     16  N   UNL d   1      51.424  34.622  52.594  0.00  0.00    -0.139 NA
BRANCH  14  17
ATOM     17  N   UNL d   1      52.071  32.759  53.410  0.00  0.00    -0.216 NA
BRANCH  17  18
ATOM     18  C   UNL d   1      52.434  32.234  52.885  0.00  0.00     0.126 C 
BRANCH  18  19
ATOM     19  C   UNL d   1      52.866  31.587  53.176  0.00  0.00     0.119 A 
ATOM     20  O   UNL d   1      53.457  31.520  53.746  0.00  0.00    -0.304 OA
ATOM     21  C   UNL d   1      53.676  30.733  53.798  0.00  0.00     0.123 A 
ATOM     22  C   UNL d   1      53.229  30.310  53.268  0.00  0.00     0.029 A 
ATOM     23  C   UNL d   1      52.719  30.835  52.875  0.00  0.00     0.028 A 
ENDBRANCH  18  19
ENDBRANCH  17  18
ENDBRANCH  14  17
ENDBRANCH   1  12
BRANCH  10  24
ATOM     24  O   UNL d   1      47.348  36.612  53.970  0.00  0.00    -0.328 OA
ATOM     25  C   UNL d   1      46.585  36.407  54.217  0.00  0.00     0.181 C 
ENDBRANCH  10  24
TORSDOF 5
ENDMDL
MODEL 6
REMARK VINA RESULT:      -6.5      1.657      2.106
REMARK  5 active torsions:
REMARK  status: ('A' for Active; 'I' for Inactive)
REMARK    1  A    between atoms: C_2  and  C_1 
REMARK    2  A    between atoms: N_13  and  C_7 
REMARK    3  A    between atoms: C_12  and  C_21 
REMARK    4  A    between atoms: C_21  and  N_13 
REMARK    5  A    between atoms: O_24  and  C_22 
ROOT
ATOM      1  C   UNL d   1      51.018  34.258  52.803  0.00  0.00     0.089 A 
ATOM      2  C   UNL d   1      51.386  34.008  52.111  0.00  0.00     0.302 A 
ATOM      3  C   UNL d   1      51.399  34.159  53.534  0.00  0.00     0.009 A 
ATOM      4  O   UNL d   1      52.137  33.658  52.146  0.00  0.00    -0.273 OA
ATOM      5  C   UNL d   1      52.146  33.809  53.565  0.00  0.00     0.025 A 
ATOM      6  C   UNL d   1      52.514  33.559  52.873  0.00  0.00     0.103 A 
ATOM      7  O   UNL d   1      51.013  34.104  51.373  0.00  0.00    -0.259 OA
ATOM      8  C   UNL d   1      52.519  33.713  54.290  0.00  0.00     0.026 A 
ATOM      9  C   UNL d   1      53.256  33.212  52.903  0.00  0.00     0.027 A 
ATOM     10  C   UNL d   1      53.271  33.360  54.316  0.00  0.00     0.094 A 
ATOM     11  C   UNL d   1      53.636  33.113  53.630  0.00  0.00     0.026 A 
ENDROOT
BRANCH   1  12
ATOM     12  C   UNL d   1      50.270  34.608  52.771  0.00  0.00     0.140 A 
ATOM     13  S   UNL d   1      49.646  34.438  52.252  0.00  0.00    -0.026 SA
ATOM     14  C   UNL d   1      49.019  34.936  52.443  0.00  0.00     0.216 A 
ATOM     15  N   UNL d   1      49.257  35.409  53.075  0.00  0.00    -0.121 NA
ATOM     16  N   UNL d   1      50.027  35.204  53.274  0.00  0.00    -0.139 NA
BRANCH  14  17
ATOM     17  N   UNL d   1      48.280  34.963  52.072  0.00  0.00    -0.216 NA
BRANCH  17  18
ATOM     18  C   UNL d   1      47.850  35.668  52.068  0.00  0.00     0.126 C 
BRANCH  18  19
ATOM     19  C   UNL d   1      47.084  35.686  51.747  0.00  0.00     0.119 A 
ATOM     20  O   UNL d   1      46.700  35.218  51.187  0.00  0.00    -0.304 OA
ATOM     21  C   UNL d   1      45.939  35.503  51.093  0.00  0.00     0.123 A 
ATOM     22  C   UNL d   1      45.843  36.141  51.586  0.00  0.00     0.029 A 
ATOM     23  C   UNL d   1      46.554  36.263  51.999  0.00  0.00     0.028 A 
ENDBRANCH  18  19
ENDBRANCH  17  18
ENDBRANCH  14  17
ENDBRANCH   1  12
BRANCH  10  24
ATOM     24  O   UNL d   1      53.640  33.266  55.047  0.00  0.00    -0.328 OA
ATOM     25  C   UNL d   1      54.364  32.869  55.109  0.00  0.00     0.181 C 
ENDBRANCH  10  24
TORSDOF 5
ENDMDL
MODEL 7
REMARK VINA RESULT:      -6.1      1.166      6.090
REMARK  5 active torsions:
REMARK  status: ('A' for Active; 'I' for Inactive)
REMARK    1  A    between atoms: C_2  and  C_1 
REMARK    2  A    between atoms: N_13  and  C_7 
REMARK    3  A    between atoms: C_12  and  C_21 
REMARK    4  A    between atoms: C_21  and  N_13 
REMARK    5  A    between atoms: O_24  and  C_22 
ROOT
ATOM      1  C   UNL d   1      48.922  35.112  52.443  0.00  0.00     0.089 A 
ATOM      2  C   UNL d   1      48.787  35.639  53.061  0.00  0.00     0.302 A 
ATOM      3  C   UNL d   1      48.342  35.001  51.859  0.00  0.00     0.009 A 
ATOM      4  O   UNL d   1      48.073  36.058  53.096  0.00  0.00    -0.273 OA
ATOM      5  C   UNL d   1      47.632  35.420  51.899  0.00  0.00     0.025 A 
ATOM      6  C   UNL d   1      47.498  35.948  52.516  0.00  0.00     0.103 A 
ATOM      7  O   UNL d   1      49.361  35.757  53.651  0.00  0.00    -0.259 OA
ATOM      8  C   UNL d   1      47.062  35.308  51.319  0.00  0.00     0.026 A 
ATOM      9  C   UNL d   1      46.793  36.364  52.556  0.00  0.00     0.027 A 
ATOM     10  C   UNL d   1      46.349  35.732  51.363  0.00  0.00     0.094 A 
ATOM     11  C   UNL d   1      46.216  36.254  51.975  0.00  0.00     0.026 A 
ENDROOT
BRANCH   1  12
ATOM     12  C   UNL d   1      49.633  34.693  52.405  0.00  0.00     0.140 A 
ATOM     13  S   UNL d   1      49.976  34.210  52.986  0.00  0.00    -0.026 SA
ATOM     14  C   UNL d   1      50.683  33.918  52.682  0.00  0.00     0.216 A 
ATOM     15  N   UNL d   1      50.773  34.219  51.920  0.00  0.00    -0.121 NA
ATOM     16  N   UNL d   1      50.125  34.696  51.753  0.00  0.00    -0.139 NA
BRANCH  14  17
ATOM     17  N   UNL d   1      51.213  33.412  53.066  0.00  0.00    -0.216 NA
BRANCH  17  18
ATOM     18  C   UNL d   1      52.019  33.454  52.889  0.00  0.00     0.126 C 
BRANCH  18  19
ATOM     19  C   UNL d   1      52.520  32.821  53.084  0.00  0.00     0.119 A 
ATOM     20  O   UNL d   1      52.445  32.003  53.008  0.00  0.00    -0.304 OA
ATOM     21  C   UNL d   1      53.126  31.654  53.298  0.00  0.00     0.123 A 
ATOM     22  C   UNL d   1      53.624  32.242  53.554  0.00  0.00     0.029 A 
ATOM     23  C   UNL d   1      53.254  32.975  53.424  0.00  0.00     0.028 A 
ENDBRANCH  18  19
ENDBRANCH  17  18
ENDBRANCH  14  17
ENDBRANCH   1  12
BRANCH  10  24
ATOM     24  O   UNL d   1      45.780  35.615  50.777  0.00  0.00    -0.328 OA
ATOM     25  C   UNL d   1      45.002  35.876  50.884  0.00  0.00     0.181 C 
ENDBRANCH  10  24
TORSDOF 5
ENDMDL
