MODEL 1
REMARK VINA RESULT:      35.9      0.000      0.000
REMARK  9 active torsions:
REMARK  status: ('A' for Active; 'I' for Inactive)
REMARK    1  A    between atoms: C_3  and  C_1 
REMARK    2  A    between atoms: C_4  and  C_1 
REMARK    3  A    between atoms: C_2  and  C_4 
REMARK    4  A    between atoms: O_9  and  C_2 
REMARK       I    between atoms: N_6  and  C_3 
REMARK    5  A    between atoms: N_5  and  C_4 
REMARK    6  A    between atoms: C_10  and  N_5 
REMARK    7  A    between atoms: C_11  and  N_6 
REMARK    8  A    between atoms: C_12  and  C_10 
REMARK    9  A    between atoms: C_13  and  C_11 
ROOT
ATOM      1  C   UNK d   1      61.055  48.307  50.929  0.00  0.00     0.124 C 
ENDROOT
BRANCH   1   2
ATOM      2  C   UNK d   1      61.336  48.997  50.548  0.00  0.00     0.194 C 
ATOM      3  O   UNK d   1      61.411  49.696  50.965  0.00  0.00    -0.645 OA
BRANCH   2   4
ATOM      4  O   UNK d   1      61.541  48.973  49.740  0.00  0.00    -0.772 OA
ATOM      5  H   UNK d   1      61.158  48.444  49.233  0.00  0.00     0.167 HD
ENDBRANCH   2   4
ENDBRANCH   1   2
BRANCH   1   6
ATOM      6  C   UNK d   1      60.443  48.357  51.479  0.00  0.00     0.084 C 
BRANCH   6   7
ATOM      7  C   UNK d   1      59.941  49.004  51.469  0.00  0.00     0.259 C 
ATOM      8  N   UNK d   1      59.355  49.056  50.890  0.00  0.00    -0.320 N 
ATOM      9  H   UNK d   1      59.275  48.452  50.318  0.00  0.00     0.169 HD
ATOM     10  O   UNK d   1      60.021  49.606  52.038  0.00  0.00    -0.267 OA
BRANCH   8  11
ATOM     11  C   UNK d   1      58.846  49.705  50.875  0.00  0.00     0.075 C 
BRANCH  11  12
ATOM     12  C   UNK d   1      58.173  49.701  50.389  0.00  0.00     0.017 C 
ATOM     13  C   UNK d   1      58.249  49.694  49.567  0.00  0.00     0.002 C 
ATOM     14  C   UNK d   1      57.419  49.703  50.733  0.00  0.00     0.002 C 
ENDBRANCH  11  12
ENDBRANCH   8  11
ENDBRANCH   6   7
ENDBRANCH   1   6
BRANCH   1  15
ATOM     15  N   UNK d   1      61.386  47.573  50.757  0.00  0.00    -0.347 N 
ATOM     16  H   UNK d   1      61.943  47.249  51.286  0.00  0.00     0.166 HD
BRANCH  15  17
ATOM     17  C   UNK d   0      61.168  47.163  50.071  0.00  0.00     0.073 C 
BRANCH  17  18
ATOM     18  C   UNK d   0      61.363  46.374  49.985  0.00  0.00     0.017 C 
ATOM     19  C   UNK d   0      62.111  46.161  49.709  0.00  0.00     0.002 C 
ATOM     20  C   UNK d   0      60.812  45.792  50.176  0.00  0.00     0.002 C 
ENDBRANCH  17  18
ENDBRANCH  15  17
ENDBRANCH   1  15
TORSDOF 9
ENDMDL
