MODEL 1
REMARK VINA RESULT:      52.5      0.000      0.000
REMARK  3 active torsions:
REMARK  status: ('A' for Active; 'I' for Inactive)
REMARK    1  A    between atoms: C_8  and  C_6 
REMARK    2  A    between atoms: C_9  and  C_8 
REMARK       I    between atoms: N_10  and  C_9 
REMARK    3  A    between atoms: C_13  and  N_10 
ROOT
ATOM      1  N   UNL d   1      15.331  15.611  -0.584  0.00  0.00    -0.207 NA
ATOM      2  N   UNL d   1      14.610  14.820  -1.876  0.00  0.00    -0.240 NA
ATOM      3  C   UNL d   1      15.050  14.848  -0.680  0.00  0.00     0.297 A 
ATOM      4  C   UNL d   1      15.335  16.234  -1.130  0.00  0.00     0.086 A 
ATOM      5  C   UNL d   1      14.721  15.550  -2.222  0.00  0.00     0.083 A 
ATOM      6  C   UNL d   1      14.810  14.591  -1.117  0.00  0.00     0.144 A 
ATOM      7  C   UNL d   1      15.054  16.237  -1.911  0.00  0.00     0.035 A 
ATOM      8  O   UNL d   1      15.137  14.374  -0.016  0.00  0.00    -0.264 OA
ATOM      9  C   UNL d   1      15.113  16.921  -2.360  0.00  0.00     0.003 A 
ATOM     10  C   UNL d   1      15.671  16.921  -0.810  0.00  0.00     0.019 A 
ATOM     11  C   UNL d   1      14.440  15.551  -3.001  0.00  0.00     0.019 A 
ATOM     12  C   UNL d   1      14.496  16.241  -3.463  0.00  0.00     0.002 A 
ATOM     13  C   UNL d   1      15.725  17.603  -1.271  0.00  0.00     0.002 A 
ATOM     14  C   UNL d   1      14.833  16.925  -3.141  0.00  0.00     0.000 A 
ATOM     15  C   UNL d   1      15.449  17.605  -2.038  0.00  0.00     0.000 A 
ENDROOT
BRANCH   6  16
ATOM     16  C   UNL d   1      14.617  13.805  -0.951  0.00  0.00     0.086 C 
BRANCH  16  17
ATOM     17  C   UNL d   1      15.225  13.250  -0.844  0.00  0.00     0.281 C 
ATOM     18  N   UNL d   1      15.115  12.472  -1.085  0.00  0.00    -0.208 NA
ATOM     19  O   UNL d   1      15.940  13.473  -0.497  0.00  0.00    -0.265 OA
BRANCH  18  20
ATOM     20  C   UNL d   1      14.405  12.242  -1.432  0.00  0.00     0.085 A 
ATOM     21  C   UNL d   1      14.327  12.232  -2.254  0.00  0.00     0.019 A 
ATOM     22  C   UNL d   1      13.620  12.003  -2.594  0.00  0.00     0.002 A 
ATOM     23  C   UNL d   1      13.545  11.994  -3.407  0.00  0.00     0.000 C 
ATOM     24  C   UNL d   1      12.984  11.780  -2.123  0.00  0.00     0.000 A 
ATOM     25  C   UNL d   1      13.061  11.789  -1.297  0.00  0.00     0.002 A 
ATOM     26  C   UNL d   1      13.776  12.021  -0.956  0.00  0.00     0.019 A 
ENDBRANCH  18  20
ENDBRANCH  16  17
ENDBRANCH   6  16
TORSDOF 3
ENDMDL
