MODEL 1
REMARK VINA RESULT:       0.9      0.000      0.000
REMARK  5 active torsions:
REMARK  status: ('A' for Active; 'I' for Inactive)
REMARK    1  A    between atoms: S_5  and  C_3 
REMARK    2  A    between atoms: C_13  and  S_5 
REMARK    3  A    between atoms: C_23  and  N_7 
REMARK    4  A    between atoms: C_30  and  C_23 
REMARK    5  A    between atoms: O_29  and  C_30 
ROOT
ATOM      1  C   UNL d   1      33.240  20.064 -22.370  0.00  0.00     0.155 A 
ATOM      2  C   UNL d   1      33.240  19.765 -21.611  0.00  0.00     0.092 A 
ATOM      3  C   UNL d   1      33.240  21.081 -21.093  0.00  0.00     0.124 A 
ATOM      4  N   UNL d   1      33.240  19.562 -23.013  0.00  0.00    -0.210 NA
ATOM      5  N   UNL d   1      33.240  18.447 -22.145  0.00  0.00    -0.258 N 
ATOM      6  N   UNL d   1      33.240  20.873 -22.497  0.00  0.00    -0.271 N 
ATOM      7  C   UNL d   1      33.240  18.754 -22.901  0.00  0.00     0.152 A 
ATOM      8  C   UNL d   1      33.240  21.379 -21.852  0.00  0.00     0.181 A 
ATOM      9  C   UNL d   1      33.240  18.956 -21.494  0.00  0.00     0.269 A 
ATOM     10  C   UNL d   1      33.240  20.267 -20.968  0.00  0.00     0.022 A 
ATOM     11  C   UNL d   1      33.240  18.252 -23.544  0.00  0.00     0.035 A 
ATOM     12  C   UNL d   1      33.240  17.638 -22.028  0.00  0.00     0.084 A 
ATOM     13  N   UNL d   1      33.240  22.208 -21.981  0.00  0.00    -0.128 N 
ATOM     14  O   UNL d   1      33.240  18.641 -20.718  0.00  0.00    -0.266 OA
ATOM     15  C   UNL d   1      33.240  17.138 -22.676  0.00  0.00     0.019 A 
ATOM     16  C   UNL d   1      33.240  17.444 -23.432  0.00  0.00     0.005 A 
ATOM     17  C   UNL d   1      33.240  18.567 -24.320  0.00  0.00     0.003 C 
ENDROOT
BRANCH   3  18
ATOM     18  S   UNL d   1      33.240  21.599 -20.443  0.00  0.00     0.213 S 
ATOM     19  O   UNL d   1      33.241  20.955 -19.912  0.00  0.00    -0.217 OA
ATOM     20  O   UNL d   1      33.240  22.244 -20.964  0.00  0.00    -0.217 OA
BRANCH  18  21
ATOM     21  C   UNL d   1      33.241  22.129 -19.798  0.00  0.00     0.088 A 
ATOM     22  C   UNL d   1      33.241  22.945 -19.930  0.00  0.00     0.014 A 
ATOM     23  C   UNL d   1      33.241  23.471 -19.286  0.00  0.00     0.030 A 
ATOM     24  C   UNL d   1      33.241  23.173 -18.508  0.00  0.00     0.140 A 
ATOM     25  C   UNL d   1      33.241  22.343 -18.380  0.00  0.00     0.030 A 
ATOM     26  F   UNL d   1      33.241  23.699 -17.855  0.00  0.00    -0.204 F 
ATOM     27  C   UNL d   1      33.241  21.828 -19.025  0.00  0.00     0.014 A 
ENDBRANCH  18  21
ENDBRANCH   3  18
BRANCH   6  28
ATOM     28  C   UNL d   1      33.240  21.176 -23.268  0.00  0.00     0.109 C 
BRANCH  28  29
ATOM     29  C   UNL d   1      32.833  21.881 -23.437  0.00  0.00     0.135 C 
BRANCH  29  30
ATOM     30  O   UNL d   1      32.899  22.230 -24.196  0.00  0.00    -0.325 OA
ATOM     31  C   UNL d   1      32.369  22.829 -24.425  0.00  0.00     0.182 C 
ENDBRANCH  29  30
ENDBRANCH  28  29
ENDBRANCH   6  28
TORSDOF 5
ENDMDL
MODEL 2
REMARK VINA RESULT:       3.5      2.756      4.166
REMARK  5 active torsions:
REMARK  status: ('A' for Active; 'I' for Inactive)
REMARK    1  A    between atoms: S_5  and  C_3 
REMARK    2  A    between atoms: C_13  and  S_5 
REMARK    3  A    between atoms: C_23  and  N_7 
REMARK    4  A    between atoms: C_30  and  C_23 
REMARK    5  A    between atoms: O_29  and  C_30 
ROOT
ATOM      1  C   UNL d   1      31.394  17.578 -23.873  0.00  0.00     0.155 A 
ATOM      2  C   UNL d   1      30.876  18.196 -23.742  0.00  0.00     0.092 A 
ATOM      3  C   UNL d   1      31.921  18.946 -23.155  0.00  0.00     0.124 A 
ATOM      4  N   UNL d   1      31.137  16.892 -24.231  0.00  0.00    -0.210 NA
ATOM      5  N   UNL d   1      29.835  17.430 -24.335  0.00  0.00    -0.258 N 
ATOM      6  N   UNL d   1      32.178  17.640 -23.646  0.00  0.00    -0.271 N 
ATOM      7  C   UNL d   1      30.358  16.817 -24.462  0.00  0.00     0.152 A 
ATOM      8  C   UNL d   1      32.437  18.329 -23.286  0.00  0.00     0.181 A 
ATOM      9  C   UNL d   1      30.095  18.125 -23.972  0.00  0.00     0.269 A 
ATOM     10  C   UNL d   1      31.133  18.882 -23.384  0.00  0.00     0.022 A 
ATOM     11  C   UNL d   1      30.102  16.131 -24.820  0.00  0.00     0.035 A 
ATOM     12  C   UNL d   1      29.053  17.360 -24.564  0.00  0.00     0.084 A 
ATOM     13  N   UNL d   1      33.241  18.393 -23.054  0.00  0.00    -0.128 N 
ATOM     14  O   UNL d   1      29.558  18.755 -23.841  0.00  0.00    -0.266 OA
ATOM     15  C   UNL d   1      28.800  16.669 -24.923  0.00  0.00     0.019 A 
ATOM     16  C   UNL d   1      29.323  16.056 -25.051  0.00  0.00     0.005 A 
ATOM     17  C   UNL d   1      30.639  15.502 -24.951  0.00  0.00     0.003 C 
ENDROOT
BRANCH   3  18
ATOM     18  S   UNL d   1      32.190  19.643 -22.789  0.00  0.00     0.213 S 
ATOM     19  O   UNL d   1      32.485  19.927 -23.516  0.00  0.00    -0.217 OA
ATOM     20  O   UNL d   1      31.899  19.367 -22.063  0.00  0.00    -0.217 OA
BRANCH  18  21
ATOM     21  C   UNL d   1      32.455  20.338 -22.411  0.00  0.00     0.088 A 
ATOM     22  C   UNL d   1      32.892  20.900 -22.832  0.00  0.00     0.014 A 
ATOM     23  C   UNL d   1      33.155  21.591 -22.453  0.00  0.00     0.030 A 
ATOM     24  C   UNL d   1      32.978  21.716 -21.649  0.00  0.00     0.140 A 
ATOM     25  C   UNL d   1      32.534  21.142 -21.227  0.00  0.00     0.030 A 
ATOM     26  F   UNL d   1      33.241  22.412 -21.261  0.00  0.00    -0.204 F 
ATOM     27  C   UNL d   1      32.276  20.458 -21.610  0.00  0.00     0.014 A 
ENDBRANCH  18  21
ENDBRANCH   3  18
BRANCH   6  28
ATOM     28  C   UNL d   1      32.703  17.012 -23.780  0.00  0.00     0.109 C 
BRANCH  28  29
ATOM     29  C   UNL d   1      33.112  16.671 -23.142  0.00  0.00     0.135 C 
BRANCH  29  30
ATOM     30  O   UNL d   1      33.115  15.839 -23.043  0.00  0.00    -0.325 OA
ATOM     31  C   UNL d   1      32.764  15.499 -22.370  0.00  0.00     0.182 C 
ENDBRANCH  29  30
ENDBRANCH  28  29
ENDBRANCH   6  28
TORSDOF 5
ENDMDL
