MODEL 1
REMARK VINA RESULT:      47.1      0.000      0.000
REMARK  5 active torsions:
REMARK  status: ('A' for Active; 'I' for Inactive)
REMARK    1  A    between atoms: N_2  and  S_1 
REMARK    2  A    between atoms: C_7  and  S_1 
REMARK    3  A    between atoms: C_3  and  N_2 
REMARK       I    between atoms: C_11  and  N_12 
REMARK    4  A    between atoms: C_19  and  C_11 
REMARK    5  A    between atoms: N_12  and  C_16 
ROOT
ATOM      1  C   UNL d   1      59.719  49.352  50.442  0.00  0.00     0.105 A 
ATOM      2  C   UNL d   1      59.607  49.168  49.640  0.00  0.00     0.015 A 
ATOM      3  C   UNL d   1      59.113  49.574  50.908  0.00  0.00     0.015 A 
ATOM      4  C   UNL d   1      58.237  49.437  49.769  0.00  0.00     0.085 A 
ATOM      5  C   UNL d   1      58.865  49.213  49.313  0.00  0.00     0.020 A 
ATOM      6  C   UNL d   1      58.351  49.620  50.571  0.00  0.00     0.020 A 
ENDROOT
BRANCH   1   7
ATOM      7  S   UNL d   1      60.493  49.302  50.771  0.00  0.00     0.287 S 
ATOM      8  O   UNL d   1      60.821  49.143  50.002  0.00  0.00    -0.198 OA
ATOM      9  O   UNL d   1      60.181  49.455  51.519  0.00  0.00    -0.198 OA
BRANCH   7  10
ATOM     10  N   UNL d   1      61.255  49.253  51.102  0.00  0.00    -0.137 NA
BRANCH  10  11
ATOM     11  C   UNL d   1      61.352  49.192  51.929  0.00  0.00     0.203 A 
ATOM     12  N   UNL d   1      61.054  48.537  52.314  0.00  0.00    -0.106 NA
ATOM     13  O   UNL d   1      61.238  48.640  53.120  0.00  0.00    -0.210 OA
ATOM     14  C   UNL d   1      61.636  49.343  53.210  0.00  0.00     0.128 A 
ATOM     15  C   UNL d   1      61.713  49.699  52.456  0.00  0.00     0.069 A 
ATOM     16  C   UNL d   1      61.917  49.652  53.920  0.00  0.00     0.029 C 
ENDBRANCH  10  11
ENDBRANCH   7  10
ENDBRANCH   1   7
BRANCH   4  17
ATOM     17  N   UNL d   1      57.472  49.486  49.440  0.00  0.00    -0.208 NA
ATOM     18  C   UNL d   1      56.820  49.574  49.927  0.00  0.00     0.279 C 
ATOM     19  O   UNL d   1      56.061  49.622  49.600  0.00  0.00    -0.265 OA
BRANCH  18  20
ATOM     20  C   UNL d   1      56.924  49.614  50.735  0.00  0.00     0.062 C 
ATOM     21  C   UNL d   1      56.263  49.556  51.254  0.00  0.00     0.005 C 
ENDBRANCH  18  20
ENDBRANCH   4  17
TORSDOF 5
ENDMDL
