MODEL 1
REMARK VINA RESULT:      33.5      0.000      0.000
REMARK  3 active torsions:
REMARK  status: ('A' for Active; 'I' for Inactive)
REMARK       I    between atoms: C_6  and  N_7 
REMARK    1  A    between atoms: C_9  and  C_6 
REMARK    2  A    between atoms: N_7  and  C_13 
REMARK    3  A    between atoms: C_15  and  C_14 
ROOT
ATOM      1  C   UNL d   1      13.164  12.359  -3.943  0.00  0.00     0.279 C 
ATOM      2  N   UNL d   1      13.316  11.780  -3.382  0.00  0.00    -0.208 NA
ATOM      3  O   UNL d   1      12.769  12.160  -4.634  0.00  0.00    -0.265 OA
ENDROOT
BRANCH   2   4
ATOM      4  C   UNL d   1      13.713  11.976  -2.686  0.00  0.00     0.085 A 
ATOM      5  C   UNL d   1      13.335  11.877  -1.967  0.00  0.00     0.024 A 
ATOM      6  C   UNL d   1      13.732  12.073  -1.271  0.00  0.00     0.064 A 
ATOM      7  C   UNL d   1      13.500  12.035  -0.476  0.00  0.00     0.282 A 
ATOM      8  C   UNL d   1      14.497  12.363  -1.289  0.00  0.00     0.063 A 
ATOM      9  N   UNL d   1      14.127  12.303  -0.017  0.00  0.00    -0.169 NA
ATOM     10  O   UNL d   1      12.778  11.779  -0.179  0.00  0.00    -0.265 OA
ATOM     11  C   UNL d   1      14.741  12.505  -0.519  0.00  0.00     0.282 A 
ATOM     12  O   UNL d   1      15.477  12.800  -0.297  0.00  0.00    -0.265 OA
ATOM     13  C   UNL d   1      14.877  12.462  -2.015  0.00  0.00     0.006 A 
ATOM     14  C   UNL d   1      14.488  12.269  -2.715  0.00  0.00     0.019 A 
ENDBRANCH   2   4
BRANCH   1  15
ATOM     15  C   UNL d   1      13.403  13.128  -3.819  0.00  0.00     0.058 A 
ATOM     16  C   UNL d   1      14.200  13.322  -3.819  0.00  0.00     0.005 A 
ATOM     17  C   UNL d   1      14.434  14.105  -3.692  0.00  0.00     0.003 A 
ATOM     18  C   UNL d   1      13.868  14.692  -3.565  0.00  0.00     0.039 A 
ATOM     19  C   UNL d   1      13.067  14.495  -3.565  0.00  0.00     0.003 A 
ATOM     20  C   UNL d   1      12.833  13.712  -3.692  0.00  0.00     0.005 A 
BRANCH  18  21
ATOM     21  C   UNL d   1      14.103  15.475  -3.439  0.00  0.00     0.196 C 
ATOM     22  O   UNL d   1      14.232  15.748  -2.672  0.00  0.00    -0.287 OA
ATOM     23  C   UNL d   1      14.206  15.982  -4.082  0.00  0.00     0.045 C 
ENDBRANCH  18  21
ENDBRANCH   1  15
TORSDOF 3
ENDMDL
