MODEL 1
REMARK VINA RESULT:       2.8      0.000      0.000
REMARK  3 active torsions:
REMARK  status: ('A' for Active; 'I' for Inactive)
REMARK    1  A    between atoms: N_9  and  C_3 
REMARK    2  A    between atoms: C_14  and  C_5 
REMARK       I    between atoms: C_10  and  N_11 
REMARK    3  A    between atoms: C_13  and  C_10 
ROOT
ATOM      1  N   UNL d   1      56.954   0.099  32.627  0.00  0.00    -0.196 N 
ATOM      2  C   UNL d   1      56.811   0.275  33.416  0.00  0.00     0.167 A 
ATOM      3  C   UNL d   1      57.725   0.113  32.331  0.00  0.00     0.152 A 
ATOM      4  N   UNL d   1      56.236  -0.067  32.269  0.00  0.00    -0.163 NA
ATOM      5  C   UNL d   1      56.004   0.217  33.548  0.00  0.00     0.055 A 
ATOM      6  C   UNL d   1      55.653   0.007  32.846  0.00  0.00     0.104 A 
ATOM      7  N   UNL d   1      57.437   0.467  33.920  0.00  0.00    -0.227 NA
ATOM      8  C   UNL d   1      58.358   0.306  32.836  0.00  0.00     0.057 A 
ATOM      9  C   UNL d   1      58.215   0.482  33.624  0.00  0.00     0.086 A 
ATOM     10  C   UNL d   1      54.839  -0.109  32.739  0.00  0.00     0.023 C 
ATOM     11  C   UNL d   1      58.859   0.675  34.127  0.00  0.00     0.021 C 
ENDROOT
BRANCH   3  12
ATOM     12  N   UNL d   1      57.868  -0.062  31.542  0.00  0.00    -0.286 N 
ATOM     13  C   UNL d   1      58.083  -0.827  31.313  0.00  0.00     0.101 A 
ATOM     14  C   UNL d   1      58.225  -0.998  30.524  0.00  0.00     0.102 A 
ATOM     15  N   UNL d   1      58.153  -0.402  29.950  0.00  0.00    -0.267 N 
ATOM     16  C   UNL d   1      58.296  -0.568  29.145  0.00  0.00     0.288 C 
ATOM     17  C   UNL d   1      57.940   0.354  30.176  0.00  0.00     0.102 A 
ATOM     18  O   UNL d   1      58.228   0.011  28.570  0.00  0.00    -0.264 OA
ATOM     19  C   UNL d   1      57.797   0.527  30.975  0.00  0.00     0.101 A 
BRANCH  16  20
ATOM     20  C   UNL d   1      58.512  -1.341  28.922  0.00  0.00     0.156 A 
ATOM     21  O   UNL d   1      58.103  -2.050  28.933  0.00  0.00    -0.300 OA
ATOM     22  C   UNL d   1      58.610  -2.631  28.643  0.00  0.00     0.123 A 
ATOM     23  C   UNL d   1      59.316  -2.293  28.456  0.00  0.00     0.029 A 
ATOM     24  C   UNL d   1      59.265  -1.480  28.628  0.00  0.00     0.032 A 
ENDBRANCH  16  20
ENDBRANCH   3  12
BRANCH   5  25
ATOM     25  C   UNL d   1      55.543   0.329  34.223  0.00  0.00     0.004 A 
ATOM     26  C   UNL d   1      55.891   0.253  34.977  0.00  0.00     0.001 A 
ATOM     27  C   UNL d   1      55.431   0.365  35.652  0.00  0.00     0.011 A 
ATOM     28  C   UNL d   1      54.630   0.552  35.584  0.00  0.00     0.058 A 
ATOM     29  C   UNL d   1      54.282   0.628  34.834  0.00  0.00     0.011 A 
ATOM     30 CL   UNL d   1      54.173   0.663  36.264  0.00  0.00    -0.082 Cl
ATOM     31  C   UNL d   1      54.742   0.516  34.159  0.00  0.00     0.001 A 
ENDBRANCH   5  25
TORSDOF 3
ENDMDL
