MODEL 1
REMARK VINA RESULT:      81.9      0.000      0.000
REMARK  5 active torsions:
REMARK  status: ('A' for Active; 'I' for Inactive)
REMARK    1  A    between atoms: N_2  and  S_1 
REMARK    2  A    between atoms: C_4  and  S_1 
REMARK    3  A    between atoms: C_3  and  N_2 
REMARK       I    between atoms: C_6  and  N_2 
REMARK    4  A    between atoms: O_13  and  C_7 
REMARK    5  A    between atoms: C_14  and  O_13 
ROOT
ATOM      1  C   UNL d   1      59.752  48.334  51.078  0.00  0.00     0.078 A 
ATOM      2  C   UNL d   1      60.496  48.630  50.833  0.00  0.00     0.019 A 
ATOM      3  C   UNL d   1      60.910  47.319  50.494  0.00  0.00     0.103 A 
ATOM      4  C   UNL d   1      61.058  48.105  50.544  0.00  0.00     0.024 A 
ATOM      5  C   UNL d   1      59.631  47.531  51.015  0.00  0.00     0.020 A 
ATOM      6  C   UNL d   1      60.188  46.995  50.727  0.00  0.00     0.026 A 
ATOM      7  C   UNL d   1      60.667  49.430  50.876  0.00  0.00     0.002 A 
ATOM      8  C   UNL d   1      61.789  48.373  50.299  0.00  0.00     0.002 A 
ATOM      9  C   UNL d   1      61.397  49.706  50.633  0.00  0.00     0.000 A 
ATOM     10  C   UNL d   1      61.962  49.174  50.343  0.00  0.00     0.000 A 
ENDROOT
BRANCH   1  11
ATOM     11  N   UNL d   1      59.187  48.855  51.367  0.00  0.00    -0.198 N 
ATOM     12  C   UNL d   1      59.258  49.177  52.120  0.00  0.00     0.274 C 
ATOM     13  O   UNL d   1      59.894  48.980  52.586  0.00  0.00    -0.266 OA
ATOM     14  C   UNL d   1      58.827  49.707  52.610  0.00  0.00     0.067 C 
BRANCH  11  15
ATOM     15  S   UNL d   1      58.527  49.053  50.870  0.00  0.00     0.279 S 
ATOM     16  O   UNL d   1      58.980  49.702  50.593  0.00  0.00    -0.199 OA
ATOM     17  O   UNL d   1      58.130  48.401  51.178  0.00  0.00    -0.199 OA
BRANCH  15  18
ATOM     18  C   UNL d   1      57.903  49.253  50.390  0.00  0.00     0.133 A 
ATOM     19  S   UNL d   1      57.095  49.154  50.552  0.00  0.00    -0.074 SA
ATOM     20  C   UNL d   1      56.619  49.420  49.939  0.00  0.00     0.036 A 
ATOM     21  C   UNL d   1      57.136  49.708  49.346  0.00  0.00     0.008 A 
ATOM     22  C   UNL d   1      57.920  49.617  49.597  0.00  0.00     0.020 A 
ENDBRANCH  15  18
ENDBRANCH  11  15
ENDBRANCH   1  11
BRANCH   3  23
ATOM     23  O   UNL d   1      61.519  46.779  50.186  0.00  0.00    -0.273 OA
BRANCH  23  24
ATOM     24  C   UNL d   1      61.339  45.977  49.977  0.00  0.00     0.300 C 
ATOM     25  O   UNL d   1      61.099  45.775  49.207  0.00  0.00    -0.259 OA
ATOM     26  C   UNL d   1      61.407  45.288  50.624  0.00  0.00     0.074 C 
ENDBRANCH  23  24
ENDBRANCH   3  23
TORSDOF 5
ENDMDL
MODEL 2
REMARK VINA RESULT:      83.3      1.561      3.891
REMARK  5 active torsions:
REMARK  status: ('A' for Active; 'I' for Inactive)
REMARK    1  A    between atoms: N_2  and  S_1 
REMARK    2  A    between atoms: C_4  and  S_1 
REMARK    3  A    between atoms: C_3  and  N_2 
REMARK       I    between atoms: C_6  and  N_2 
REMARK    4  A    between atoms: O_13  and  C_7 
REMARK    5  A    between atoms: C_14  and  O_13 
ROOT
ATOM      1  C   UNL d   1      60.436  48.725  50.417  0.00  0.00     0.078 A 
ATOM      2  C   UNL d   1      60.339  49.054  51.181  0.00  0.00     0.019 A 
ATOM      3  C   UNL d   1      58.991  49.365  50.880  0.00  0.00     0.103 A 
ATOM      4  C   UNL d   1      59.609  49.368  51.389  0.00  0.00     0.024 A 
ATOM      5  C   UNL d   1      59.789  48.736  49.921  0.00  0.00     0.020 A 
ATOM      6  C   UNL d   1      59.052  49.049  50.121  0.00  0.00     0.026 A 
ATOM      7  C   UNL d   1      60.958  49.068  51.717  0.00  0.00     0.002 A 
ATOM      8  C   UNL d   1      59.494  49.695  52.129  0.00  0.00     0.002 A 
ATOM      9  C   UNL d   1      60.851  49.392  52.459  0.00  0.00     0.000 A 
ATOM     10  C   UNL d   1      60.113  49.708  52.666  0.00  0.00     0.000 A 
ENDROOT
BRANCH   1  11
ATOM     11  N   UNL d   1      61.163  48.410  50.204  0.00  0.00    -0.198 N 
ATOM     12  C   UNL d   1      61.802  48.901  50.040  0.00  0.00     0.274 C 
ATOM     13  O   UNL d   1      61.715  49.708  50.088  0.00  0.00    -0.266 OA
ATOM     14  C   UNL d   1      62.606  48.816  49.812  0.00  0.00     0.067 C 
BRANCH  11  15
ATOM     15  S   UNL d   1      61.241  47.566  50.157  0.00  0.00     0.279 S 
ATOM     16  O   UNL d   1      61.631  47.681  49.424  0.00  0.00    -0.199 OA
ATOM     17  O   UNL d   1      60.852  47.513  50.881  0.00  0.00    -0.199 OA
BRANCH  15  18
ATOM     18  C   UNL d   1      61.322  46.759  50.100  0.00  0.00     0.133 A 
ATOM     19  S   UNL d   1      61.667  46.333  49.477  0.00  0.00    -0.074 SA
ATOM     20  C   UNL d   1      61.653  45.523  49.608  0.00  0.00     0.036 A 
ATOM     21  C   UNL d   1      61.282  45.410  50.350  0.00  0.00     0.008 A 
ATOM     22  C   UNL d   1      61.072  46.145  50.668  0.00  0.00     0.020 A 
ENDBRANCH  15  18
ENDBRANCH  11  15
ENDBRANCH   1  11
BRANCH   3  23
ATOM     23  O   UNL d   1      58.225  49.703  51.120  0.00  0.00    -0.273 OA
BRANCH  23  24
ATOM     24  C   UNL d   1      57.555  49.701  50.600  0.00  0.00     0.300 C 
ATOM     25  O   UNL d   1      57.650  49.702  49.774  0.00  0.00    -0.259 OA
ATOM     26  C   UNL d   1      56.675  49.699  50.953  0.00  0.00     0.074 C 
ENDBRANCH  23  24
ENDBRANCH   3  23
TORSDOF 5
ENDMDL
