MODEL 1
REMARK VINA RESULT:      29.0      0.000      0.000
REMARK  4 active torsions:
REMARK  status: ('A' for Active; 'I' for Inactive)
REMARK    1  A    between atoms: N_14  and  C_6 
REMARK    2  A    between atoms: C_19  and  N_14 
REMARK    3  A    between atoms: O_17  and  C_20 
REMARK    4  A    between atoms: C_20  and  C_19 
ROOT
ATOM      1  N   UNL d   1     -51.203  25.665  33.306  0.00  0.00    -0.183 N 
ATOM      2  C   UNL d   1     -51.212  24.835  33.306  0.00  0.00     0.169 A 
ATOM      3  C   UNL d   1     -51.920  24.426  33.306  0.00  0.00     0.073 A 
ATOM      4  C   UNL d   1     -52.619  24.850  33.306  0.00  0.00     0.185 A 
ATOM      5  N   UNL d   1     -52.610  25.680  33.306  0.00  0.00    -0.142 NA
ATOM      6  C   UNL d   1     -50.486  26.057  33.306  0.00  0.00     0.218 A 
ATOM      7  N   UNL d   1     -50.503  24.420  33.306  0.00  0.00    -0.226 NA
ATOM      8  C   UNL d   1     -51.928  23.605  33.306  0.00  0.00     0.007 A 
ATOM      9  N   UNL d   1     -53.344  24.449  33.306  0.00  0.00    -0.225 NA
ATOM     10  C   UNL d   1     -49.782  25.651  33.306  0.00  0.00     0.071 A 
ATOM     11  C   UNL d   1     -52.636  23.195  33.306  0.00  0.00     0.019 A 
ATOM     12  C   UNL d   1     -49.791  24.821  33.306  0.00  0.00     0.087 A 
ATOM     13  C   UNL d   1     -53.352  23.619  33.306  0.00  0.00     0.083 A 
ATOM     14  C   UNL d   1     -51.216  23.188  33.306  0.00  0.00     0.000 C 
ATOM     15  C   UNL d   1     -49.052  24.392  33.306  0.00  0.00     0.021 C 
ATOM     16  C   UNL d   1     -54.060  23.217  33.306  0.00  0.00     0.021 C 
ENDROOT
BRANCH   6  17
ATOM     17  N   UNL d   1     -50.487  26.913  33.306  0.00  0.00    -0.378 NA
BRANCH  17  18
ATOM     18  C   UNL d   1     -50.326  27.741  33.369  0.00  0.00     0.189 C 
BRANCH  18  19
ATOM     19  C   UNL d   1     -49.547  28.008  33.572  0.00  0.00     0.151 C 
BRANCH  19  20
ATOM     20  O   UNL d   1     -49.433  28.503  34.242  0.00  0.00    -0.323 OA
ATOM     21  C   UNL d   1     -48.712  28.474  34.696  0.00  0.00     0.182 C 
ENDBRANCH  19  20
ENDBRANCH  18  19
ENDBRANCH  17  18
ENDBRANCH   6  17
TORSDOF 4
ENDMDL
