MODEL 1
REMARK VINA RESULT:      -2.4      0.000      0.000
REMARK  6 active torsions:
REMARK  status: ('A' for Active; 'I' for Inactive)
REMARK       I    between atoms: N_3  and  C_1 
REMARK    1  A    between atoms: O_5  and  C_1 
REMARK    2  A    between atoms: C_6  and  C_2 
REMARK    3  A    between atoms: C_4  and  O_5 
REMARK    4  A    between atoms: C_7  and  C_6 
REMARK    5  A    between atoms: C_9  and  C_7 
REMARK    6  A    between atoms: C_8  and  C_9 
ROOT
ATOM      1  C   UNL d   1      59.296  -0.729  29.054  0.00  0.00     0.063 A 
ATOM      2  C   UNL d   1      59.638  -1.444  28.793  0.00  0.00     0.108 A 
ATOM      3  C   UNL d   1      59.766  -0.056  29.122  0.00  0.00     0.017 A 
ATOM      4  C   UNL d   1      60.437  -1.466  28.607  0.00  0.00     0.026 A 
ATOM      5  C   UNL d   1      60.565  -0.087  28.934  0.00  0.00     0.058 A 
ATOM      6  C   UNL d   1      60.905  -0.795  28.675  0.00  0.00     0.013 A 
ATOM      7 CL   UNL d   1      61.034   0.590  29.003  0.00  0.00    -0.082 Cl
ENDROOT
BRANCH   1   8
ATOM      8  C   UNL d   1      58.493  -0.700  29.243  0.00  0.00     0.198 C 
ATOM      9  O   UNL d   1      57.929  -0.703  28.638  0.00  0.00    -0.286 OA
BRANCH   8  10
ATOM     10  C   UNL d   1      58.254  -0.669  30.029  0.00  0.00     0.043 C 
BRANCH  10  11
ATOM     11  C   UNL d   1      57.657  -0.149  30.261  0.00  0.00     0.010 C 
BRANCH  11  12
ATOM     12  C   UNL d   1      57.304  -0.224  31.010  0.00  0.00     0.030 A 
ATOM     13  S   UNL d   1      57.136   0.401  31.527  0.00  0.00    -0.086 SA
ATOM     14  C   UNL d   1      56.787   0.067  32.207  0.00  0.00     0.035 A 
ATOM     15  C   UNL d   1      56.745  -0.749  32.101  0.00  0.00     0.007 A 
ATOM     16  C   UNL d   1      57.065  -0.924  31.361  0.00  0.00     0.007 A 
ENDBRANCH  11  12
ENDBRANCH  10  11
ENDBRANCH   8  10
ENDBRANCH   1   8
BRANCH   2  17
ATOM     17  O   UNL d   1      59.171  -2.116  28.724  0.00  0.00    -0.259 OA
BRANCH  17  18
ATOM     18  C   UNL d   1      59.527  -2.862  28.725  0.00  0.00     0.378 C 
ATOM     19  N   UNL d   1      59.066  -3.540  28.637  0.00  0.00    -0.247 N 
ATOM     20  C   UNL d   1      59.420  -4.283  28.638  0.00  0.00     0.112 A 
ATOM     21  C   UNL d   1      58.240  -3.472  28.547  0.00  0.00     0.112 A 
ATOM     22  C   UNL d   1      58.948  -4.966  28.548  0.00  0.00     0.142 A 
ATOM     23  O   UNL d   1      58.126  -4.891  28.458  0.00  0.00    -0.300 OA
ATOM     24  C   UNL d   1      57.774  -4.143  28.458  0.00  0.00     0.142 A 
ATOM     25  O   UNL d   1      60.348  -2.938  28.814  0.00  0.00    -0.237 OA
ENDBRANCH  17  18
ENDBRANCH   2  17
TORSDOF 6
ENDMDL
