MODEL 1
REMARK VINA RESULT:      -3.2      0.000      0.000
REMARK  2 active torsions:
REMARK  status: ('A' for Active; 'I' for Inactive)
REMARK    1  A    between atoms: N_2  and  S_1 
REMARK    2  A    between atoms: C_4  and  S_1 
ROOT
ATOM      1  S   UNL d   1      30.761  16.293 -24.220  0.00  0.00     0.273 S 
ATOM      2  O   UNL d   1      30.559  16.021 -23.470  0.00  0.00    -0.200 OA
ATOM      3  O   UNL d   1      30.169  16.551 -24.734  0.00  0.00    -0.200 OA
ENDROOT
BRANCH   1   4
ATOM      4  N   UNL d   1      31.551  16.308 -24.455  0.00  0.00    -0.212 N 
ATOM      5  C   UNL d   1      31.899  15.623 -24.777  0.00  0.00     0.193 A 
ATOM      6  N   UNL d   1      32.697  15.638 -25.014  0.00  0.00    -0.223 NA
ATOM      7  C   UNL d   1      32.792  17.013 -24.608  0.00  0.00     0.100 A 
ATOM      8  C   UNL d   1      32.003  17.010 -24.370  0.00  0.00     0.094 A 
ATOM      9  C   UNL d   1      33.239  17.713 -24.522  0.00  0.00     0.021 A 
ATOM     10  C   UNL d   1      31.654  17.684 -24.052  0.00  0.00     0.020 A 
ATOM     11  C   UNL d   1      32.097  18.377 -23.967  0.00  0.00     0.002 A 
ATOM     12  C   UNL d   1      32.891  18.392 -24.202  0.00  0.00     0.002 A 
ENDBRANCH   1   4
BRANCH   1  13
ATOM     13  C   UNL d   1      29.982  16.274 -23.976  0.00  0.00     0.104 A 
ATOM     14  C   UNL d   1      29.777  15.850 -23.297  0.00  0.00     0.012 A 
ATOM     15  C   UNL d   1      29.000  15.825 -23.046  0.00  0.00     0.001 A 
ATOM     16  C   UNL d   1      30.362  15.453 -22.877  0.00  0.00     0.001 C 
ATOM     17  C   UNL d   1      28.413  16.226 -23.473  0.00  0.00     0.000 A 
ATOM     18  C   UNL d   1      28.614  16.651 -24.152  0.00  0.00     0.001 A 
ATOM     19  C   UNL d   1      27.632  16.202 -23.221  0.00  0.00     0.000 C 
ATOM     20  C   UNL d   1      29.401  16.671 -24.398  0.00  0.00     0.013 A 
ENDBRANCH   1  13
TORSDOF 2
ENDMDL
MODEL 2
REMARK VINA RESULT:      -2.8      1.595      3.761
REMARK  2 active torsions:
REMARK  status: ('A' for Active; 'I' for Inactive)
REMARK    1  A    between atoms: N_2  and  S_1 
REMARK    2  A    between atoms: C_4  and  S_1 
ROOT
ATOM      1  S   UNL d   1      32.612  17.626 -23.860  0.00  0.00     0.273 S 
ATOM      2  O   UNL d   1      32.636  18.180 -23.252  0.00  0.00    -0.200 OA
ATOM      3  O   UNL d   1      32.748  17.866 -24.637  0.00  0.00    -0.200 OA
ENDROOT
BRANCH   1   4
ATOM      4  N   UNL d   1      32.454  16.834 -23.691  0.00  0.00    -0.212 N 
ATOM      5  C   UNL d   1      33.076  16.331 -23.457  0.00  0.00     0.193 A 
ATOM      6  N   UNL d   1      32.916  15.531 -23.286  0.00  0.00    -0.223 NA
ATOM      7  C   UNL d   1      31.526  15.745 -23.583  0.00  0.00     0.100 A 
ATOM      8  C   UNL d   1      31.673  16.538 -23.754  0.00  0.00     0.094 A 
ATOM      9  C   UNL d   1      30.746  15.453 -23.647  0.00  0.00     0.021 A 
ATOM     10  C   UNL d   1      31.063  17.040 -23.986  0.00  0.00     0.020 A 
ATOM     11  C   UNL d   1      30.291  16.751 -24.049  0.00  0.00     0.002 A 
ATOM     12  C   UNL d   1      30.132  15.956 -23.879  0.00  0.00     0.002 A 
ENDBRANCH   1   4
BRANCH   1  13
ATOM     13  C   UNL d   1      32.768  18.412 -24.015  0.00  0.00     0.104 A 
ATOM     14  C   UNL d   1      32.951  18.922 -23.391  0.00  0.00     0.012 A 
ATOM     15  C   UNL d   1      33.108  19.711 -23.537  0.00  0.00     0.001 A 
ATOM     16  C   UNL d   1      32.975  18.629 -22.623  0.00  0.00     0.001 C 
ATOM     17  C   UNL d   1      33.084  20.003 -24.313  0.00  0.00     0.000 A 
ATOM     18  C   UNL d   1      32.900  19.495 -24.938  0.00  0.00     0.001 A 
ATOM     19  C   UNL d   1      33.241  20.794 -24.461  0.00  0.00     0.000 C 
ATOM     20  C   UNL d   1      32.744  18.701 -24.782  0.00  0.00     0.013 A 
ENDBRANCH   1  13
TORSDOF 2
ENDMDL
MODEL 3
REMARK VINA RESULT:      -0.8      1.213      3.480
REMARK  2 active torsions:
REMARK  status: ('A' for Active; 'I' for Inactive)
REMARK    1  A    between atoms: N_2  and  S_1 
REMARK    2  A    between atoms: C_4  and  S_1 
ROOT
ATOM      1  S   UNL d   1      30.465  16.897 -24.180  0.00  0.00     0.273 S 
ATOM      2  O   UNL d   1      31.108  16.522 -23.828  0.00  0.00    -0.200 OA
ATOM      3  O   UNL d   1      30.511  17.698 -24.368  0.00  0.00    -0.200 OA
ENDROOT
BRANCH   1   4
ATOM      4  N   UNL d   1      29.777  16.470 -24.342  0.00  0.00    -0.212 N 
ATOM      5  C   UNL d   1      29.786  15.883 -24.933  0.00  0.00     0.193 A 
ATOM      6  N   UNL d   1      29.092  15.453 -25.097  0.00  0.00    -0.223 NA
ATOM      7  C   UNL d   1      28.392  16.196 -24.086  0.00  0.00     0.100 A 
ATOM      8  C   UNL d   1      29.073  16.628 -23.915  0.00  0.00     0.094 A 
ATOM      9  C   UNL d   1      27.692  16.355 -23.658  0.00  0.00     0.021 A 
ATOM     10  C   UNL d   1      29.071  17.210 -23.332  0.00  0.00     0.020 A 
ATOM     11  C   UNL d   1      28.377  17.367 -22.909  0.00  0.00     0.002 A 
ATOM     12  C   UNL d   1      27.687  16.939 -23.072  0.00  0.00     0.002 A 
ENDBRANCH   1   4
BRANCH   1  13
ATOM     13  C   UNL d   1      31.150  17.307 -24.014  0.00  0.00     0.104 A 
ATOM     14  C   UNL d   1      31.790  16.913 -23.671  0.00  0.00     0.012 A 
ATOM     15  C   UNL d   1      32.480  17.316 -23.502  0.00  0.00     0.001 A 
ATOM     16  C   UNL d   1      31.726  16.110 -23.501  0.00  0.00     0.001 C 
ATOM     17  C   UNL d   1      32.541  18.126 -23.674  0.00  0.00     0.000 A 
ATOM     18  C   UNL d   1      31.903  18.523 -24.017  0.00  0.00     0.001 A 
ATOM     19  C   UNL d   1      33.233  18.532 -23.505  0.00  0.00     0.000 C 
ATOM     20  C   UNL d   1      31.211  18.108 -24.185  0.00  0.00     0.013 A 
ENDBRANCH   1  13
TORSDOF 2
ENDMDL
MODEL 4
REMARK VINA RESULT:      -0.4      4.090      5.561
REMARK  2 active torsions:
REMARK  status: ('A' for Active; 'I' for Inactive)
REMARK    1  A    between atoms: N_2  and  S_1 
REMARK    2  A    between atoms: C_4  and  S_1 
ROOT
ATOM      1  S   UNL d   1      32.807  20.654 -21.998  0.00  0.00     0.273 S 
ATOM      2  O   UNL d   1      32.236  20.802 -21.424  0.00  0.00    -0.200 OA
ATOM      3  O   UNL d   1      33.240  21.281 -22.315  0.00  0.00    -0.200 OA
ENDROOT
BRANCH   1   4
ATOM      4  N   UNL d   1      32.944  19.882 -22.255  0.00  0.00    -0.212 N 
ATOM      5  C   UNL d   1      33.103  19.284 -21.698  0.00  0.00     0.193 A 
ATOM      6  N   UNL d   1      33.241  18.505 -21.957  0.00  0.00    -0.223 NA
ATOM      7  C   UNL d   1      33.060  18.926 -23.319  0.00  0.00     0.100 A 
ATOM      8  C   UNL d   1      32.922  19.701 -23.074  0.00  0.00     0.094 A 
ATOM      9  C   UNL d   1      33.038  18.748 -24.135  0.00  0.00     0.021 A 
ATOM     10  C   UNL d   1      32.764  20.296 -23.620  0.00  0.00     0.020 A 
ATOM     11  C   UNL d   1      32.743  20.120 -24.428  0.00  0.00     0.002 A 
ATOM     12  C   UNL d   1      32.880  19.345 -24.686  0.00  0.00     0.002 A 
ENDBRANCH   1   4
BRANCH   1  13
ATOM     13  C   UNL d   1      32.663  21.413 -21.736  0.00  0.00     0.104 A 
ATOM     14  C   UNL d   1      32.264  21.530 -21.022  0.00  0.00     0.012 A 
ATOM     15  C   UNL d   1      32.116  22.287 -20.752  0.00  0.00     0.001 A 
ATOM     16  C   UNL d   1      32.018  20.878 -20.585  0.00  0.00     0.001 C 
ATOM     17  C   UNL d   1      32.365  22.942 -21.195  0.00  0.00     0.000 A 
ATOM     18  C   UNL d   1      32.764  22.829 -21.909  0.00  0.00     0.001 A 
ATOM     19  C   UNL d   1      32.217  23.702 -20.925  0.00  0.00     0.000 C 
ATOM     20  C   UNL d   1      32.910  22.062 -22.174  0.00  0.00     0.013 A 
ENDBRANCH   1  13
TORSDOF 2
ENDMDL
MODEL 5
REMARK VINA RESULT:      -0.3      4.921      6.447
REMARK  2 active torsions:
REMARK  status: ('A' for Active; 'I' for Inactive)
REMARK    1  A    between atoms: N_2  and  S_1 
REMARK    2  A    between atoms: C_4  and  S_1 
ROOT
ATOM      1  S   UNL d   1      32.803  21.700 -21.948  0.00  0.00     0.273 S 
ATOM      2  O   UNL d   1      33.241  22.394 -21.878  0.00  0.00    -0.200 OA
ATOM      3  O   UNL d   1      32.263  21.497 -21.360  0.00  0.00    -0.200 OA
ENDROOT
BRANCH   1   4
ATOM      4  N   UNL d   1      32.906  21.212 -22.606  0.00  0.00    -0.212 N 
ATOM      5  C   UNL d   1      32.898  21.543 -23.370  0.00  0.00     0.193 A 
ATOM      6  N   UNL d   1      33.002  21.051 -24.033  0.00  0.00    -0.223 NA
ATOM      7  C   UNL d   1      33.119  19.910 -23.168  0.00  0.00     0.100 A 
ATOM      8  C   UNL d   1      33.018  20.388 -22.504  0.00  0.00     0.094 A 
ATOM      9  C   UNL d   1      33.230  19.088 -23.064  0.00  0.00     0.021 A 
ATOM     10  C   UNL d   1      33.024  20.067 -21.746  0.00  0.00     0.020 A 
ATOM     11  C   UNL d   1      33.134  19.253 -21.643  0.00  0.00     0.002 A 
ATOM     12  C   UNL d   1      33.237  18.763 -22.303  0.00  0.00     0.002 A 
ENDBRANCH   1   4
BRANCH   1  13
ATOM     13  C   UNL d   1      32.710  22.191 -21.303  0.00  0.00     0.104 A 
ATOM     14  C   UNL d   1      32.931  22.986 -21.359  0.00  0.00     0.012 A 
ATOM     15  C   UNL d   1      32.841  23.484 -20.718  0.00  0.00     0.001 A 
ATOM     16  C   UNL d   1      33.240  23.270 -22.066  0.00  0.00     0.001 C 
ATOM     17  C   UNL d   1      32.528  23.194 -20.007  0.00  0.00     0.000 A 
ATOM     18  C   UNL d   1      32.307  22.400 -19.948  0.00  0.00     0.001 A 
ATOM     19  C   UNL d   1      32.438  23.693 -19.363  0.00  0.00     0.000 C 
ATOM     20  C   UNL d   1      32.401  21.905 -20.599  0.00  0.00     0.013 A 
ENDBRANCH   1  13
TORSDOF 2
ENDMDL
