MODEL 1
REMARK VINA RESULT:      -8.9      0.000      0.000
REMARK  7 active torsions:
REMARK  status: ('A' for Active; 'I' for Inactive)
REMARK    1  A    between atoms: C_2  and  P_1 
REMARK    2  A    between atoms: O_3  and  P_1 
REMARK    3  A    between atoms: C_4  and  P_1 
REMARK    4  A    between atoms: C_12  and  C_2 
REMARK    5  A    between atoms: C_13  and  O_3 
REMARK    6  A    between atoms: N_7  and  C_6 
REMARK    7  A    between atoms: C_15  and  C_13 
ROOT
ATOM      1  P   UNL d   1      53.656  33.103  53.833  0.00  0.00     0.307 P 
ATOM      2  O   UNL d   1      53.735  33.960  53.891  0.00  0.00    -0.277 OA
ENDROOT
BRANCH   1   3
ATOM      3  C   UNL d   1      54.468  33.002  54.087  0.00  0.00     0.253 C 
ATOM      4  O   UNL d   1      54.953  32.465  53.691  0.00  0.00    -0.281 OA
BRANCH   3   5
ATOM      5  C   UNL d   1      54.765  33.435  54.721  0.00  0.00     0.044 C 
ATOM      6  C   UNL d   1      55.405  33.943  54.608  0.00  0.00     0.004 C 
ATOM      7  C   UNL d   1      54.426  33.362  55.464  0.00  0.00     0.004 C 
ENDBRANCH   3   5
ENDBRANCH   1   3
BRANCH   1   8
ATOM      8  O   UNL d   1      52.853  33.228  53.583  0.00  0.00    -0.279 OA
BRANCH   8   9
ATOM      9  C   UNL d   1      52.590  33.998  53.325  0.00  0.00     0.124 C 
BRANCH   9  10
ATOM     10  C   UNL d   1      51.846  34.117  53.002  0.00  0.00     0.025 A 
ATOM     11  C   UNL d   1      51.186  34.168  53.495  0.00  0.00     0.002 A 
ATOM     12  C   UNL d   1      50.431  34.288  53.174  0.00  0.00     0.000 A 
ATOM     13  C   UNL d   1      50.340  34.357  52.358  0.00  0.00     0.000 A 
ATOM     14  C   UNL d   1      51.005  34.305  51.863  0.00  0.00     0.000 A 
ATOM     15  C   UNL d   1      51.755  34.185  52.186  0.00  0.00     0.002 A 
ENDBRANCH   9  10
ENDBRANCH   8   9
ENDBRANCH   1   8
BRANCH   1  16
ATOM     16  C   UNL d   1      53.544  32.259  53.765  0.00  0.00     0.061 A 
ATOM     17  C   UNL d   1      53.286  31.838  54.424  0.00  0.00     0.007 A 
ATOM     18  C   UNL d   1      53.174  31.027  54.378  0.00  0.00     0.018 A 
ATOM     19  C   UNL d   1      53.320  30.632  53.668  0.00  0.00     0.064 A 
ATOM     20  C   UNL d   1      53.578  31.052  53.009  0.00  0.00     0.018 A 
ATOM     21  C   UNL d   1      53.690  31.868  53.059  0.00  0.00     0.007 A 
BRANCH  19  22
ATOM     22  N   UNL d   1      53.199  29.782  53.629  0.00  0.00    -0.301 N 
ATOM     23  C   UNL d   1      52.824  29.454  52.966  0.00  0.00     0.100 C 
ATOM     24  C   UNL d   1      53.453  29.288  54.245  0.00  0.00     0.100 C 
ENDBRANCH  19  22
ENDBRANCH   1  16
TORSDOF 7
ENDMDL
MODEL 2
REMARK VINA RESULT:      -8.5      1.251      3.628
REMARK  7 active torsions:
REMARK  status: ('A' for Active; 'I' for Inactive)
REMARK    1  A    between atoms: C_2  and  P_1 
REMARK    2  A    between atoms: O_3  and  P_1 
REMARK    3  A    between atoms: C_4  and  P_1 
REMARK    4  A    between atoms: C_12  and  C_2 
REMARK    5  A    between atoms: C_13  and  O_3 
REMARK    6  A    between atoms: N_7  and  C_6 
REMARK    7  A    between atoms: C_15  and  C_13 
ROOT
ATOM      1  P   UNL d   1      53.497  32.850  53.839  0.00  0.00     0.307 P 
ATOM      2  O   UNL d   1      54.197  32.456  54.152  0.00  0.00    -0.277 OA
ENDROOT
BRANCH   1   3
ATOM      3  C   UNL d   1      53.817  33.614  54.059  0.00  0.00     0.253 C 
ATOM      4  O   UNL d   1      53.623  34.280  53.613  0.00  0.00    -0.281 OA
BRANCH   3   5
ATOM      5  C   UNL d   1      54.315  33.686  54.711  0.00  0.00     0.044 C 
ATOM      6  C   UNL d   1      55.128  33.772  54.600  0.00  0.00     0.004 C 
ATOM      7  C   UNL d   1      54.004  33.672  55.469  0.00  0.00     0.004 C 
ENDBRANCH   3   5
ENDBRANCH   1   3
BRANCH   1   8
ATOM      8  O   UNL d   1      53.199  32.082  53.629  0.00  0.00    -0.279 OA
BRANCH   8   9
ATOM      9  C   UNL d   1      53.705  31.396  53.652  0.00  0.00     0.124 C 
BRANCH   9  10
ATOM     10  C   UNL d   1      53.407  30.634  53.597  0.00  0.00     0.025 A 
ATOM     11  C   UNL d   1      53.461  30.123  54.242  0.00  0.00     0.002 A 
ATOM     12  C   UNL d   1      53.160  29.351  54.192  0.00  0.00     0.000 A 
ATOM     13  C   UNL d   1      52.807  29.095  53.493  0.00  0.00     0.000 A 
ATOM     14  C   UNL d   1      52.754  29.611  52.845  0.00  0.00     0.000 A 
ATOM     15  C   UNL d   1      53.053  30.378  52.898  0.00  0.00     0.002 A 
ENDBRANCH   9  10
ENDBRANCH   8   9
ENDBRANCH   1   8
BRANCH   1  16
ATOM     16  C   UNL d   1      52.790  33.210  53.519  0.00  0.00     0.061 A 
ATOM     17  C   UNL d   1      52.781  33.430  52.726  0.00  0.00     0.007 A 
ATOM     18  C   UNL d   1      52.113  33.776  52.402  0.00  0.00     0.018 A 
ATOM     19  C   UNL d   1      51.447  33.905  52.872  0.00  0.00     0.064 A 
ATOM     20  C   UNL d   1      51.456  33.685  53.665  0.00  0.00     0.018 A 
ATOM     21  C   UNL d   1      52.130  33.336  53.989  0.00  0.00     0.007 A 
BRANCH  19  22
ATOM     22  N   UNL d   1      50.751  34.268  52.523  0.00  0.00    -0.301 N 
ATOM     23  C   UNL d   1      50.679  34.301  51.698  0.00  0.00     0.100 C 
ATOM     24  C   UNL d   1      50.152  34.586  53.001  0.00  0.00     0.100 C 
ENDBRANCH  19  22
ENDBRANCH   1  16
TORSDOF 7
ENDMDL
MODEL 3
REMARK VINA RESULT:      -8.5      1.284      2.810
REMARK  7 active torsions:
REMARK  status: ('A' for Active; 'I' for Inactive)
REMARK    1  A    between atoms: C_2  and  P_1 
REMARK    2  A    between atoms: O_3  and  P_1 
REMARK    3  A    between atoms: C_4  and  P_1 
REMARK    4  A    between atoms: C_12  and  C_2 
REMARK    5  A    between atoms: C_13  and  O_3 
REMARK    6  A    between atoms: N_7  and  C_6 
REMARK    7  A    between atoms: C_15  and  C_13 
ROOT
ATOM      1  P   UNL d   1      53.062  31.892  53.367  0.00  0.00     0.307 P 
ATOM      2  O   UNL d   1      52.467  31.452  52.925  0.00  0.00    -0.277 OA
ENDROOT
BRANCH   1   3
ATOM      3  C   UNL d   1      53.562  31.198  53.404  0.00  0.00     0.253 C 
ATOM      4  O   UNL d   1      54.382  31.287  53.408  0.00  0.00    -0.281 OA
BRANCH   3   5
ATOM      5  C   UNL d   1      53.230  30.444  53.435  0.00  0.00     0.044 C 
ATOM      6  C   UNL d   1      53.054  30.044  52.736  0.00  0.00     0.004 C 
ATOM      7  C   UNL d   1      53.076  30.093  54.159  0.00  0.00     0.004 C 
ENDBRANCH   3   5
ENDBRANCH   1   3
BRANCH   1   8
ATOM      8  O   UNL d   1      52.549  32.569  53.318  0.00  0.00    -0.279 OA
BRANCH   8   9
ATOM      9  C   UNL d   1      51.857  32.558  52.819  0.00  0.00     0.124 C 
BRANCH   9  10
ATOM     10  C   UNL d   1      51.367  33.210  52.743  0.00  0.00     0.025 A 
ATOM     11  C   UNL d   1      51.486  33.747  52.129  0.00  0.00     0.002 A 
ATOM     12  C   UNL d   1      50.992  34.409  52.047  0.00  0.00     0.000 A 
ATOM     13  C   UNL d   1      50.379  34.529  52.584  0.00  0.00     0.000 A 
ATOM     14  C   UNL d   1      50.260  33.987  53.202  0.00  0.00     0.000 A 
ATOM     15  C   UNL d   1      50.753  33.330  53.280  0.00  0.00     0.002 A 
ENDBRANCH   9  10
ENDBRANCH   8   9
ENDBRANCH   1   8
BRANCH   1  16
ATOM     16  C   UNL d   1      53.631  32.357  53.804  0.00  0.00     0.061 A 
ATOM     17  C   UNL d   1      53.542  32.430  54.619  0.00  0.00     0.007 A 
ATOM     18  C   UNL d   1      54.079  32.872  55.054  0.00  0.00     0.018 A 
ATOM     19  C   UNL d   1      54.709  33.244  54.673  0.00  0.00     0.064 A 
ATOM     20  C   UNL d   1      54.799  33.170  53.859  0.00  0.00     0.018 A 
ATOM     21  C   UNL d   1      54.257  32.725  53.423  0.00  0.00     0.007 A 
BRANCH  19  22
ATOM     22  N   UNL d   1      55.267  33.704  55.138  0.00  0.00    -0.301 N 
ATOM     23  C   UNL d   1      55.152  33.775  55.957  0.00  0.00     0.100 C 
ATOM     24  C   UNL d   1      55.914  34.077  54.779  0.00  0.00     0.100 C 
ENDBRANCH  19  22
ENDBRANCH   1  16
TORSDOF 7
ENDMDL
MODEL 4
REMARK VINA RESULT:      -8.2      1.488      3.955
REMARK  7 active torsions:
REMARK  status: ('A' for Active; 'I' for Inactive)
REMARK    1  A    between atoms: C_2  and  P_1 
REMARK    2  A    between atoms: O_3  and  P_1 
REMARK    3  A    between atoms: C_4  and  P_1 
REMARK    4  A    between atoms: C_12  and  C_2 
REMARK    5  A    between atoms: C_13  and  O_3 
REMARK    6  A    between atoms: N_7  and  C_6 
REMARK    7  A    between atoms: C_15  and  C_13 
ROOT
ATOM      1  P   UNL d   1      52.992  32.026  53.323  0.00  0.00     0.307 P 
ATOM      2  O   UNL d   1      53.623  31.475  53.529  0.00  0.00    -0.277 OA
ENDROOT
BRANCH   1   3
ATOM      3  C   UNL d   1      52.632  31.438  52.814  0.00  0.00     0.253 C 
ATOM      4  O   UNL d   1      52.225  31.680  52.138  0.00  0.00    -0.281 OA
BRANCH   3   5
ATOM      5  C   UNL d   1      52.691  30.636  52.994  0.00  0.00     0.044 C 
ATOM      6  C   UNL d   1      53.274  30.176  52.636  0.00  0.00     0.004 C 
ATOM      7  C   UNL d   1      52.170  30.296  53.527  0.00  0.00     0.004 C 
ENDBRANCH   3   5
ENDBRANCH   1   3
BRANCH   1   8
ATOM      8  O   UNL d   1      53.366  32.593  53.834  0.00  0.00    -0.279 OA
BRANCH   8   9
ATOM      9  C   UNL d   1      54.123  32.427  54.191  0.00  0.00     0.124 C 
BRANCH   9  10
ATOM     10  C   UNL d   1      54.522  32.984  54.640  0.00  0.00     0.025 A 
ATOM     11  C   UNL d   1      55.109  33.449  54.294  0.00  0.00     0.002 A 
ATOM     12  C   UNL d   1      55.517  34.015  54.744  0.00  0.00     0.000 A 
ATOM     13  C   UNL d   1      55.333  34.112  55.541  0.00  0.00     0.000 A 
ATOM     14  C   UNL d   1      54.742  33.643  55.888  0.00  0.00     0.000 A 
ATOM     15  C   UNL d   1      54.339  33.081  55.437  0.00  0.00     0.002 A 
ENDBRANCH   9  10
ENDBRANCH   8   9
ENDBRANCH   1   8
BRANCH   1  16
ATOM     16  C   UNL d   1      52.381  32.595  53.140  0.00  0.00     0.061 A 
ATOM     17  C   UNL d   1      51.687  32.588  53.582  0.00  0.00     0.007 A 
ATOM     18  C   UNL d   1      51.090  33.127  53.421  0.00  0.00     0.018 A 
ATOM     19  C   UNL d   1      51.187  33.678  52.814  0.00  0.00     0.064 A 
ATOM     20  C   UNL d   1      51.881  33.685  52.372  0.00  0.00     0.018 A 
ATOM     21  C   UNL d   1      52.480  33.141  52.537  0.00  0.00     0.007 A 
BRANCH  19  22
ATOM     22  N   UNL d   1      50.555  34.238  52.652  0.00  0.00    -0.301 N 
ATOM     23  C   UNL d   1      50.262  34.710  53.269  0.00  0.00     0.100 C 
ATOM     24  C   UNL d   1      50.237  34.313  51.891  0.00  0.00     0.100 C 
ENDBRANCH  19  22
ENDBRANCH   1  16
TORSDOF 7
ENDMDL
MODEL 5
REMARK VINA RESULT:      -7.3      1.383      3.811
REMARK  7 active torsions:
REMARK  status: ('A' for Active; 'I' for Inactive)
REMARK    1  A    between atoms: C_2  and  P_1 
REMARK    2  A    between atoms: O_3  and  P_1 
REMARK    3  A    between atoms: C_4  and  P_1 
REMARK    4  A    between atoms: C_12  and  C_2 
REMARK    5  A    between atoms: C_13  and  O_3 
REMARK    6  A    between atoms: N_7  and  C_6 
REMARK    7  A    between atoms: C_15  and  C_13 
ROOT
ATOM      1  P   UNL d   1      52.690  32.876  53.153  0.00  0.00     0.307 P 
ATOM      2  O   UNL d   1      52.081  32.587  52.615  0.00  0.00    -0.277 OA
ENDROOT
BRANCH   1   3
ATOM      3  C   UNL d   1      52.503  33.686  52.944  0.00  0.00     0.253 C 
ATOM      4  O   UNL d   1      53.101  34.255  52.946  0.00  0.00    -0.281 OA
BRANCH   3   5
ATOM      5  C   UNL d   1      51.733  33.899  52.743  0.00  0.00     0.044 C 
ATOM      6  C   UNL d   1      51.559  34.128  51.970  0.00  0.00     0.004 C 
ATOM      7  C   UNL d   1      51.141  33.885  53.310  0.00  0.00     0.004 C 
ENDBRANCH   3   5
ENDBRANCH   1   3
BRANCH   1   8
ATOM      8  O   UNL d   1      52.858  32.065  53.344  0.00  0.00    -0.279 OA
BRANCH   8   9
ATOM      9  C   UNL d   1      52.517  31.429  52.890  0.00  0.00     0.124 C 
BRANCH   9  10
ATOM     10  C   UNL d   1      52.618  30.643  53.099  0.00  0.00     0.025 A 
ATOM     11  C   UNL d   1      53.332  30.263  52.942  0.00  0.00     0.002 A 
ATOM     12  C   UNL d   1      53.440  29.467  53.152  0.00  0.00     0.000 A 
ATOM     13  C   UNL d   1      52.828  29.056  53.520  0.00  0.00     0.000 A 
ATOM     14  C   UNL d   1      52.109  29.440  53.677  0.00  0.00     0.000 A 
ATOM     15  C   UNL d   1      52.006  30.232  53.467  0.00  0.00     0.002 A 
ENDBRANCH   9  10
ENDBRANCH   8   9
ENDBRANCH   1   8
BRANCH   1  16
ATOM     16  C   UNL d   1      53.301  33.129  53.694  0.00  0.00     0.061 A 
ATOM     17  C   UNL d   1      54.079  33.160  53.427  0.00  0.00     0.007 A 
ATOM     18  C   UNL d   1      54.679  33.401  53.932  0.00  0.00     0.018 A 
ATOM     19  C   UNL d   1      54.501  33.612  54.710  0.00  0.00     0.064 A 
ATOM     20  C   UNL d   1      53.723  33.582  54.976  0.00  0.00     0.018 A 
ATOM     21  C   UNL d   1      53.122  33.339  54.466  0.00  0.00     0.007 A 
BRANCH  19  22
ATOM     22  N   UNL d   1      55.137  33.863  55.232  0.00  0.00    -0.301 N 
ATOM     23  C   UNL d   1      55.859  34.107  54.905  0.00  0.00     0.100 C 
ATOM     24  C   UNL d   1      55.036  33.864  56.054  0.00  0.00     0.100 C 
ENDBRANCH  19  22
ENDBRANCH   1  16
TORSDOF 7
ENDMDL
