MODEL 1
REMARK VINA RESULT:      -5.9      0.000      0.000
REMARK  7 active torsions:
REMARK  status: ('A' for Active; 'I' for Inactive)
REMARK       I    between atoms: N_3  and  C_1 
REMARK    1  A    between atoms: C_10  and  C_1 
REMARK    2  A    between atoms: C_2  and  C_5 
REMARK    3  A    between atoms: O_15  and  C_2 
REMARK    4  A    between atoms: C_11  and  N_3 
REMARK    5  A    between atoms: C_4  and  C_11 
REMARK       I    between atoms: N_6  and  C_4 
REMARK    6  A    between atoms: C_14  and  N_6 
REMARK    7  A    between atoms: C_20  and  O_15 
ROOT
ATOM      1  C   UNL d   1     -47.787  12.710  22.573  0.00  0.00     0.299 C 
ATOM      2  N   UNL d   1     -47.161  12.888  23.075  0.00  0.00    -0.207 NA
ATOM      3  O   UNL d   1     -47.632  12.425  21.815  0.00  0.00    -0.263 OA
ENDROOT
BRANCH   1   4
ATOM      4  C   UNL d   1     -48.560  12.813  22.819  0.00  0.00     0.165 C 
BRANCH   4   5
ATOM      5  N   UNL d   1     -48.875  13.568  22.908  0.00  0.00    -0.201 NA
ATOM      6  C   UNL d   1     -49.662  13.660  23.135  0.00  0.00     0.279 C 
ATOM      7  O   UNL d   1     -50.120  12.936  23.269  0.00  0.00    -0.265 OA
BRANCH   6   8
ATOM      8  C   UNL d   1     -49.980  14.418  23.226  0.00  0.00     0.058 A 
ATOM      9  C   UNL d   1     -50.731  14.588  22.931  0.00  0.00     0.005 A 
ATOM     10  C   UNL d   1     -51.045  15.340  23.021  0.00  0.00     0.000 A 
ATOM     11  C   UNL d   1     -50.616  15.922  23.403  0.00  0.00     0.000 A 
ATOM     12  C   UNL d   1     -49.865  15.753  23.698  0.00  0.00     0.000 A 
ATOM     13  C   UNL d   1     -49.542  15.002  23.612  0.00  0.00     0.005 A 
ENDBRANCH   6   8
ENDBRANCH   4   5
ENDBRANCH   1   4
BRANCH   2  14
ATOM     14  C   UNL d   1     -46.378  12.783  22.824  0.00  0.00     0.085 A 
ATOM     15  C   UNL d   1     -45.974  12.101  23.032  0.00  0.00     0.019 A 
ATOM     16  C   UNL d   1     -45.202  11.995  22.785  0.00  0.00     0.007 A 
ATOM     17  C   UNL d   1     -44.826  12.578  22.323  0.00  0.00     0.064 A 
ATOM     18  C   UNL d   1     -45.239  13.262  22.118  0.00  0.00     0.007 A 
ATOM     19  C   UNL d   1     -46.017  13.367  22.367  0.00  0.00     0.019 A 
BRANCH  17  20
ATOM     20  C   UNL d   1     -44.045  12.471  22.074  0.00  0.00     0.300 C 
ATOM     21  O   UNL d   1     -43.619  11.806  22.312  0.00  0.00    -0.259 OA
BRANCH  20  22
ATOM     22  O   UNL d   1     -43.694  13.033  21.584  0.00  0.00    -0.271 OA
BRANCH  22  23
ATOM     23  C   UNL d   1     -42.919  12.927  21.316  0.00  0.00     0.126 C 
ATOM     24  C   UNL d   1     -42.524  13.550  20.947  0.00  0.00     0.029 C 
ENDBRANCH  22  23
ENDBRANCH  20  22
ENDBRANCH  17  20
ENDBRANCH   2  14
TORSDOF 7
ENDMDL
MODEL 2
REMARK VINA RESULT:      -5.7      1.380      6.107
REMARK  7 active torsions:
REMARK  status: ('A' for Active; 'I' for Inactive)
REMARK       I    between atoms: N_3  and  C_1 
REMARK    1  A    between atoms: C_10  and  C_1 
REMARK    2  A    between atoms: C_2  and  C_5 
REMARK    3  A    between atoms: O_15  and  C_2 
REMARK    4  A    between atoms: C_11  and  N_3 
REMARK    5  A    between atoms: C_4  and  C_11 
REMARK       I    between atoms: N_6  and  C_4 
REMARK    6  A    between atoms: C_14  and  N_6 
REMARK    7  A    between atoms: C_20  and  O_15 
ROOT
ATOM      1  C   UNL d   1     -45.125  13.001  22.018  0.00  0.00     0.299 C 
ATOM      2  N   UNL d   1     -45.489  13.244  22.715  0.00  0.00    -0.207 NA
ATOM      3  O   UNL d   1     -45.550  13.016  21.311  0.00  0.00    -0.263 OA
ENDROOT
BRANCH   1   4
ATOM      4  C   UNL d   1     -44.348  12.746  22.020  0.00  0.00     0.165 C 
BRANCH   4   5
ATOM      5  N   UNL d   1     -43.759  13.191  21.656  0.00  0.00    -0.201 NA
ATOM      6  C   UNL d   1     -43.006  12.872  21.558  0.00  0.00     0.279 C 
ATOM      7  O   UNL d   1     -42.878  12.067  21.852  0.00  0.00    -0.265 OA
BRANCH   6   8
ATOM      8  C   UNL d   1     -42.413  13.318  21.192  0.00  0.00     0.058 A 
ATOM      9  C   UNL d   1     -41.882  13.753  21.651  0.00  0.00     0.005 A 
ATOM     10  C   UNL d   1     -41.294  14.194  21.286  0.00  0.00     0.000 A 
ATOM     11  C   UNL d   1     -41.233  14.205  20.472  0.00  0.00     0.000 A 
ATOM     12  C   UNL d   1     -41.764  13.771  20.013  0.00  0.00     0.000 A 
ATOM     13  C   UNL d   1     -42.356  13.326  20.369  0.00  0.00     0.005 A 
ENDBRANCH   6   8
ENDBRANCH   4   5
ENDBRANCH   1   4
BRANCH   2  14
ATOM     14  C   UNL d   1     -46.276  13.502  22.709  0.00  0.00     0.085 A 
ATOM     15  C   UNL d   1     -46.883  12.952  22.746  0.00  0.00     0.019 A 
ATOM     16  C   UNL d   1     -47.661  13.204  22.741  0.00  0.00     0.007 A 
ATOM     17  C   UNL d   1     -47.837  14.018  22.698  0.00  0.00     0.064 A 
ATOM     18  C   UNL d   1     -47.220  14.565  22.662  0.00  0.00     0.007 A 
ATOM     19  C   UNL d   1     -46.438  14.310  22.667  0.00  0.00     0.019 A 
BRANCH  17  20
ATOM     20  C   UNL d   1     -48.623  14.272  22.693  0.00  0.00     0.300 C 
ATOM     21  O   UNL d   1     -49.177  13.905  22.204  0.00  0.00    -0.259 OA
BRANCH  20  22
ATOM     22  O   UNL d   1     -48.852  14.897  23.181  0.00  0.00    -0.271 OA
BRANCH  22  23
ATOM     23  C   UNL d   1     -49.630  15.175  23.164  0.00  0.00     0.126 C 
ATOM     24  C   UNL d   1     -49.867  15.759  23.696  0.00  0.00     0.029 C 
ENDBRANCH  22  23
ENDBRANCH  20  22
ENDBRANCH  17  20
ENDBRANCH   2  14
TORSDOF 7
ENDMDL
MODEL 3
REMARK VINA RESULT:      -5.4      1.816      2.195
REMARK  7 active torsions:
REMARK  status: ('A' for Active; 'I' for Inactive)
REMARK       I    between atoms: N_3  and  C_1 
REMARK    1  A    between atoms: C_10  and  C_1 
REMARK    2  A    between atoms: C_2  and  C_5 
REMARK    3  A    between atoms: O_15  and  C_2 
REMARK    4  A    between atoms: C_11  and  N_3 
REMARK    5  A    between atoms: C_4  and  C_11 
REMARK       I    between atoms: N_6  and  C_4 
REMARK    6  A    between atoms: C_14  and  N_6 
REMARK    7  A    between atoms: C_20  and  O_15 
ROOT
ATOM      1  C   UNL d   1     -48.671  11.657  23.087  0.00  0.00     0.299 C 
ATOM      2  N   UNL d   1     -48.148  11.921  23.665  0.00  0.00    -0.207 NA
ATOM      3  O   UNL d   1     -48.400  11.151  22.494  0.00  0.00    -0.263 OA
ENDROOT
BRANCH   1   4
ATOM      4  C   UNL d   1     -49.454  11.891  23.096  0.00  0.00     0.165 C 
BRANCH   4   5
ATOM      5  N   UNL d   1     -49.660  12.671  22.933  0.00  0.00    -0.201 NA
ATOM      6  C   UNL d   1     -50.439  12.919  23.034  0.00  0.00     0.279 C 
ATOM      7  O   UNL d   1     -51.008  12.327  23.312  0.00  0.00    -0.265 OA
BRANCH   6   8
ATOM      8  C   UNL d   1     -50.648  13.703  22.870  0.00  0.00     0.058 A 
ATOM      9  C   UNL d   1     -50.819  13.931  22.096  0.00  0.00     0.005 A 
ATOM     10  C   UNL d   1     -51.026  14.708  21.936  0.00  0.00     0.000 A 
ATOM     11  C   UNL d   1     -51.064  15.257  22.540  0.00  0.00     0.000 A 
ATOM     12  C   UNL d   1     -50.893  15.029  23.315  0.00  0.00     0.000 A 
ATOM     13  C   UNL d   1     -50.684  14.253  23.484  0.00  0.00     0.005 A 
ENDBRANCH   6   8
ENDBRANCH   4   5
ENDBRANCH   1   4
BRANCH   2  14
ATOM     14  C   UNL d   1     -47.354  11.682  23.653  0.00  0.00     0.085 A 
ATOM     15  C   UNL d   1     -46.761  12.247  23.620  0.00  0.00     0.019 A 
ATOM     16  C   UNL d   1     -45.978  12.014  23.609  0.00  0.00     0.007 A 
ATOM     17  C   UNL d   1     -45.782  11.204  23.631  0.00  0.00     0.064 A 
ATOM     18  C   UNL d   1     -46.384  10.641  23.664  0.00  0.00     0.007 A 
ATOM     19  C   UNL d   1     -47.172  10.877  23.675  0.00  0.00     0.019 A 
BRANCH  17  20
ATOM     20  C   UNL d   1     -44.989  10.968  23.619  0.00  0.00     0.300 C 
ATOM     21  O   UNL d   1     -44.388  11.530  23.552  0.00  0.00    -0.259 OA
BRANCH  20  22
ATOM     22  O   UNL d   1     -44.802  10.167  23.676  0.00  0.00    -0.271 OA
BRANCH  22  23
ATOM     23  C   UNL d   1     -44.050   9.899  23.463  0.00  0.00     0.126 C 
ATOM     24  C   UNL d   1     -43.870   9.096  23.520  0.00  0.00     0.029 C 
ENDBRANCH  22  23
ENDBRANCH  20  22
ENDBRANCH  17  20
ENDBRANCH   2  14
TORSDOF 7
ENDMDL
MODEL 4
REMARK VINA RESULT:      -5.3      8.236      9.793
REMARK  7 active torsions:
REMARK  status: ('A' for Active; 'I' for Inactive)
REMARK       I    between atoms: N_3  and  C_1 
REMARK    1  A    between atoms: C_10  and  C_1 
REMARK    2  A    between atoms: C_2  and  C_5 
REMARK    3  A    between atoms: O_15  and  C_2 
REMARK    4  A    between atoms: C_11  and  N_3 
REMARK    5  A    between atoms: C_4  and  C_11 
REMARK       I    between atoms: N_6  and  C_4 
REMARK    6  A    between atoms: C_14  and  N_6 
REMARK    7  A    between atoms: C_20  and  O_15 
ROOT
ATOM      1  C   UNL d   1     -39.616  14.736  19.199  0.00  0.00     0.299 C 
ATOM      2  N   UNL d   1     -39.432  15.373  18.712  0.00  0.00    -0.207 NA
ATOM      3  O   UNL d   1     -39.498  13.967  18.925  0.00  0.00    -0.263 OA
ENDROOT
BRANCH   1   4
ATOM      4  C   UNL d   1     -39.912  14.859  19.951  0.00  0.00     0.165 C 
BRANCH   4   5
ATOM      5  N   UNL d   1     -39.519  14.561  20.611  0.00  0.00    -0.201 NA
ATOM      6  C   UNL d   1     -39.710  14.841  21.362  0.00  0.00     0.279 C 
ATOM      7  O   UNL d   1     -40.330  15.445  21.412  0.00  0.00    -0.265 OA
BRANCH   6   8
ATOM      8  C   UNL d   1     -39.316  14.543  22.026  0.00  0.00     0.058 A 
ATOM      9  C   UNL d   1     -39.065  15.058  22.620  0.00  0.00     0.005 A 
ATOM     10  C   UNL d   1     -38.674  14.761  23.278  0.00  0.00     0.000 A 
ATOM     11  C   UNL d   1     -38.534  13.959  23.346  0.00  0.00     0.000 A 
ATOM     12  C   UNL d   1     -38.786  13.445  22.752  0.00  0.00     0.000 A 
ATOM     13  C   UNL d   1     -39.178  13.733  22.090  0.00  0.00     0.005 A 
ENDBRANCH   6   8
ENDBRANCH   4   5
ENDBRANCH   1   4
BRANCH   2  14
ATOM     14  C   UNL d   1     -39.132  15.245  17.951  0.00  0.00     0.085 A 
ATOM     15  C   UNL d   1     -39.647  15.088  17.332  0.00  0.00     0.019 A 
ATOM     16  C   UNL d   1     -39.353  14.962  16.580  0.00  0.00     0.007 A 
ATOM     17  C   UNL d   1     -38.532  14.993  16.441  0.00  0.00     0.064 A 
ATOM     18  C   UNL d   1     -38.020  15.151  17.068  0.00  0.00     0.007 A 
ATOM     19  C   UNL d   1     -38.317  15.278  17.825  0.00  0.00     0.019 A 
BRANCH  17  20
ATOM     20  C   UNL d   1     -38.235  14.865  15.680  0.00  0.00     0.300 C 
ATOM     21  O   UNL d   1     -37.950  15.497  15.232  0.00  0.00    -0.259 OA
BRANCH  20  22
ATOM     22  O   UNL d   1     -38.225  14.101  15.370  0.00  0.00    -0.271 OA
BRANCH  22  23
ATOM     23  C   UNL d   1     -37.956  13.967  14.600  0.00  0.00     0.126 C 
ATOM     24  C   UNL d   1     -37.942  13.199  14.300  0.00  0.00     0.029 C 
ENDBRANCH  22  23
ENDBRANCH  20  22
ENDBRANCH  17  20
ENDBRANCH   2  14
TORSDOF 7
ENDMDL
MODEL 5
REMARK VINA RESULT:      -5.2      2.451      4.571
REMARK  7 active torsions:
REMARK  status: ('A' for Active; 'I' for Inactive)
REMARK       I    between atoms: N_3  and  C_1 
REMARK    1  A    between atoms: C_10  and  C_1 
REMARK    2  A    between atoms: C_2  and  C_5 
REMARK    3  A    between atoms: O_15  and  C_2 
REMARK    4  A    between atoms: C_11  and  N_3 
REMARK    5  A    between atoms: C_4  and  C_11 
REMARK       I    between atoms: N_6  and  C_4 
REMARK    6  A    between atoms: C_14  and  N_6 
REMARK    7  A    between atoms: C_20  and  O_15 
ROOT
ATOM      1  C   UNL d   1     -43.313  13.009  21.406  0.00  0.00     0.299 C 
ATOM      2  N   UNL d   1     -42.715  13.465  21.739  0.00  0.00    -0.207 NA
ATOM      3  O   UNL d   1     -43.303  12.856  20.595  0.00  0.00    -0.263 OA
ENDROOT
BRANCH   1   4
ATOM      4  C   UNL d   1     -43.915  12.708  21.870  0.00  0.00     0.165 C 
BRANCH   4   5
ATOM      5  N   UNL d   1     -44.645  13.086  21.906  0.00  0.00    -0.201 NA
ATOM      6  C   UNL d   1     -45.209  12.837  22.453  0.00  0.00     0.279 C 
ATOM      7  O   UNL d   1     -44.991  12.176  22.970  0.00  0.00    -0.265 OA
BRANCH   6   8
ATOM      8  C   UNL d   1     -45.944  13.216  22.491  0.00  0.00     0.058 A 
ATOM      9  C   UNL d   1     -46.615  12.842  22.192  0.00  0.00     0.005 A 
ATOM     10  C   UNL d   1     -47.343  13.219  22.230  0.00  0.00     0.000 A 
ATOM     11  C   UNL d   1     -47.405  13.962  22.564  0.00  0.00     0.000 A 
ATOM     12  C   UNL d   1     -46.733  14.336  22.863  0.00  0.00     0.000 A 
ATOM     13  C   UNL d   1     -46.000  13.966  22.829  0.00  0.00     0.005 A 
ENDBRANCH   6   8
ENDBRANCH   4   5
ENDBRANCH   1   4
BRANCH   2  14
ATOM     14  C   UNL d   1     -42.106  13.769  21.266  0.00  0.00     0.085 A 
ATOM     15  C   UNL d   1     -41.493  13.279  21.031  0.00  0.00     0.019 A 
ATOM     16  C   UNL d   1     -40.891  13.576  20.564  0.00  0.00     0.007 A 
ATOM     17  C   UNL d   1     -40.900  14.376  20.329  0.00  0.00     0.064 A 
ATOM     18  C   UNL d   1     -41.520  14.863  20.570  0.00  0.00     0.007 A 
ATOM     19  C   UNL d   1     -42.125  14.562  21.039  0.00  0.00     0.019 A 
BRANCH  17  20
ATOM     20  C   UNL d   1     -40.291  14.676  19.857  0.00  0.00     0.300 C 
ATOM     21  O   UNL d   1     -39.659  15.081  20.200  0.00  0.00    -0.259 OA
BRANCH  20  22
ATOM     22  O   UNL d   1     -40.318  14.568  19.040  0.00  0.00    -0.271 OA
BRANCH  22  23
ATOM     23  C   UNL d   1     -39.716  14.867  18.559  0.00  0.00     0.126 C 
ATOM     24  C   UNL d   1     -39.748  14.752  17.743  0.00  0.00     0.029 C 
ENDBRANCH  22  23
ENDBRANCH  20  22
ENDBRANCH  17  20
ENDBRANCH   2  14
TORSDOF 7
ENDMDL
MODEL 6
REMARK VINA RESULT:      -5.1      2.041      6.348
REMARK  7 active torsions:
REMARK  status: ('A' for Active; 'I' for Inactive)
REMARK       I    between atoms: N_3  and  C_1 
REMARK    1  A    between atoms: C_10  and  C_1 
REMARK    2  A    between atoms: C_2  and  C_5 
REMARK    3  A    between atoms: O_15  and  C_2 
REMARK    4  A    between atoms: C_11  and  N_3 
REMARK    5  A    between atoms: C_4  and  C_11 
REMARK       I    between atoms: N_6  and  C_4 
REMARK    6  A    between atoms: C_14  and  N_6 
REMARK    7  A    between atoms: C_20  and  O_15 
ROOT
ATOM      1  C   UNL d   1     -43.964  12.901  21.575  0.00  0.00     0.299 C 
ATOM      2  N   UNL d   1     -44.312  13.045  22.306  0.00  0.00    -0.207 NA
ATOM      3  O   UNL d   1     -44.443  12.778  20.915  0.00  0.00    -0.263 OA
ENDROOT
BRANCH   1   4
ATOM      4  C   UNL d   1     -43.151  12.878  21.498  0.00  0.00     0.165 C 
BRANCH   4   5
ATOM      5  N   UNL d   1     -42.749  13.486  21.116  0.00  0.00    -0.201 NA
ATOM      6  C   UNL d   1     -41.929  13.540  21.180  0.00  0.00     0.279 C 
ATOM      7  O   UNL d   1     -41.531  12.937  21.659  0.00  0.00    -0.265 OA
BRANCH   6   8
ATOM      8  C   UNL d   1     -41.523  14.151  20.797  0.00  0.00     0.058 A 
ATOM      9  C   UNL d   1     -41.533  14.913  21.112  0.00  0.00     0.005 A 
ATOM     10  C   UNL d   1     -41.129  15.517  20.731  0.00  0.00     0.000 A 
ATOM     11  C   UNL d   1     -40.719  15.366  20.040  0.00  0.00     0.000 A 
ATOM     12  C   UNL d   1     -40.710  14.604  19.725  0.00  0.00     0.000 A 
ATOM     13  C   UNL d   1     -41.111  13.993  20.100  0.00  0.00     0.005 A 
ENDBRANCH   6   8
ENDBRANCH   4   5
ENDBRANCH   1   4
BRANCH   2  14
ATOM     14  C   UNL d   1     -45.137  13.068  22.382  0.00  0.00     0.085 A 
ATOM     15  C   UNL d   1     -45.538  13.770  22.244  0.00  0.00     0.019 A 
ATOM     16  C   UNL d   1     -46.351  13.795  22.317  0.00  0.00     0.007 A 
ATOM     17  C   UNL d   1     -46.774  13.109  22.532  0.00  0.00     0.064 A 
ATOM     18  C   UNL d   1     -46.364  12.407  22.669  0.00  0.00     0.007 A 
ATOM     19  C   UNL d   1     -45.544  12.383  22.594  0.00  0.00     0.019 A 
BRANCH  17  20
ATOM     20  C   UNL d   1     -47.596  13.134  22.606  0.00  0.00     0.300 C 
ATOM     21  O   UNL d   1     -47.945  13.304  23.334  0.00  0.00    -0.259 OA
BRANCH  20  22
ATOM     22  O   UNL d   1     -48.069  12.989  21.946  0.00  0.00    -0.271 OA
BRANCH  22  23
ATOM     23  C   UNL d   1     -48.893  13.021  22.008  0.00  0.00     0.126 C 
ATOM     24  C   UNL d   1     -49.358  12.905  21.336  0.00  0.00     0.029 C 
ENDBRANCH  22  23
ENDBRANCH  20  22
ENDBRANCH  17  20
ENDBRANCH   2  14
TORSDOF 7
ENDMDL
MODEL 7
REMARK VINA RESULT:      -3.8      4.413      8.980
REMARK  7 active torsions:
REMARK  status: ('A' for Active; 'I' for Inactive)
REMARK       I    between atoms: N_3  and  C_1 
REMARK    1  A    between atoms: C_10  and  C_1 
REMARK    2  A    between atoms: C_2  and  C_5 
REMARK    3  A    between atoms: O_15  and  C_2 
REMARK    4  A    between atoms: C_11  and  N_3 
REMARK    5  A    between atoms: C_4  and  C_11 
REMARK       I    between atoms: N_6  and  C_4 
REMARK    6  A    between atoms: C_14  and  N_6 
REMARK    7  A    between atoms: C_20  and  O_15 
ROOT
ATOM      1  C   UNL d   1     -40.463  14.447  19.557  0.00  0.00     0.299 C 
ATOM      2  N   UNL d   1     -40.656  14.522  20.353  0.00  0.00    -0.207 NA
ATOM      3  O   UNL d   1     -40.928  13.969  19.070  0.00  0.00    -0.263 OA
ENDROOT
BRANCH   1   4
ATOM      4  C   UNL d   1     -39.817  14.839  19.246  0.00  0.00     0.165 C 
BRANCH   4   5
ATOM      5  N   UNL d   1     -39.567  14.689  18.476  0.00  0.00    -0.201 NA
ATOM      6  C   UNL d   1     -38.884  15.051  18.190  0.00  0.00     0.279 C 
ATOM      7  O   UNL d   1     -38.462  15.582  18.731  0.00  0.00    -0.265 OA
BRANCH   6   8
ATOM      8  C   UNL d   1     -38.630  14.902  17.417  0.00  0.00     0.058 A 
ATOM      9  C   UNL d   1     -38.191  14.224  17.251  0.00  0.00     0.005 A 
ATOM     10  C   UNL d   1     -37.940  14.077  16.484  0.00  0.00     0.000 A 
ATOM     11  C   UNL d   1     -38.124  14.600  15.884  0.00  0.00     0.000 A 
ATOM     12  C   UNL d   1     -38.563  15.278  16.049  0.00  0.00     0.000 A 
ATOM     13  C   UNL d   1     -38.819  15.434  16.814  0.00  0.00     0.005 A 
ENDBRANCH   6   8
ENDBRANCH   4   5
ENDBRANCH   1   4
BRANCH   2  14
ATOM     14  C   UNL d   1     -41.311  14.123  20.666  0.00  0.00     0.085 A 
ATOM     15  C   UNL d   1     -41.260  13.318  20.819  0.00  0.00     0.019 A 
ATOM     16  C   UNL d   1     -41.905  12.922  21.128  0.00  0.00     0.007 A 
ATOM     17  C   UNL d   1     -42.613  13.333  21.287  0.00  0.00     0.064 A 
ATOM     18  C   UNL d   1     -42.656  14.142  21.130  0.00  0.00     0.007 A 
ATOM     19  C   UNL d   1     -42.006  14.540  20.820  0.00  0.00     0.019 A 
BRANCH  17  20
ATOM     20  C   UNL d   1     -43.265  12.932  21.599  0.00  0.00     0.300 C 
ATOM     21  O   UNL d   1     -43.196  12.144  21.833  0.00  0.00    -0.259 OA
BRANCH  20  22
ATOM     22  O   UNL d   1     -43.986  13.325  21.675  0.00  0.00    -0.271 OA
BRANCH  22  23
ATOM     23  C   UNL d   1     -44.633  12.945  22.022  0.00  0.00     0.126 C 
ATOM     24  C   UNL d   1     -45.348  13.348  22.105  0.00  0.00     0.029 C 
ENDBRANCH  22  23
ENDBRANCH  20  22
ENDBRANCH  17  20
ENDBRANCH   2  14
TORSDOF 7
ENDMDL
