MODEL 1
REMARK VINA RESULT:      -9.6      0.000      0.000
REMARK  1 active torsions:
REMARK  status: ('A' for Active; 'I' for Inactive)
REMARK    1  A    between atoms: C_10  and  N_2 
ROOT
ATOM      1  C   UNL d   1     -48.743  13.473  23.082  0.00  0.00     0.166 A 
ATOM      2  N   UNL d   1     -48.236  12.822  22.978  0.00  0.00    -0.291 N 
ATOM      3  C   UNL d   1     -48.272  14.145  23.023  0.00  0.00     0.117 A 
ATOM      4  C   UNL d   1     -47.481  13.099  22.860  0.00  0.00     0.067 A 
ATOM      5  N   UNL d   1     -49.564  13.528  23.220  0.00  0.00    -0.225 NA
ATOM      6  C   UNL d   1     -47.503  13.923  22.888  0.00  0.00     0.037 A 
ATOM      7  N   UNL d   1     -48.647  14.882  23.107  0.00  0.00    -0.241 NA
ATOM      8  C   UNL d   1     -49.912  14.255  23.300  0.00  0.00     0.101 A 
ATOM      9  C   UNL d   1     -49.441  14.937  23.241  0.00  0.00     0.099 A 
ATOM     10  C   UNL d   1     -46.761  12.707  22.729  0.00  0.00     0.018 A 
ATOM     11  C   UNL d   1     -46.805  14.355  22.785  0.00  0.00     0.003 A 
ATOM     12  C   UNL d   1     -49.787  15.674  23.321  0.00  0.00     0.021 A 
ATOM     13  C   UNL d   1     -50.704  14.318  23.434  0.00  0.00     0.021 A 
ATOM     14  C   UNL d   1     -46.063  13.145  22.625  0.00  0.00     0.002 A 
ATOM     15  C   UNL d   1     -46.085  13.969  22.653  0.00  0.00     0.000 A 
ATOM     16  C   UNL d   1     -51.053  15.082  23.515  0.00  0.00     0.002 A 
ATOM     17  C   UNL d   1     -50.608  15.759  23.460  0.00  0.00     0.002 A 
ENDROOT
BRANCH   2  18
ATOM     18  C   UNL d   1     -48.461  12.045  22.993  0.00  0.00     0.066 C 
ATOM     19  C   UNL d   1     -48.728  11.688  22.274  0.00  0.00     0.019 C 
ATOM     20  C   UNL d   1     -48.426  11.624  23.696  0.00  0.00     0.019 C 
ENDBRANCH   2  18
TORSDOF 1
ENDMDL
MODEL 2
REMARK VINA RESULT:      -9.6      0.959      3.590
REMARK  1 active torsions:
REMARK  status: ('A' for Active; 'I' for Inactive)
REMARK    1  A    between atoms: C_10  and  N_2 
ROOT
ATOM      1  C   UNL d   1     -48.803  13.722  23.061  0.00  0.00     0.166 A 
ATOM      2  N   UNL d   1     -49.614  13.895  23.120  0.00  0.00    -0.291 N 
ATOM      3  C   UNL d   1     -48.726  12.919  23.222  0.00  0.00     0.117 A 
ATOM      4  C   UNL d   1     -50.011  13.212  23.311  0.00  0.00     0.067 A 
ATOM      5  N   UNL d   1     -48.140  14.196  22.882  0.00  0.00    -0.225 NA
ATOM      6  C   UNL d   1     -49.457  12.604  23.376  0.00  0.00     0.037 A 
ATOM      7  N   UNL d   1     -47.959  12.599  23.200  0.00  0.00    -0.241 NA
ATOM      8  C   UNL d   1     -47.401  13.866  22.865  0.00  0.00     0.101 A 
ATOM      9  C   UNL d   1     -47.317  13.056  23.027  0.00  0.00     0.099 A 
ATOM     10  C   UNL d   1     -50.816  13.055  23.440  0.00  0.00     0.018 A 
ATOM     11  C   UNL d   1     -49.709  11.839  23.568  0.00  0.00     0.003 A 
ATOM     12  C   UNL d   1     -46.572  12.717  23.012  0.00  0.00     0.021 A 
ATOM     13  C   UNL d   1     -46.755  14.316  22.693  0.00  0.00     0.021 A 
ATOM     14  C   UNL d   1     -51.064  12.287  23.632  0.00  0.00     0.002 A 
ATOM     15  C   UNL d   1     -50.510  11.678  23.696  0.00  0.00     0.000 A 
ATOM     16  C   UNL d   1     -45.990  13.958  22.679  0.00  0.00     0.002 A 
ATOM     17  C   UNL d   1     -45.889  13.169  22.835  0.00  0.00     0.002 A 
ENDROOT
BRANCH   2  18
ATOM     18  C   UNL d   1     -49.949  14.623  23.004  0.00  0.00     0.066 C 
ATOM     19  C   UNL d   1     -50.020  15.144  23.667  0.00  0.00     0.019 C 
ATOM     20  C   UNL d   1     -50.209  14.837  22.256  0.00  0.00     0.019 C 
ENDBRANCH   2  18
TORSDOF 1
ENDMDL
MODEL 3
REMARK VINA RESULT:      -9.4      0.697      3.202
REMARK  1 active torsions:
REMARK  status: ('A' for Active; 'I' for Inactive)
REMARK    1  A    between atoms: C_10  and  N_2 
ROOT
ATOM      1  C   UNL d   1     -48.771  13.385  22.962  0.00  0.00     0.166 A 
ATOM      2  N   UNL d   1     -49.588  13.250  23.035  0.00  0.00    -0.291 N 
ATOM      3  C   UNL d   1     -48.664  14.198  23.024  0.00  0.00     0.117 A 
ATOM      4  C   UNL d   1     -49.960  13.965  23.138  0.00  0.00     0.067 A 
ATOM      5  N   UNL d   1     -48.125  12.869  22.848  0.00  0.00    -0.225 NA
ATOM      6  C   UNL d   1     -49.385  14.556  23.132  0.00  0.00     0.037 A 
ATOM      7  N   UNL d   1     -47.887  14.486  22.969  0.00  0.00    -0.241 NA
ATOM      8  C   UNL d   1     -47.374  13.168  22.797  0.00  0.00     0.101 A 
ATOM      9  C   UNL d   1     -47.261  13.989  22.859  0.00  0.00     0.099 A 
ATOM     10  C   UNL d   1     -50.759  14.165  23.239  0.00  0.00     0.018 A 
ATOM     11  C   UNL d   1     -49.609  15.347  23.227  0.00  0.00     0.003 A 
ATOM     12  C   UNL d   1     -46.504  14.296  22.808  0.00  0.00     0.021 A 
ATOM     13  C   UNL d   1     -46.744  12.678  22.687  0.00  0.00     0.021 A 
ATOM     14  C   UNL d   1     -50.980  14.959  23.334  0.00  0.00     0.002 A 
ATOM     15  C   UNL d   1     -50.405  15.551  23.328  0.00  0.00     0.000 A 
ATOM     16  C   UNL d   1     -45.966  13.003  22.635  0.00  0.00     0.002 A 
ATOM     17  C   UNL d   1     -45.837  13.802  22.694  0.00  0.00     0.002 A 
ENDROOT
BRANCH   2  18
ATOM     18  C   UNL d   1     -49.948  12.526  23.007  0.00  0.00     0.066 C 
ATOM     19  C   UNL d   1     -50.206  12.231  22.256  0.00  0.00     0.019 C 
ATOM     20  C   UNL d   1     -50.055  12.097  23.698  0.00  0.00     0.019 C 
ENDBRANCH   2  18
TORSDOF 1
ENDMDL
MODEL 4
REMARK VINA RESULT:      -9.1      1.088      3.251
REMARK  1 active torsions:
REMARK  status: ('A' for Active; 'I' for Inactive)
REMARK    1  A    between atoms: C_10  and  N_2 
ROOT
ATOM      1  C   UNL d   1     -48.907  12.874  23.135  0.00  0.00     0.166 A 
ATOM      2  N   UNL d   1     -49.673  13.164  22.995  0.00  0.00    -0.291 N 
ATOM      3  C   UNL d   1     -48.401  13.520  23.076  0.00  0.00     0.117 A 
ATOM      4  C   UNL d   1     -49.626  13.964  22.855  0.00  0.00     0.067 A 
ATOM      5  N   UNL d   1     -48.620  12.110  23.306  0.00  0.00    -0.225 NA
ATOM      6  C   UNL d   1     -48.833  14.185  22.906  0.00  0.00     0.037 A 
ATOM      7  N   UNL d   1     -47.590  13.380  23.193  0.00  0.00    -0.241 NA
ATOM      8  C   UNL d   1     -47.826  11.993  23.418  0.00  0.00     0.101 A 
ATOM      9  C   UNL d   1     -47.310  12.641  23.359  0.00  0.00     0.099 A 
ATOM     10  C   UNL d   1     -50.206  14.533  22.686  0.00  0.00     0.018 A 
ATOM     11  C   UNL d   1     -48.619  14.976  22.787  0.00  0.00     0.003 A 
ATOM     12  C   UNL d   1     -46.508  12.529  23.471  0.00  0.00     0.021 A 
ATOM     13  C   UNL d   1     -47.539  11.258  23.584  0.00  0.00     0.021 A 
ATOM     14  C   UNL d   1     -49.988  15.325  22.567  0.00  0.00     0.002 A 
ATOM     15  C   UNL d   1     -49.194  15.547  22.617  0.00  0.00     0.000 A 
ATOM     16  C   UNL d   1     -46.710  11.151  23.698  0.00  0.00     0.002 A 
ATOM     17  C   UNL d   1     -46.191  11.773  23.644  0.00  0.00     0.002 A 
ENDROOT
BRANCH   2  18
ATOM     18  C   UNL d   1     -50.351  12.722  22.998  0.00  0.00     0.066 C 
ATOM     19  C   UNL d   1     -50.612  12.379  22.270  0.00  0.00     0.019 C 
ATOM     20  C   UNL d   1     -50.765  12.617  23.698  0.00  0.00     0.019 C 
ENDBRANCH   2  18
TORSDOF 1
ENDMDL
MODEL 5
REMARK VINA RESULT:      -8.7      0.753      2.017
REMARK  1 active torsions:
REMARK  status: ('A' for Active; 'I' for Inactive)
REMARK    1  A    between atoms: C_10  and  N_2 
ROOT
ATOM      1  C   UNL d   1     -47.965  13.652  22.948  0.00  0.00     0.166 A 
ATOM      2  N   UNL d   1     -47.216  13.294  22.959  0.00  0.00    -0.291 N 
ATOM      3  C   UNL d   1     -48.502  13.074  23.183  0.00  0.00     0.117 A 
ATOM      4  C   UNL d   1     -47.301  12.521  23.196  0.00  0.00     0.067 A 
ATOM      5  N   UNL d   1     -48.216  14.424  22.753  0.00  0.00    -0.225 NA
ATOM      6  C   UNL d   1     -48.103  12.384  23.336  0.00  0.00     0.037 A 
ATOM      7  N   UNL d   1     -49.303  13.290  23.220  0.00  0.00    -0.241 NA
ATOM      8  C   UNL d   1     -49.001  14.616  22.794  0.00  0.00     0.101 A 
ATOM      9  C   UNL d   1     -49.547  14.036  23.032  0.00  0.00     0.099 A 
ATOM     10  C   UNL d   1     -46.751  11.910  23.307  0.00  0.00     0.018 A 
ATOM     11  C   UNL d   1     -48.353  11.636  23.586  0.00  0.00     0.003 A 
ATOM     12  C   UNL d   1     -50.342  14.225  23.075  0.00  0.00     0.021 A 
ATOM     13  C   UNL d   1     -49.252  15.359  22.608  0.00  0.00     0.021 A 
ATOM     14  C   UNL d   1     -47.006  11.161  23.558  0.00  0.00     0.002 A 
ATOM     15  C   UNL d   1     -47.807  11.024  23.697  0.00  0.00     0.000 A 
ATOM     16  C   UNL d   1     -50.074  15.545  22.655  0.00  0.00     0.002 A 
ATOM     17  C   UNL d   1     -50.621  14.991  22.885  0.00  0.00     0.002 A 
ENDROOT
BRANCH   2  18
ATOM     18  C   UNL d   1     -46.519  13.657  22.766  0.00  0.00     0.066 C 
ATOM     19  C   UNL d   1     -46.204  13.542  21.990  0.00  0.00     0.019 C 
ATOM     20  C   UNL d   1     -46.136  14.125  23.322  0.00  0.00     0.019 C 
ENDBRANCH   2  18
TORSDOF 1
ENDMDL
MODEL 6
REMARK VINA RESULT:      -8.4      1.096      2.386
REMARK  1 active torsions:
REMARK  status: ('A' for Active; 'I' for Inactive)
REMARK    1  A    between atoms: C_10  and  N_2 
ROOT
ATOM      1  C   UNL d   1     -48.797  13.663  22.952  0.00  0.00     0.166 A 
ATOM      2  N   UNL d   1     -48.311  14.304  22.741  0.00  0.00    -0.291 N 
ATOM      3  C   UNL d   1     -48.293  13.026  23.087  0.00  0.00     0.117 A 
ATOM      4  C   UNL d   1     -47.537  14.056  22.751  0.00  0.00     0.067 A 
ATOM      5  N   UNL d   1     -49.623  13.588  23.034  0.00  0.00    -0.225 NA
ATOM      6  C   UNL d   1     -47.526  13.260  22.966  0.00  0.00     0.037 A 
ATOM      7  N   UNL d   1     -48.642  12.305  23.309  0.00  0.00    -0.241 NA
ATOM      8  C   UNL d   1     -49.945  12.878  23.251  0.00  0.00     0.101 A 
ATOM      9  C   UNL d   1     -49.442  12.231  23.389  0.00  0.00     0.099 A 
ATOM     10  C   UNL d   1     -46.825  14.453  22.590  0.00  0.00     0.018 A 
ATOM     11  C   UNL d   1     -46.803  12.860  23.021  0.00  0.00     0.003 A 
ATOM     12  C   UNL d   1     -49.761  11.511  23.608  0.00  0.00     0.021 A 
ATOM     13  C   UNL d   1     -50.743  12.796  23.333  0.00  0.00     0.021 A 
ATOM     14  C   UNL d   1     -46.103  14.048  22.646  0.00  0.00     0.002 A 
ATOM     15  C   UNL d   1     -46.091  13.252  22.861  0.00  0.00     0.000 A 
ATOM     16  C   UNL d   1     -51.064  12.049  23.559  0.00  0.00     0.002 A 
ATOM     17  C   UNL d   1     -50.588  11.408  23.698  0.00  0.00     0.002 A 
ENDROOT
BRANCH   2  18
ATOM     18  C   UNL d   1     -48.570  15.049  22.559  0.00  0.00     0.066 C 
ATOM     19  C   UNL d   1     -48.680  15.249  21.744  0.00  0.00     0.019 C 
ATOM     20  C   UNL d   1     -48.719  15.587  23.160  0.00  0.00     0.019 C 
ENDBRANCH   2  18
TORSDOF 1
ENDMDL
MODEL 7
REMARK VINA RESULT:      -7.8      0.940      1.321
REMARK  1 active torsions:
REMARK  status: ('A' for Active; 'I' for Inactive)
REMARK    1  A    between atoms: C_10  and  N_2 
ROOT
ATOM      1  C   UNL d   1     -48.713  12.995  22.987  0.00  0.00     0.166 A 
ATOM      2  N   UNL d   1     -48.586  12.178  23.070  0.00  0.00    -0.291 N 
ATOM      3  C   UNL d   1     -47.982  13.356  23.103  0.00  0.00     0.117 A 
ATOM      4  C   UNL d   1     -47.799  12.053  23.232  0.00  0.00     0.067 A 
ATOM      5  N   UNL d   1     -49.397  13.443  22.823  0.00  0.00    -0.225 NA
ATOM      6  C   UNL d   1     -47.422  12.787  23.252  0.00  0.00     0.037 A 
ATOM      7  N   UNL d   1     -47.953  14.184  23.049  0.00  0.00    -0.241 NA
ATOM      8  C   UNL d   1     -49.350  14.250  22.774  0.00  0.00     0.101 A 
ATOM      9  C   UNL d   1     -48.614  14.619  22.890  0.00  0.00     0.099 A 
ATOM     10  C   UNL d   1     -47.363  11.359  23.366  0.00  0.00     0.018 A 
ATOM     11  C   UNL d   1     -46.610  12.827  23.407  0.00  0.00     0.003 A 
ATOM     12  C   UNL d   1     -48.561  15.434  22.842  0.00  0.00     0.021 A 
ATOM     13  C   UNL d   1     -50.005  14.691  22.615  0.00  0.00     0.021 A 
ATOM     14  C   UNL d   1     -46.549  11.404  23.521  0.00  0.00     0.002 A 
ATOM     15  C   UNL d   1     -46.172  12.138  23.541  0.00  0.00     0.000 A 
ATOM     16  C   UNL d   1     -49.941  15.531  22.567  0.00  0.00     0.002 A 
ATOM     17  C   UNL d   1     -49.231  15.908  22.678  0.00  0.00     0.002 A 
ENDROOT
BRANCH   2  18
ATOM     18  C   UNL d   1     -49.154  11.605  23.001  0.00  0.00     0.066 C 
ATOM     19  C   UNL d   1     -49.577  11.371  23.695  0.00  0.00     0.019 C 
ATOM     20  C   UNL d   1     -49.305  11.269  22.269  0.00  0.00     0.019 C 
ENDBRANCH   2  18
TORSDOF 1
ENDMDL
MODEL 8
REMARK VINA RESULT:      -7.0      8.527     10.012
REMARK  1 active torsions:
REMARK  status: ('A' for Active; 'I' for Inactive)
REMARK    1  A    between atoms: C_10  and  N_2 
ROOT
ATOM      1  C   UNL d   1     -40.031  14.915  18.535  0.00  0.00     0.166 A 
ATOM      2  N   UNL d   1     -39.905  14.826  17.718  0.00  0.00    -0.291 N 
ATOM      3  C   UNL d   1     -39.588  14.327  18.903  0.00  0.00     0.117 A 
ATOM      4  C   UNL d   1     -39.400  14.200  17.601  0.00  0.00     0.067 A 
ATOM      5  N   UNL d   1     -40.490  15.454  18.976  0.00  0.00    -0.225 NA
ATOM      6  C   UNL d   1     -39.202  13.889  18.339  0.00  0.00     0.037 A 
ATOM      7  N   UNL d   1     -39.616  14.292  19.733  0.00  0.00    -0.241 NA
ATOM      8  C   UNL d   1     -40.505  15.405  19.784  0.00  0.00     0.101 A 
ATOM      9  C   UNL d   1     -40.059  14.813  20.161  0.00  0.00     0.099 A 
ATOM     10  C   UNL d   1     -39.085  13.862  16.911  0.00  0.00     0.018 A 
ATOM     11  C   UNL d   1     -38.689  13.241  18.388  0.00  0.00     0.003 A 
ATOM     12  C   UNL d   1     -40.070  14.759  20.977  0.00  0.00     0.021 A 
ATOM     13  C   UNL d   1     -40.945  15.921  20.219  0.00  0.00     0.021 A 
ATOM     14  C   UNL d   1     -38.571  13.213  16.964  0.00  0.00     0.002 A 
ATOM     15  C   UNL d   1     -38.373  12.902  17.702  0.00  0.00     0.000 A 
ATOM     16  C   UNL d   1     -40.951  15.858  21.061  0.00  0.00     0.002 A 
ATOM     17  C   UNL d   1     -40.522  15.287  21.446  0.00  0.00     0.002 A 
ENDROOT
BRANCH   2  18
ATOM     18  C   UNL d   1     -40.234  15.286  17.140  0.00  0.00     0.066 C 
ATOM     19  C   UNL d   1     -39.775  15.921  16.820  0.00  0.00     0.019 C 
ATOM     20  C   UNL d   1     -40.995  15.130  16.878  0.00  0.00     0.019 C 
ENDBRANCH   2  18
TORSDOF 1
ENDMDL
