MODEL 1
REMARK VINA RESULT:      25.0      0.000      0.000
REMARK  2 active torsions:
REMARK  status: ('A' for Active; 'I' for Inactive)
REMARK    1  A    between atoms: N_2  and  S_1 
REMARK    2  A    between atoms: C_4  and  S_1 
ROOT
ATOM      1  N   UNL d   1     -51.532  24.695  33.369  0.00  0.00    -0.231 N 
ATOM      2  C   UNL d   1     -52.359  24.612  33.359  0.00  0.00     0.075 A 
ATOM      3  C   UNL d   1     -52.696  23.867  33.359  0.00  0.00     0.017 A 
ATOM      4  C   UNL d   1     -51.051  24.019  33.378  0.00  0.00     0.092 A 
ATOM      5  C   UNL d   1     -52.840  25.288  33.349  0.00  0.00     0.018 A 
ATOM      6  C   UNL d   1     -51.389  23.274  33.378  0.00  0.00     0.020 A 
ATOM      7  C   UNL d   1     -52.215  23.190  33.369  0.00  0.00     0.003 A 
ATOM      8  C   UNL d   1     -53.523  23.783  33.349  0.00  0.00     0.002 A 
ATOM      9  C   UNL d   1     -53.655  25.200  33.340  0.00  0.00     0.002 A 
ATOM     10  C   UNL d   1     -53.993  24.455  33.340  0.00  0.00     0.000 A 
ENDROOT
BRANCH   1  11
ATOM     11  S   UNL d   1     -51.194  25.441  33.369  0.00  0.00     0.271 S 
ATOM     12  O   UNL d   1     -50.232  25.005  33.335  0.00  0.00    -0.200 OA
ATOM     13  O   UNL d   1     -52.015  25.813  33.398  0.00  0.00    -0.200 OA
BRANCH  11  14
ATOM     14  C   UNL d   1     -50.852  26.196  33.369  0.00  0.00     0.104 A 
ATOM     15  C   UNL d   1     -50.031  26.270  33.329  0.00  0.00     0.014 A 
ATOM     16  C   UNL d   1     -49.689  27.012  33.329  0.00  0.00     0.012 A 
ATOM     17  C   UNL d   1     -50.159  27.685  33.368  0.00  0.00     0.058 A 
ATOM     18  C   UNL d   1     -50.980  27.610  33.408  0.00  0.00     0.012 A 
ATOM     19 CL   UNL d   1     -49.816  28.440  33.368  0.00  0.00    -0.082 Cl
ATOM     20  C   UNL d   1     -51.322  26.855  33.408  0.00  0.00     0.014 A 
ENDBRANCH  11  14
ENDBRANCH   1  11
TORSDOF 2
ENDMDL
