MODEL 1
REMARK VINA RESULT:      57.1      0.000      0.000
REMARK  3 active torsions:
REMARK  status: ('A' for Active; 'I' for Inactive)
REMARK    1  A    between atoms: S_15  and  C_4 
REMARK    2  A    between atoms: C_9  and  C_16 
REMARK    3  A    between atoms: C_16  and  S_15 
ROOT
ATOM      1  C   UNL d   1     -50.696  25.908  33.341  0.00  0.00     0.141 A 
ATOM      2  C   UNL d   1     -51.459  25.593  33.324  0.00  0.00     0.110 A 
ATOM      3  O   UNL d   1     -50.161  25.281  33.349  0.00  0.00    -0.303 OA
ATOM      4  C   UNL d   1     -50.587  26.726  33.346  0.00  0.00     0.137 A 
ATOM      5  N   UNL d   1     -51.242  27.229  33.335  0.00  0.00    -0.218 NA
ATOM      6  C   UNL d   1     -51.395  24.770  33.322  0.00  0.00     0.043 A 
ATOM      7  N   UNL d   1     -52.112  26.096  33.312  0.00  0.00    -0.225 NA
ATOM      8  C   UNL d   1     -50.593  24.577  33.338  0.00  0.00     0.102 A 
ATOM      9  C   UNL d   1     -52.004  26.913  33.318  0.00  0.00     0.163 A 
ATOM     10  C   UNL d   1     -51.962  24.173  33.308  0.00  0.00     0.004 A 
ATOM     11  C   UNL d   1     -50.360  23.786  33.339  0.00  0.00     0.025 A 
ATOM     12  C   UNL d   1     -52.657  27.417  33.306  0.00  0.00     0.042 C 
ATOM     13  C   UNL d   1     -51.730  23.381  33.310  0.00  0.00     0.000 A 
ATOM     14  C   UNL d   1     -50.928  23.188  33.325  0.00  0.00     0.002 A 
ENDROOT
BRANCH   4  15
ATOM     15  S   UNL d   1     -49.825  27.041  33.363  0.00  0.00    -0.062 SA
BRANCH  15  16
ATOM     16  C   UNL d   1     -49.355  26.947  34.035  0.00  0.00     0.076 C 
BRANCH  16  17
ATOM     17  C   UNL d   1     -48.973  27.600  34.365  0.00  0.00     0.169 A 
ATOM     18  N   UNL d   1     -48.971  28.366  34.058  0.00  0.00    -0.225 NA
ATOM     19  C   UNL d   1     -48.524  28.841  34.562  0.00  0.00     0.101 A 
ATOM     20  C   UNL d   1     -48.330  29.643  34.539  0.00  0.00     0.021 A 
ATOM     21  C   UNL d   1     -48.248  28.369  35.181  0.00  0.00     0.101 A 
ATOM     22  C   UNL d   1     -47.862  29.972  35.133  0.00  0.00     0.002 A 
ATOM     23  C   UNL d   1     -47.587  29.500  35.751  0.00  0.00     0.002 A 
ATOM     24  C   UNL d   1     -47.780  28.698  35.776  0.00  0.00     0.021 A 
ATOM     25  N   UNL d   1     -48.526  27.602  35.059  0.00  0.00    -0.225 NA
ENDBRANCH  16  17
ENDBRANCH  15  16
ENDBRANCH   4  15
TORSDOF 3
ENDMDL
