MODEL 1
REMARK VINA RESULT:      -2.9      0.000      0.000
REMARK  4 active torsions:
REMARK  status: ('A' for Active; 'I' for Inactive)
REMARK    1  A    between atoms: C_2  and  C_1 
REMARK    2  A    between atoms: C_3  and  C_1 
REMARK       I    between atoms: N_7  and  C_2 
REMARK    3  A    between atoms: C_4  and  C_3 
REMARK    4  A    between atoms: C_13  and  N_7 
ROOT
ATOM      1  C   UNL d   1      31.234  16.757 -24.277  0.00  0.00     0.128 C 
ATOM      2  C   UNL d   1      30.878  17.375 -24.676  0.00  0.00     0.106 C 
ATOM      3  N   UNL d   1      30.517  18.006 -25.086  0.00  0.00    -0.191 NA
ENDROOT
BRANCH   1   4
ATOM      4  C   UNL d   1      31.885  16.354 -24.607  0.00  0.00     0.289 C 
ATOM      5  N   UNL d   1      32.648  16.610 -24.440  0.00  0.00    -0.207 NA
ATOM      6  O   UNL d   1      31.753  15.703 -25.097  0.00  0.00    -0.264 OA
BRANCH   5   7
ATOM      7  C   UNL d   1      32.781  17.261 -23.950  0.00  0.00     0.085 A 
ATOM      8  C   UNL d   1      32.751  18.024 -24.262  0.00  0.00     0.020 A 
ATOM      9  C   UNL d   1      32.884  18.674 -23.772  0.00  0.00     0.008 A 
ATOM     10  C   UNL d   1      33.046  18.563 -22.972  0.00  0.00     0.035 A 
ATOM     11  C   UNL d   1      33.077  17.799 -22.660  0.00  0.00     0.008 A 
ATOM     12 BR   UNL d   1      33.179  19.222 -22.485  0.00  0.00    -0.049 Br
ATOM     13  C   UNL d   1      32.944  17.149 -23.149  0.00  0.00     0.020 A 
ENDBRANCH   5   7
ENDBRANCH   1   4
BRANCH   1  14
ATOM     14  C   UNL d   1      30.947  16.525 -23.539  0.00  0.00     0.040 C 
BRANCH  14  15
ATOM     15  C   UNL d   1      30.207  16.158 -23.470  0.00  0.00     0.101 A 
ATOM     16  O   UNL d   1      29.568  16.093 -23.981  0.00  0.00    -0.307 OA
ATOM     17  C   UNL d   1      28.984  15.656 -23.594  0.00  0.00     0.100 A 
ATOM     18  C   UNL d   1      28.234  15.453 -23.907  0.00  0.00     0.027 C 
ATOM     19  C   UNL d   1      29.256  15.453 -22.854  0.00  0.00     0.027 A 
ATOM     20  C   UNL d   1      30.019  15.764 -22.772  0.00  0.00     0.027 A 
ENDBRANCH  14  15
ENDBRANCH   1  14
TORSDOF 4
ENDMDL
MODEL 2
REMARK VINA RESULT:      -2.1      1.800      3.721
REMARK  4 active torsions:
REMARK  status: ('A' for Active; 'I' for Inactive)
REMARK    1  A    between atoms: C_2  and  C_1 
REMARK    2  A    between atoms: C_3  and  C_1 
REMARK       I    between atoms: N_7  and  C_2 
REMARK    3  A    between atoms: C_4  and  C_3 
REMARK    4  A    between atoms: C_13  and  N_7 
ROOT
ATOM      1  C   UNL d   1      31.920  16.725 -24.014  0.00  0.00     0.128 C 
ATOM      2  C   UNL d   1      32.062  16.353 -23.299  0.00  0.00     0.106 C 
ATOM      3  N   UNL d   1      32.207  15.970 -22.572  0.00  0.00    -0.191 NA
ENDROOT
BRANCH   1   4
ATOM      4  C   UNL d   1      31.977  16.306 -24.733  0.00  0.00     0.289 C 
ATOM      5  N   UNL d   1      31.301  15.982 -25.068  0.00  0.00    -0.207 NA
ATOM      6  O   UNL d   1      32.714  16.224 -25.096  0.00  0.00    -0.264 OA
BRANCH   5   7
ATOM      7  C   UNL d   1      30.564  16.064 -24.705  0.00  0.00     0.085 A 
ATOM      8  C   UNL d   1      30.068  16.688 -24.917  0.00  0.00     0.020 A 
ATOM      9  C   UNL d   1      29.331  16.770 -24.554  0.00  0.00     0.008 A 
ATOM     10  C   UNL d   1      29.091  16.229 -23.980  0.00  0.00     0.035 A 
ATOM     11  C   UNL d   1      29.588  15.605 -23.768  0.00  0.00     0.008 A 
ATOM     12 BR   UNL d   1      28.349  16.317 -23.619  0.00  0.00    -0.049 Br
ATOM     13  C   UNL d   1      30.323  15.523 -24.131  0.00  0.00     0.020 A 
ENDBRANCH   5   7
ENDBRANCH   1   4
BRANCH   1  14
ATOM     14  C   UNL d   1      31.719  17.525 -24.026  0.00  0.00     0.040 C 
BRANCH  14  15
ATOM     15  C   UNL d   1      32.212  18.090 -23.673  0.00  0.00     0.101 A 
ATOM     16  O   UNL d   1      32.375  18.275 -22.890  0.00  0.00    -0.307 OA
ATOM     17  C   UNL d   1      32.917  18.898 -22.891  0.00  0.00     0.100 A 
ATOM     18  C   UNL d   1      33.241  19.267 -22.212  0.00  0.00     0.027 C 
ATOM     19  C   UNL d   1      33.089  19.097 -23.661  0.00  0.00     0.027 A 
ATOM     20  C   UNL d   1      32.650  18.595 -24.153  0.00  0.00     0.027 A 
ENDBRANCH  14  15
ENDBRANCH   1  14
TORSDOF 4
ENDMDL
