MODEL 1
REMARK VINA RESULT:      61.7      0.000      0.000
REMARK  3 active torsions:
REMARK  status: ('A' for Active; 'I' for Inactive)
REMARK    1  A    between atoms: N_3  and  C_1 
REMARK       I    between atoms: C_5  and  N_3 
REMARK    2  A    between atoms: C_10  and  C_4 
REMARK       I    between atoms: N_8  and  C_5 
REMARK    3  A    between atoms: C_11  and  N_8 
ROOT
ATOM      1  C   UNL d   1      59.925  48.759  50.652  0.00  0.00     0.199 A 
ATOM      2  N   UNL d   1      60.120  48.022  50.337  0.00  0.00    -0.221 NA
ATOM      3  C   UNL d   1      60.967  47.923  50.398  0.00  0.00     0.090 A 
ATOM      4  S   UNL d   1      60.605  49.146  50.915  0.00  0.00    -0.046 SA
ATOM      5  C   UNL d   1      61.270  48.626  50.759  0.00  0.00     0.058 A 
ENDROOT
BRANCH   1   6
ATOM      6  N   UNL d   1      59.141  49.073  50.698  0.00  0.00    -0.166 NA
ATOM      7  C   UNL d   1      58.879  49.394  51.432  0.00  0.00     0.370 C 
ATOM      8  N   UNL d   1      58.096  49.708  51.478  0.00  0.00    -0.191 NA
ATOM      9  O   UNL d   1      59.357  49.409  52.087  0.00  0.00    -0.242 OA
BRANCH   8  10
ATOM     10  C   UNL d   1      57.616  49.692  50.815  0.00  0.00     0.086 A 
ATOM     11  C   UNL d   1      57.912  49.705  50.051  0.00  0.00     0.019 A 
ATOM     12  C   UNL d   1      57.412  49.688  49.391  0.00  0.00     0.002 A 
ATOM     13  C   UNL d   1      56.596  49.657  49.505  0.00  0.00     0.000 A 
ATOM     14  C   UNL d   1      56.285  49.643  50.264  0.00  0.00     0.002 A 
ATOM     15  C   UNL d   1      56.804  49.661  50.908  0.00  0.00     0.019 A 
ENDBRANCH   8  10
ENDBRANCH   1   6
BRANCH   3  16
ATOM     16  C   UNL d   1      61.396  47.264  50.148  0.00  0.00     0.018 A 
ATOM     17  C   UNL d   1      62.114  47.352  49.718  0.00  0.00     0.002 A 
ATOM     18  C   UNL d   1      62.534  46.710  49.473  0.00  0.00     0.000 A 
ATOM     19  C   UNL d   1      62.256  45.932  49.647  0.00  0.00     0.000 A 
ATOM     20  C   UNL d   1      61.551  45.847  50.070  0.00  0.00     0.000 A 
ATOM     21  C   UNL d   1      61.130  46.511  50.315  0.00  0.00     0.002 A 
ENDBRANCH   3  16
TORSDOF 3
ENDMDL
