MODEL 1
REMARK VINA RESULT:     130.4      0.000      0.000
REMARK  5 active torsions:
REMARK  status: ('A' for Active; 'I' for Inactive)
REMARK       I    between atoms: C_5  and  N_1 
REMARK    1  A    between atoms: S_13  and  C_2 
REMARK    2  A    between atoms: S_3  and  C_9 
REMARK    3  A    between atoms: N_7  and  S_3 
REMARK    4  A    between atoms: C_12  and  C_5 
REMARK    5  A    between atoms: C_23  and  S_13 
ROOT
ATOM      1  C   UNL d   1      61.358  46.708  50.325  0.00  0.00     0.104 A 
ATOM      2  C   UNL d   1      61.905  45.200  49.942  0.00  0.00     0.057 A 
ATOM      3  C   UNL d   1      60.864  46.053  50.416  0.00  0.00     0.013 A 
ATOM      4  C   UNL d   1      62.132  46.608  50.040  0.00  0.00     0.013 A 
ATOM      5  C   UNL d   1      62.408  45.852  49.847  0.00  0.00     0.005 A 
ATOM      6  C   UNL d   1      61.139  45.303  50.224  0.00  0.00     0.005 A 
ENDROOT
BRANCH   2   7
ATOM      7  C   UNL d   1      62.179  44.453  49.750  0.00  0.00     0.266 C 
ATOM      8  N   UNL d   1      62.167  43.840  50.308  0.00  0.00    -0.253 N 
ATOM      9  C   UNL d   1      61.891  43.905  51.083  0.00  0.00     0.182 A 
ATOM     10  C   UNL d   1      62.426  43.065  50.186  0.00  0.00     0.086 A 
ATOM     11  N   UNL d   1      61.980  43.165  51.443  0.00  0.00    -0.221 NA
ATOM     12  C   UNL d   1      62.309  42.649  50.893  0.00  0.00     0.100 A 
ATOM     13  C   UNL d   1      62.518  41.857  50.936  0.00  0.00     0.021 A 
ATOM     14  C   UNL d   1      62.843  41.476  50.283  0.00  0.00     0.002 A 
ATOM     15  C   UNL d   1      62.959  41.896  49.578  0.00  0.00     0.002 A 
ATOM     16  C   UNL d   1      62.748  42.690  49.536  0.00  0.00     0.019 A 
ATOM     17  O   UNL d   1      62.473  44.307  48.990  0.00  0.00    -0.267 OA
BRANCH   9  18
ATOM     18  S   UNL d   1      61.585  44.584  51.426  0.00  0.00    -0.049 SA
BRANCH  18  19
ATOM     19  C   UNL d   1      61.040  44.545  52.273  0.00  0.00     0.038 C 
ATOM     20  C   UNL d   1      61.383  44.493  53.151  0.00  0.00     0.008 C 
ENDBRANCH  18  19
ENDBRANCH   9  18
ENDBRANCH   2   7
BRANCH   1  21
ATOM     21  S   UNL d   1      61.079  47.462  50.519  0.00  0.00     0.271 S 
ATOM     22  O   UNL d   1      61.647  47.810  50.024  0.00  0.00    -0.200 OA
ATOM     23  O   UNL d   1      60.508  47.128  51.015  0.00  0.00    -0.200 OA
BRANCH  21  24
ATOM     24  N   UNL d   1      60.796  48.216  50.715  0.00  0.00    -0.229 N 
ATOM     25  C   UNL d   1      60.558  48.384  51.493  0.00  0.00     0.092 A 
ATOM     26  C   UNL d   1      60.280  49.126  51.687  0.00  0.00     0.020 A 
ATOM     27  C   UNL d   1      60.235  49.708  51.113  0.00  0.00     0.003 A 
ATOM     28  C   UNL d   1      60.469  49.555  50.334  0.00  0.00     0.020 A 
ATOM     29  C   UNL d   1      60.750  48.801  50.144  0.00  0.00     0.092 A 
ENDBRANCH  21  24
ENDBRANCH   1  21
TORSDOF 5
ENDMDL
