MODEL 1
REMARK VINA RESULT:       1.5      0.000      0.000
REMARK  9 active torsions:
REMARK  status: ('A' for Active; 'I' for Inactive)
REMARK    1  A    between atoms: C_3  and  C_1 
REMARK    2  A    between atoms: N_5  and  C_2 
REMARK    3  A    between atoms: N_4  and  C_3 
REMARK    4  A    between atoms: C_14  and  C_3 
REMARK    5  A    between atoms: C_12  and  N_4 
REMARK       I    between atoms: C_6  and  N_5 
REMARK    6  A    between atoms: C_9  and  C_6 
REMARK    7  A    between atoms: C_7  and  C_12 
REMARK       I    between atoms: N_16  and  C_7 
REMARK    8  A    between atoms: N_8  and  C_17 
REMARK    9  A    between atoms: C_17  and  C_9 
ROOT
ATOM      1  C   UNL d   1      32.772  19.651 -23.701  0.00  0.00     0.036 A 
ATOM      2  C   UNL d   1      33.025  20.024 -23.010  0.00  0.00     0.086 A 
ATOM      3  C   UNL d   1      32.732  20.093 -24.416  0.00  0.00     0.010 A 
ATOM      4  C   UNL d   1      33.241  20.822 -23.005  0.00  0.00     0.020 A 
ATOM      5  C   UNL d   1      32.947  20.890 -24.410  0.00  0.00     0.035 A 
ATOM      6  C   UNL d   1      33.196  21.241 -23.713  0.00  0.00     0.008 A 
ATOM      7 BR   UNL d   1      32.909  21.314 -25.097  0.00  0.00    -0.049 Br
ENDROOT
BRANCH   1   8
ATOM      8  C   UNL d   1      32.548  18.828 -23.719  0.00  0.00     0.083 C 
BRANCH   8   9
ATOM      9  N   UNL d   1      33.100  18.280 -23.442  0.00  0.00    -0.239 NA
BRANCH   9  10
ATOM     10  C   UNL d   1      33.230  17.568 -23.819  0.00  0.00     0.163 C 
BRANCH  10  11
ATOM     11  C   UNL d   1      33.210  16.865 -23.390  0.00  0.00     0.317 C 
ATOM     12  O   UNL d   1      33.195  16.904 -22.579  0.00  0.00    -0.262 OA
ATOM     13  N   UNL d   1      33.206  16.142 -23.786  0.00  0.00    -0.083 NA
ATOM     14  N   UNL d   1      33.186  15.453 -23.333  0.00  0.00    -0.019 N 
ENDBRANCH  10  11
ENDBRANCH   9  10
ENDBRANCH   8   9
BRANCH   8  15
ATOM     15  C   UNL d   1      31.830  18.602 -23.994  0.00  0.00     0.018 A 
ATOM     16  C   UNL d   1      31.183  18.599 -23.483  0.00  0.00     0.002 A 
ATOM     17  C   UNL d   1      30.445  18.366 -23.768  0.00  0.00     0.000 A 
ATOM     18  C   UNL d   1      30.333  18.138 -24.541  0.00  0.00     0.000 A 
ATOM     19  C   UNL d   1      30.990  18.139 -25.069  0.00  0.00     0.000 A 
ATOM     20  C   UNL d   1      31.740  18.375 -24.783  0.00  0.00     0.002 A 
ENDBRANCH   8  15
ENDBRANCH   1   8
BRANCH   2  21
ATOM     21  N   UNL d   1      33.061  19.580 -22.311  0.00  0.00    -0.208 NA
ATOM     22  C   UNL d   1      32.974  19.972 -21.593  0.00  0.00     0.281 C 
ATOM     23  O   UNL d   1      33.010  19.527 -20.898  0.00  0.00    -0.265 OA
BRANCH  22  24
ATOM     24  C   UNL d   1      32.853  20.788 -21.555  0.00  0.00     0.082 C 
BRANCH  24  25
ATOM     25  C   UNL d   1      32.248  21.092 -21.105  0.00  0.00     0.085 C 
BRANCH  25  26
ATOM     26  N   UNL d   1      32.362  21.788 -20.708  0.00  0.00    -0.299 N 
ATOM     27  C   UNL d   1      31.712  22.202 -20.411  0.00  0.00     0.107 A 
ATOM     28  C   UNL d   1      31.820  22.912 -20.005  0.00  0.00     0.142 A 
ATOM     29  O   UNL d   1      32.589  23.205 -19.900  0.00  0.00    -0.300 OA
ATOM     30  C   UNL d   1      33.229  22.794 -20.194  0.00  0.00     0.142 A 
ATOM     31  C   UNL d   1      33.117  22.086 -20.599  0.00  0.00     0.107 A 
ENDBRANCH  25  26
ENDBRANCH  24  25
ENDBRANCH  22  24
ENDBRANCH   2  21
TORSDOF 9
ENDMDL
MODEL 2
REMARK VINA RESULT:       1.9      1.759      2.401
REMARK  9 active torsions:
REMARK  status: ('A' for Active; 'I' for Inactive)
REMARK    1  A    between atoms: C_3  and  C_1 
REMARK    2  A    between atoms: N_5  and  C_2 
REMARK    3  A    between atoms: N_4  and  C_3 
REMARK    4  A    between atoms: C_14  and  C_3 
REMARK    5  A    between atoms: C_12  and  N_4 
REMARK       I    between atoms: C_6  and  N_5 
REMARK    6  A    between atoms: C_9  and  C_6 
REMARK    7  A    between atoms: C_7  and  C_12 
REMARK       I    between atoms: N_16  and  C_7 
REMARK    8  A    between atoms: N_8  and  C_17 
REMARK    9  A    between atoms: C_17  and  C_9 
ROOT
ATOM      1  C   UNL d   1      32.261  18.706 -24.037  0.00  0.00     0.036 A 
ATOM      2  C   UNL d   1      32.800  18.840 -23.427  0.00  0.00     0.086 A 
ATOM      3  C   UNL d   1      32.129  19.309 -24.608  0.00  0.00     0.010 A 
ATOM      4  C   UNL d   1      33.214  19.553 -23.365  0.00  0.00     0.020 A 
ATOM      5  C   UNL d   1      32.542  20.021 -24.546  0.00  0.00     0.035 A 
ATOM      6  C   UNL d   1      33.074  20.133 -23.932  0.00  0.00     0.008 A 
ATOM      7 BR   UNL d   1      32.415  20.600 -25.095  0.00  0.00    -0.049 Br
ENDROOT
BRANCH   1   8
ATOM      8  C   UNL d   1      31.829  17.974 -24.110  0.00  0.00     0.083 C 
BRANCH   8   9
ATOM      9  N   UNL d   1      31.012  18.005 -23.992  0.00  0.00    -0.239 NA
BRANCH   9  10
ATOM     10  C   UNL d   1      30.500  18.270 -24.570  0.00  0.00     0.163 C 
BRANCH  10  11
ATOM     11  C   UNL d   1      29.691  18.137 -24.497  0.00  0.00     0.317 C 
ATOM     12  O   UNL d   1      29.210  18.762 -24.303  0.00  0.00    -0.262 OA
ATOM     13  N   UNL d   1      29.385  17.381 -24.619  0.00  0.00    -0.083 NA
ATOM     14  N   UNL d   1      28.572  17.274 -24.539  0.00  0.00    -0.019 N 
ENDBRANCH  10  11
ENDBRANCH   9  10
ENDBRANCH   8   9
BRANCH   8  15
ATOM     15  C   UNL d   1      32.205  17.289 -24.287  0.00  0.00     0.018 A 
ATOM     16  C   UNL d   1      32.823  17.295 -24.832  0.00  0.00     0.002 A 
ATOM     17  C   UNL d   1      33.208  16.589 -25.012  0.00  0.00     0.000 A 
ATOM     18  C   UNL d   1      32.998  15.882 -24.669  0.00  0.00     0.000 A 
ATOM     19  C   UNL d   1      32.366  15.868 -24.111  0.00  0.00     0.000 A 
ATOM     20  C   UNL d   1      31.973  16.583 -23.926  0.00  0.00     0.002 A 
ENDBRANCH   8  15
ENDBRANCH   1   8
BRANCH   2  21
ATOM     21  N   UNL d   1      32.923  18.239 -22.868  0.00  0.00    -0.208 NA
ATOM     22  C   UNL d   1      32.994  18.449 -22.076  0.00  0.00     0.281 C 
ATOM     23  O   UNL d   1      33.117  17.849 -21.522  0.00  0.00    -0.265 OA
BRANCH  22  24
ATOM     24  C   UNL d   1      32.946  19.236 -21.829  0.00  0.00     0.082 C 
BRANCH  24  25
ATOM     25  C   UNL d   1      32.938  19.416 -21.036  0.00  0.00     0.085 C 
BRANCH  25  26
ATOM     26  N   UNL d   1      32.715  20.159 -20.802  0.00  0.00    -0.299 N 
ATOM     27  C   UNL d   1      31.953  20.429 -20.967  0.00  0.00     0.107 A 
ATOM     28  C   UNL d   1      31.718  21.184 -20.732  0.00  0.00     0.142 A 
ATOM     29  O   UNL d   1      32.258  21.669 -20.329  0.00  0.00    -0.300 OA
ATOM     30  C   UNL d   1      33.010  21.399 -20.169  0.00  0.00     0.142 A 
ATOM     31  C   UNL d   1      33.241  20.645 -20.404  0.00  0.00     0.107 A 
ENDBRANCH  25  26
ENDBRANCH  24  25
ENDBRANCH  22  24
ENDBRANCH   2  21
TORSDOF 9
ENDMDL
MODEL 3
REMARK VINA RESULT:       2.0      2.319      5.080
REMARK  9 active torsions:
REMARK  status: ('A' for Active; 'I' for Inactive)
REMARK    1  A    between atoms: C_3  and  C_1 
REMARK    2  A    between atoms: N_5  and  C_2 
REMARK    3  A    between atoms: N_4  and  C_3 
REMARK    4  A    between atoms: C_14  and  C_3 
REMARK    5  A    between atoms: C_12  and  N_4 
REMARK       I    between atoms: C_6  and  N_5 
REMARK    6  A    between atoms: C_9  and  C_6 
REMARK    7  A    between atoms: C_7  and  C_12 
REMARK       I    between atoms: N_16  and  C_7 
REMARK    8  A    between atoms: N_8  and  C_17 
REMARK    9  A    between atoms: C_17  and  C_9 
ROOT
ATOM      1  C   UNL d   1      32.259  17.882 -23.509  0.00  0.00     0.036 A 
ATOM      2  C   UNL d   1      31.626  17.631 -23.975  0.00  0.00     0.086 A 
ATOM      3  C   UNL d   1      32.801  17.312 -23.210  0.00  0.00     0.010 A 
ATOM      4  C   UNL d   1      31.513  16.832 -24.154  0.00  0.00     0.020 A 
ATOM      5  C   UNL d   1      32.687  16.515 -23.388  0.00  0.00     0.035 A 
ATOM      6  C   UNL d   1      32.051  16.286 -23.853  0.00  0.00     0.008 A 
ATOM      7 BR   UNL d   1      33.207  15.968 -23.101  0.00  0.00    -0.049 Br
ENDROOT
BRANCH   1   8
ATOM      8  C   UNL d   1      32.387  18.704 -23.318  0.00  0.00     0.083 C 
BRANCH   8   9
ATOM      9  N   UNL d   1      32.318  18.921 -22.524  0.00  0.00    -0.239 NA
BRANCH   9  10
ATOM     10  C   UNL d   1      32.867  19.400 -22.157  0.00  0.00     0.163 C 
BRANCH  10  11
ATOM     11  C   UNL d   1      32.646  19.862 -21.512  0.00  0.00     0.317 C 
ATOM     12  O   UNL d   1      31.892  20.164 -21.490  0.00  0.00    -0.262 OA
ATOM     13  N   UNL d   1      33.186  20.010 -20.906  0.00  0.00    -0.083 NA
ATOM     14  N   UNL d   1      32.940  20.475 -20.272  0.00  0.00    -0.019 N 
ENDBRANCH  10  11
ENDBRANCH   9  10
ENDBRANCH   8   9
BRANCH   8  15
ATOM     15  C   UNL d   1      32.566  19.237 -23.888  0.00  0.00     0.018 A 
ATOM     16  C   UNL d   1      33.058  19.015 -24.510  0.00  0.00     0.002 A 
ATOM     17  C   UNL d   1      33.241  19.565 -25.096  0.00  0.00     0.000 A 
ATOM     18  C   UNL d   1      32.950  20.325 -25.081  0.00  0.00     0.000 A 
ATOM     19  C   UNL d   1      32.446  20.560 -24.447  0.00  0.00     0.000 A 
ATOM     20  C   UNL d   1      32.259  20.003 -23.851  0.00  0.00     0.002 A 
ENDBRANCH   8  15
ENDBRANCH   1   8
BRANCH   2  21
ATOM     21  N   UNL d   1      31.098  18.200 -24.265  0.00  0.00    -0.208 NA
ATOM     22  C   UNL d   1      30.325  17.972 -24.425  0.00  0.00     0.281 C 
ATOM     23  O   UNL d   1      29.800  18.541 -24.714  0.00  0.00    -0.265 OA
BRANCH  22  24
ATOM     24  C   UNL d   1      30.066  17.197 -24.303  0.00  0.00     0.082 C 
BRANCH  24  25
ATOM     25  C   UNL d   1      29.336  16.961 -24.573  0.00  0.00     0.085 C 
BRANCH  25  26
ATOM     26  N   UNL d   1      28.880  16.479 -24.109  0.00  0.00    -0.299 N 
ATOM     27  C   UNL d   1      28.063  16.455 -24.221  0.00  0.00     0.107 A 
ATOM     28  C   UNL d   1      27.592  15.966 -23.752  0.00  0.00     0.142 A 
ATOM     29  O   UNL d   1      27.949  15.500 -23.167  0.00  0.00    -0.300 OA
ATOM     30  C   UNL d   1      28.757  15.526 -23.059  0.00  0.00     0.142 A 
ATOM     31  C   UNL d   1      29.224  16.014 -23.528  0.00  0.00     0.107 A 
ENDBRANCH  25  26
ENDBRANCH  24  25
ENDBRANCH  22  24
ENDBRANCH   2  21
TORSDOF 9
ENDMDL
