MODEL 1
REMARK VINA RESULT:      -7.7      0.000      0.000
REMARK  4 active torsions:
REMARK  status: ('A' for Active; 'I' for Inactive)
REMARK    1  A    between atoms: N_6  and  C_1 
REMARK       I    between atoms: C_9  and  N_6 
REMARK    2  A    between atoms: C_12  and  C_9 
REMARK    3  A    between atoms: O_11  and  C_12 
REMARK    4  A    between atoms: C_15  and  O_11 
ROOT
ATOM      1  C   UNL d   1      53.252  33.845  53.381  0.00  0.00     0.124 A 
ATOM      2  C   UNL d   1      52.752  34.290  53.873  0.00  0.00     0.093 A 
ATOM      3  S   UNL d   1      52.797  33.558  52.752  0.00  0.00    -0.067 SA
ATOM      4  C   UNL d   1      51.994  34.272  53.540  0.00  0.00     0.018 A 
ATOM      5  C   UNL d   1      52.030  33.826  52.860  0.00  0.00     0.032 A 
ATOM      6  C   UNL d   1      52.982  34.680  54.571  0.00  0.00     0.103 C 
ATOM      7  N   UNL d   1      53.200  35.062  55.254  0.00  0.00    -0.191 NA
ATOM      8  C   UNL d   1      51.325  34.647  53.852  0.00  0.00     0.001 C 
ATOM      9  C   UNL d   1      51.390  33.666  52.354  0.00  0.00     0.007 C 
ENDROOT
BRANCH   1  10
ATOM     10  N   UNL d   1      54.051  33.714  53.499  0.00  0.00    -0.199 NA
ATOM     11  C   UNL d   1      54.334  32.944  53.534  0.00  0.00     0.305 C 
ATOM     12  O   UNL d   1      55.142  32.812  53.653  0.00  0.00    -0.263 OA
BRANCH  11  13
ATOM     13  C   UNL d   1      53.836  32.311  53.453  0.00  0.00     0.185 C 
BRANCH  13  14
ATOM     14  O   UNL d   1      54.114  31.548  53.473  0.00  0.00    -0.300 OA
BRANCH  14  15
ATOM     15  C   UNL d   1      53.595  30.904  53.489  0.00  0.00     0.100 A 
ATOM     16  C   UNL d   1      53.411  30.560  54.218  0.00  0.00     0.025 A 
ATOM     17  C   UNL d   1      52.899  29.925  54.232  0.00  0.00     0.002 A 
ATOM     18  C   UNL d   1      52.574  29.635  53.531  0.00  0.00     0.000 A 
ATOM     19  C   UNL d   1      52.762  29.980  52.814  0.00  0.00     0.002 A 
ATOM     20  C   UNL d   1      53.277  30.619  52.799  0.00  0.00     0.025 A 
ENDBRANCH  14  15
ENDBRANCH  13  14
ENDBRANCH  11  13
ENDBRANCH   1  10
TORSDOF 4
ENDMDL
MODEL 2
REMARK VINA RESULT:      -7.6      1.843      3.420
REMARK  4 active torsions:
REMARK  status: ('A' for Active; 'I' for Inactive)
REMARK    1  A    between atoms: N_6  and  C_1 
REMARK       I    between atoms: C_9  and  N_6 
REMARK    2  A    between atoms: C_12  and  C_9 
REMARK    3  A    between atoms: O_11  and  C_12 
REMARK    4  A    between atoms: C_15  and  O_11 
ROOT
ATOM      1  C   UNL d   1      54.123  32.374  54.038  0.00  0.00     0.124 A 
ATOM      2  C   UNL d   1      54.760  32.902  53.968  0.00  0.00     0.093 A 
ATOM      3  S   UNL d   1      53.716  32.559  54.734  0.00  0.00    -0.067 SA
ATOM      4  C   UNL d   1      54.738  33.408  54.624  0.00  0.00     0.018 A 
ATOM      5  C   UNL d   1      54.102  33.193  55.084  0.00  0.00     0.032 A 
ATOM      6  C   UNL d   1      55.314  32.913  53.348  0.00  0.00     0.103 C 
ATOM      7  N   UNL d   1      55.859  32.928  52.745  0.00  0.00    -0.191 NA
ATOM      8  C   UNL d   1      55.275  34.020  54.774  0.00  0.00     0.001 C 
ATOM      9  C   UNL d   1      53.877  33.558  55.796  0.00  0.00     0.007 C 
ENDROOT
BRANCH   1  10
ATOM     10  N   UNL d   1      53.933  31.777  53.511  0.00  0.00    -0.199 NA
ATOM     11  C   UNL d   1      53.226  31.815  53.095  0.00  0.00     0.305 C 
ATOM     12  O   UNL d   1      53.034  31.211  52.563  0.00  0.00    -0.263 OA
BRANCH  11  13
ATOM     13  C   UNL d   1      52.713  32.433  53.196  0.00  0.00     0.185 C 
BRANCH  13  14
ATOM     14  O   UNL d   1      52.040  32.503  52.746  0.00  0.00    -0.300 OA
BRANCH  14  15
ATOM     15  C   UNL d   1      51.569  33.182  52.785  0.00  0.00     0.100 A 
ATOM     16  C   UNL d   1      51.755  33.824  52.298  0.00  0.00     0.025 A 
ATOM     17  C   UNL d   1      51.289  34.491  52.338  0.00  0.00     0.002 A 
ATOM     18  C   UNL d   1      50.646  34.522  52.855  0.00  0.00     0.000 A 
ATOM     19  C   UNL d   1      50.469  33.883  53.333  0.00  0.00     0.002 A 
ATOM     20  C   UNL d   1      50.937  33.210  53.294  0.00  0.00     0.025 A 
ENDBRANCH  14  15
ENDBRANCH  13  14
ENDBRANCH  11  13
ENDBRANCH   1  10
TORSDOF 4
ENDMDL
MODEL 3
REMARK VINA RESULT:      -7.4      1.396      2.159
REMARK  4 active torsions:
REMARK  status: ('A' for Active; 'I' for Inactive)
REMARK    1  A    between atoms: N_6  and  C_1 
REMARK       I    between atoms: C_9  and  N_6 
REMARK    2  A    between atoms: C_12  and  C_9 
REMARK    3  A    between atoms: O_11  and  C_12 
REMARK    4  A    between atoms: C_15  and  O_11 
ROOT
ATOM      1  C   UNL d   1      53.375  32.834  53.463  0.00  0.00     0.124 A 
ATOM      2  C   UNL d   1      53.031  33.478  53.861  0.00  0.00     0.093 A 
ATOM      3  S   UNL d   1      54.044  32.601  53.891  0.00  0.00    -0.067 SA
ATOM      4  C   UNL d   1      53.494  33.634  54.529  0.00  0.00     0.018 A 
ATOM      5  C   UNL d   1      54.107  33.098  54.541  0.00  0.00     0.032 A 
ATOM      6  C   UNL d   1      52.346  33.885  53.621  0.00  0.00     0.103 C 
ATOM      7  N   UNL d   1      51.678  34.286  53.393  0.00  0.00    -0.191 NA
ATOM      8  C   UNL d   1      53.349  34.233  55.082  0.00  0.00     0.001 C 
ATOM      9  C   UNL d   1      54.702  33.058  55.119  0.00  0.00     0.007 C 
ENDROOT
BRANCH   1  10
ATOM     10  N   UNL d   1      53.099  32.493  52.772  0.00  0.00    -0.199 NA
ATOM     11  C   UNL d   1      52.933  31.689  52.756  0.00  0.00     0.305 C 
ATOM     12  O   UNL d   1      52.655  31.344  52.058  0.00  0.00    -0.263 OA
BRANCH  11  13
ATOM     13  C   UNL d   1      53.037  31.227  53.413  0.00  0.00     0.185 C 
BRANCH  13  14
ATOM     14  O   UNL d   1      52.670  30.506  53.486  0.00  0.00    -0.300 OA
BRANCH  14  15
ATOM     15  C   UNL d   1      52.975  29.920  53.983  0.00  0.00     0.100 A 
ATOM     16  C   UNL d   1      53.545  29.400  53.683  0.00  0.00     0.025 A 
ATOM     17  C   UNL d   1      53.844  28.823  54.175  0.00  0.00     0.002 A 
ATOM     18  C   UNL d   1      53.582  28.761  54.955  0.00  0.00     0.000 A 
ATOM     19  C   UNL d   1      53.019  29.279  55.244  0.00  0.00     0.002 A 
ATOM     20  C   UNL d   1      52.716  29.861  54.750  0.00  0.00     0.025 A 
ENDBRANCH  14  15
ENDBRANCH  13  14
ENDBRANCH  11  13
ENDBRANCH   1  10
TORSDOF 4
ENDMDL
MODEL 4
REMARK VINA RESULT:      -7.2      1.521      3.429
REMARK  4 active torsions:
REMARK  status: ('A' for Active; 'I' for Inactive)
REMARK    1  A    between atoms: N_6  and  C_1 
REMARK       I    between atoms: C_9  and  N_6 
REMARK    2  A    between atoms: C_12  and  C_9 
REMARK    3  A    between atoms: O_11  and  C_12 
REMARK    4  A    between atoms: C_15  and  O_11 
ROOT
ATOM      1  C   UNL d   1      53.714  33.105  53.708  0.00  0.00     0.124 A 
ATOM      2  C   UNL d   1      53.816  32.578  54.343  0.00  0.00     0.093 A 
ATOM      3  S   UNL d   1      53.394  32.678  53.075  0.00  0.00    -0.067 SA
ATOM      4  C   UNL d   1      53.557  31.832  54.092  0.00  0.00     0.018 A 
ATOM      5  C   UNL d   1      53.303  31.901  53.322  0.00  0.00     0.032 A 
ATOM      6  C   UNL d   1      54.124  32.775  55.090  0.00  0.00     0.103 C 
ATOM      7  N   UNL d   1      54.424  32.961  55.822  0.00  0.00    -0.191 NA
ATOM      8  C   UNL d   1      53.562  31.145  54.553  0.00  0.00     0.001 C 
ATOM      9  C   UNL d   1      52.998  31.283  52.858  0.00  0.00     0.007 C 
ENDROOT
BRANCH   1  10
ATOM     10  N   UNL d   1      53.898  33.902  53.710  0.00  0.00    -0.199 NA
ATOM     11  C   UNL d   1      53.328  34.449  53.487  0.00  0.00     0.305 C 
ATOM     12  O   UNL d   1      53.513  35.255  53.489  0.00  0.00    -0.263 OA
BRANCH  11  13
ATOM     13  C   UNL d   1      52.586  34.213  53.265  0.00  0.00     0.185 C 
BRANCH  13  14
ATOM     14  O   UNL d   1      51.985  34.750  53.158  0.00  0.00    -0.300 OA
BRANCH  14  15
ATOM     15  C   UNL d   1      51.277  34.532  52.790  0.00  0.00     0.100 A 
ATOM     16  C   UNL d   1      50.598  34.444  53.253  0.00  0.00     0.025 A 
ATOM     17  C   UNL d   1      49.902  34.229  52.888  0.00  0.00     0.002 A 
ATOM     18  C   UNL d   1      49.879  34.102  52.073  0.00  0.00     0.000 A 
ATOM     19  C   UNL d   1      50.555  34.191  51.621  0.00  0.00     0.002 A 
ATOM     20  C   UNL d   1      51.257  34.408  51.988  0.00  0.00     0.025 A 
ENDBRANCH  14  15
ENDBRANCH  13  14
ENDBRANCH  11  13
ENDBRANCH   1  10
TORSDOF 4
ENDMDL
MODEL 5
REMARK VINA RESULT:      -6.9      1.956      3.949
REMARK  4 active torsions:
REMARK  status: ('A' for Active; 'I' for Inactive)
REMARK    1  A    between atoms: N_6  and  C_1 
REMARK       I    between atoms: C_9  and  N_6 
REMARK    2  A    between atoms: C_12  and  C_9 
REMARK    3  A    between atoms: O_11  and  C_12 
REMARK    4  A    between atoms: C_15  and  O_11 
ROOT
ATOM      1  C   UNL d   1      52.832  30.777  53.008  0.00  0.00     0.124 A 
ATOM      2  C   UNL d   1      52.489  30.166  53.455  0.00  0.00     0.093 A 
ATOM      3  S   UNL d   1      53.651  30.662  53.009  0.00  0.00    -0.067 SA
ATOM      4  C   UNL d   1      53.103  29.681  53.726  0.00  0.00     0.018 A 
ATOM      5  C   UNL d   1      53.805  29.988  53.451  0.00  0.00     0.032 A 
ATOM      6  C   UNL d   1      51.675  30.070  53.597  0.00  0.00     0.103 C 
ATOM      7  N   UNL d   1      50.882  29.969  53.740  0.00  0.00    -0.191 NA
ATOM      8  C   UNL d   1      53.006  29.005  54.194  0.00  0.00     0.001 C 
ATOM      9  C   UNL d   1      54.559  29.671  53.596  0.00  0.00     0.007 C 
ENDROOT
BRANCH   1  10
ATOM     10  N   UNL d   1      52.430  31.384  52.634  0.00  0.00    -0.199 NA
ATOM     11  C   UNL d   1      52.619  32.163  52.809  0.00  0.00     0.305 C 
ATOM     12  O   UNL d   1      52.213  32.777  52.431  0.00  0.00    -0.263 OA
BRANCH  11  13
ATOM     13  C   UNL d   1      53.198  32.343  53.346  0.00  0.00     0.185 C 
BRANCH  13  14
ATOM     14  O   UNL d   1      53.343  33.109  53.573  0.00  0.00    -0.300 OA
BRANCH  14  15
ATOM     15  C   UNL d   1      53.919  33.286  54.140  0.00  0.00     0.100 A 
ATOM     16  C   UNL d   1      53.695  33.323  54.936  0.00  0.00     0.025 A 
ATOM     17  C   UNL d   1      54.265  33.498  55.492  0.00  0.00     0.002 A 
ATOM     18  C   UNL d   1      55.046  33.634  55.263  0.00  0.00     0.000 A 
ATOM     19  C   UNL d   1      55.258  33.595  54.474  0.00  0.00     0.002 A 
ATOM     20  C   UNL d   1      54.686  33.420  53.912  0.00  0.00     0.025 A 
ENDBRANCH  14  15
ENDBRANCH  13  14
ENDBRANCH  11  13
ENDBRANCH   1  10
TORSDOF 4
ENDMDL
MODEL 6
REMARK VINA RESULT:      -6.7      1.690      2.805
REMARK  4 active torsions:
REMARK  status: ('A' for Active; 'I' for Inactive)
REMARK    1  A    between atoms: N_6  and  C_1 
REMARK       I    between atoms: C_9  and  N_6 
REMARK    2  A    between atoms: C_12  and  C_9 
REMARK    3  A    between atoms: O_11  and  C_12 
REMARK    4  A    between atoms: C_15  and  O_11 
ROOT
ATOM      1  C   UNL d   1      52.205  32.958  52.727  0.00  0.00     0.124 A 
ATOM      2  C   UNL d   1      51.436  33.168  52.961  0.00  0.00     0.093 A 
ATOM      3  S   UNL d   1      52.619  33.657  52.565  0.00  0.00    -0.067 SA
ATOM      4  C   UNL d   1      51.385  33.994  52.941  0.00  0.00     0.018 A 
ATOM      5  C   UNL d   1      52.107  34.284  52.699  0.00  0.00     0.032 A 
ATOM      6  C   UNL d   1      50.834  32.635  53.175  0.00  0.00     0.103 C 
ATOM      7  N   UNL d   1      50.241  32.121  53.385  0.00  0.00    -0.191 NA
ATOM      8  C   UNL d   1      50.713  34.437  53.133  0.00  0.00     0.001 C 
ATOM      9  C   UNL d   1      52.296  35.087  52.604  0.00  0.00     0.007 C 
ENDROOT
BRANCH   1  10
ATOM     10  N   UNL d   1      52.500  32.197  52.668  0.00  0.00    -0.199 NA
ATOM     11  C   UNL d   1      53.172  31.990  53.090  0.00  0.00     0.305 C 
ATOM     12  O   UNL d   1      53.470  31.220  53.030  0.00  0.00    -0.263 OA
BRANCH  11  13
ATOM     13  C   UNL d   1      53.550  32.526  53.565  0.00  0.00     0.185 C 
BRANCH  13  14
ATOM     14  O   UNL d   1      54.181  32.309  54.029  0.00  0.00    -0.300 OA
BRANCH  14  15
ATOM     15  C   UNL d   1      54.539  32.850  54.543  0.00  0.00     0.100 A 
ATOM     16  C   UNL d   1      54.257  32.908  55.318  0.00  0.00     0.025 A 
ATOM     17  C   UNL d   1      54.611  33.442  55.823  0.00  0.00     0.002 A 
ATOM     18  C   UNL d   1      55.238  33.911  55.562  0.00  0.00     0.000 A 
ATOM     19  C   UNL d   1      55.511  33.847  54.794  0.00  0.00     0.002 A 
ATOM     20  C   UNL d   1      55.155  33.310  54.285  0.00  0.00     0.025 A 
ENDBRANCH  14  15
ENDBRANCH  13  14
ENDBRANCH  11  13
ENDBRANCH   1  10
TORSDOF 4
ENDMDL
MODEL 7
REMARK VINA RESULT:      -6.2      1.556      3.695
REMARK  4 active torsions:
REMARK  status: ('A' for Active; 'I' for Inactive)
REMARK    1  A    between atoms: N_6  and  C_1 
REMARK       I    between atoms: C_9  and  N_6 
REMARK    2  A    between atoms: C_12  and  C_9 
REMARK    3  A    between atoms: O_11  and  C_12 
REMARK    4  A    between atoms: C_15  and  O_11 
ROOT
ATOM      1  C   UNL d   1      53.621  31.203  53.938  0.00  0.00     0.124 A 
ATOM      2  C   UNL d   1      53.316  30.460  54.152  0.00  0.00     0.093 A 
ATOM      3  S   UNL d   1      53.534  31.286  53.119  0.00  0.00    -0.067 SA
ATOM      4  C   UNL d   1      53.045  30.094  53.461  0.00  0.00     0.018 A 
ATOM      5  C   UNL d   1      53.180  30.601  52.839  0.00  0.00     0.032 A 
ATOM      6  C   UNL d   1      53.293  30.151  54.924  0.00  0.00     0.103 C 
ATOM      7  N   UNL d   1      53.268  29.843  55.675  0.00  0.00    -0.191 NA
ATOM      8  C   UNL d   1      52.698  29.343  53.422  0.00  0.00     0.001 C 
ATOM      9  C   UNL d   1      52.991  30.450  52.044  0.00  0.00     0.007 C 
ENDROOT
BRANCH   1  10
ATOM     10  N   UNL d   1      53.948  31.754  54.447  0.00  0.00    -0.199 NA
ATOM     11  C   UNL d   1      53.654  32.520  54.459  0.00  0.00     0.305 C 
ATOM     12  O   UNL d   1      53.985  33.076  54.973  0.00  0.00    -0.263 OA
BRANCH  11  13
ATOM     13  C   UNL d   1      53.043  32.741  53.975  0.00  0.00     0.185 C 
BRANCH  13  14
ATOM     14  O   UNL d   1      52.672  33.458  54.061  0.00  0.00    -0.300 OA
BRANCH  14  15
ATOM     15  C   UNL d   1      52.082  33.701  53.535  0.00  0.00     0.100 A 
ATOM     16  C   UNL d   1      52.292  34.180  52.895  0.00  0.00     0.025 A 
ATOM     17  C   UNL d   1      51.708  34.418  52.377  0.00  0.00     0.002 A 
ATOM     18  C   UNL d   1      50.926  34.183  52.494  0.00  0.00     0.000 A 
ATOM     19  C   UNL d   1      50.726  33.709  53.130  0.00  0.00     0.002 A 
ATOM     20  C   UNL d   1      51.313  33.469  53.652  0.00  0.00     0.025 A 
ENDBRANCH  14  15
ENDBRANCH  13  14
ENDBRANCH  11  13
ENDBRANCH   1  10
TORSDOF 4
ENDMDL
