MODEL 1
REMARK VINA RESULT:      53.5      0.000      0.000
REMARK  6 active torsions:
REMARK  status: ('A' for Active; 'I' for Inactive)
REMARK    1  A    between atoms: C_4  and  N_1 
REMARK    2  A    between atoms: N_6  and  C_2 
REMARK    3  A    between atoms: S_10  and  C_7 
REMARK    4  A    between atoms: C_12  and  C_9 
REMARK    5  A    between atoms: C_11  and  S_10 
REMARK    6  A    between atoms: O_24  and  C_20 
ROOT
ATOM      1  N   UNL d   1      45.839 -16.378  43.746  0.00  0.00    -0.240 N 
ATOM      2  C   UNL d   1      45.424 -16.147  44.410  0.00  0.00     0.268 A 
ATOM      3  C   UNL d   1      46.184 -15.721  43.375  0.00  0.00     0.273 A 
ATOM      4  C   UNL d   1      45.968 -15.059  43.836  0.00  0.00     0.091 A 
ATOM      5  C   UNL d   1      45.505 -15.328  44.465  0.00  0.00     0.072 A 
ATOM      6  O   UNL d   1      45.029 -16.346  44.953  0.00  0.00    -0.267 OA
ATOM      7  O   UNL d   1      46.646 -15.696  42.695  0.00  0.00    -0.266 OA
ENDROOT
BRANCH   1   8
ATOM      8  C   UNL d   1      45.902 -17.167  43.484  0.00  0.00     0.092 A 
ATOM      9  C   UNL d   1      45.256 -17.486  43.098  0.00  0.00     0.145 A 
ATOM     10  C   UNL d   1      45.296 -18.272  42.827  0.00  0.00     0.049 A 
ATOM     11  C   UNL d   1      45.980 -18.715  42.952  0.00  0.00     0.096 A 
ATOM     12  C   UNL d   1      46.646 -18.376  43.355  0.00  0.00     0.026 A 
ATOM     13  C   UNL d   1      46.592 -17.596  43.617  0.00  0.00     0.021 A 
BRANCH   9  14
ATOM     14  N   UNL d   1      44.577 -17.031  42.979  0.00  0.00    -0.112 N 
ATOM     15  O   UNL d   1      44.223 -16.956  43.337  0.00  0.00    -0.532 OA
ATOM     16  O   UNL d   1      44.396 -16.650  42.269  0.00  0.00    -0.532 OA
ENDBRANCH   9  14
BRANCH  11  17
ATOM     17  O   UNL d   1      45.996 -19.495  42.674  0.00  0.00    -0.328 OA
ATOM     18  C   UNL d   1      45.583 -20.090  43.055  0.00  0.00     0.181 C 
ENDBRANCH  11  17
ENDBRANCH   1   8
BRANCH   4  19
ATOM     19  S   UNL d   1      46.223 -14.312  43.618  0.00  0.00    -0.082 SA
BRANCH  19  20
ATOM     20  C   UNL d   1      45.675 -13.765  43.290  0.00  0.00     0.035 A 
ATOM     21  C   UNL d   1      45.449 -13.109  43.711  0.00  0.00     0.070 A 
ATOM     22  C   UNL d   1      44.917 -12.575  43.398  0.00  0.00     0.007 A 
ATOM     23  C   UNL d   1      44.606 -12.712  42.635  0.00  0.00     0.000 A 
ATOM     24  C   UNL d   1      44.832 -13.380  42.200  0.00  0.00     0.001 A 
ATOM     25  C   UNL d   1      45.377 -13.901  42.553  0.00  0.00     0.007 A 
BRANCH  21  26
ATOM     26  C   UNL d   1      45.746 -12.959  44.465  0.00  0.00     0.211 C 
ATOM     27  O   UNL d   1      45.420 -12.386  44.950  0.00  0.00    -0.644 OA
ATOM     28  O   UNL d   1      46.401 -13.397  44.755  0.00  0.00    -0.644 OA
ENDBRANCH  21  26
ENDBRANCH  19  20
ENDBRANCH   4  19
TORSDOF 6
ENDMDL
