MODEL 1
REMARK VINA RESULT:      -9.7      0.000      0.000
REMARK  5 active torsions:
REMARK  status: ('A' for Active; 'I' for Inactive)
REMARK    1  A    between atoms: C_11  and  C_1 
REMARK    2  A    between atoms: O_19  and  C_11 
REMARK    3  A    between atoms: C_16  and  N_12 
REMARK    4  A    between atoms: C_18  and  C_16 
REMARK    5  A    between atoms: C_26  and  O_19 
ROOT
ATOM      1  C   UNL d   1      53.845  33.449  54.254  0.00  0.00     0.088 A 
ATOM      2  C   UNL d   1      53.460  32.844  53.863  0.00  0.00     0.033 A 
ATOM      3  C   UNL d   1      52.838  32.860  53.299  0.00  0.00     0.043 A 
ATOM      4  C   UNL d   1      53.784  32.127  54.110  0.00  0.00     0.100 A 
ATOM      5  C   UNL d   1      54.421  33.097  54.754  0.00  0.00     0.105 A 
ATOM      6  O   UNL d   1      54.375  32.277  54.658  0.00  0.00    -0.307 OA
ATOM      7  C   UNL d   1      52.557  32.150  52.995  0.00  0.00     0.103 A 
ATOM      8  O   UNL d   1      51.942  32.154  52.436  0.00  0.00    -0.288 OA
ATOM      9  C   UNL d   1      53.487  31.416  53.792  0.00  0.00     0.025 A 
ATOM     10  C   UNL d   1      52.874  31.432  53.236  0.00  0.00     0.025 A 
ATOM     11  N   UNL d   1      51.911  33.582  52.503  0.00  0.00    -0.282 N 
ATOM     12  C   UNL d   1      52.524  33.570  53.060  0.00  0.00     0.084 A 
ATOM     13  C   UNL d   1      51.620  32.872  52.192  0.00  0.00     0.209 A 
ATOM     14  C   UNL d   1      54.939  33.503  55.253  0.00  0.00     0.027 C 
ATOM     15  C   UNL d   1      53.811  30.699  54.039  0.00  0.00     0.002 A 
ATOM     16  C   UNL d   1      52.583  30.731  52.925  0.00  0.00     0.002 A 
ATOM     17  C   UNL d   1      53.514  29.993  53.722  0.00  0.00     0.000 A 
ATOM     18  C   UNL d   1      52.905  30.009  53.169  0.00  0.00     0.000 A 
ENDROOT
BRANCH  11  19
ATOM     19  C   UNL d   1      51.587  34.291  52.256  0.00  0.00     0.084 C 
BRANCH  19  20
ATOM     20  C   UNL d   1      50.761  34.380  52.233  0.00  0.00     0.037 A 
ATOM     21  C   UNL d   1      50.354  34.279  51.519  0.00  0.00     0.100 A 
ATOM     22  N   UNL d   1      49.541  34.368  51.500  0.00  0.00    -0.242 NA
ATOM     23  C   UNL d   1      49.124  34.557  52.185  0.00  0.00     0.099 A 
ATOM     24  C   UNL d   1      49.531  34.656  52.888  0.00  0.00     0.021 A 
ATOM     25  C   UNL d   1      50.350  34.569  52.919  0.00  0.00     0.005 A 
ENDBRANCH  19  20
ENDBRANCH  11  19
BRANCH   1  26
ATOM     26  C   UNL d   1      53.692  34.249  54.168  0.00  0.00     0.302 C 
ATOM     27  O   UNL d   1      53.981  34.666  53.527  0.00  0.00    -0.259 OA
BRANCH  26  28
ATOM     28  O   UNL d   1      53.235  34.648  54.737  0.00  0.00    -0.271 OA
BRANCH  28  29
ATOM     29  C   UNL d   1      53.313  35.457  54.812  0.00  0.00     0.126 C 
ATOM     30  C   UNL d   1      52.745  35.893  55.215  0.00  0.00     0.029 C 
ENDBRANCH  28  29
ENDBRANCH  26  28
ENDBRANCH   1  26
TORSDOF 5
ENDMDL
MODEL 2
REMARK VINA RESULT:      -9.4      1.175      3.729
REMARK  5 active torsions:
REMARK  status: ('A' for Active; 'I' for Inactive)
REMARK    1  A    between atoms: C_11  and  C_1 
REMARK    2  A    between atoms: O_19  and  C_11 
REMARK    3  A    between atoms: C_16  and  N_12 
REMARK    4  A    between atoms: C_18  and  C_16 
REMARK    5  A    between atoms: C_26  and  O_19 
ROOT
ATOM      1  C   UNL d   1      53.173  34.393  53.973  0.00  0.00     0.088 A 
ATOM      2  C   UNL d   1      52.539  34.039  53.601  0.00  0.00     0.033 A 
ATOM      3  C   UNL d   1      52.432  33.254  53.320  0.00  0.00     0.043 A 
ATOM      4  C   UNL d   1      51.939  34.598  53.519  0.00  0.00     0.100 A 
ATOM      5  C   UNL d   1      52.960  35.191  54.125  0.00  0.00     0.105 A 
ATOM      6  O   UNL d   1      52.193  35.309  53.839  0.00  0.00    -0.307 OA
ATOM      7  C   UNL d   1      51.720  33.052  52.962  0.00  0.00     0.103 A 
ATOM      8  O   UNL d   1      51.604  32.278  52.680  0.00  0.00    -0.288 OA
ATOM      9  C   UNL d   1      51.223  34.377  53.154  0.00  0.00     0.025 A 
ATOM     10  C   UNL d   1      51.118  33.604  52.877  0.00  0.00     0.025 A 
ATOM     11  N   UNL d   1      52.919  31.935  53.126  0.00  0.00    -0.282 N 
ATOM     12  C   UNL d   1      53.027  32.708  53.404  0.00  0.00     0.084 A 
ATOM     13  C   UNL d   1      52.206  31.722  52.764  0.00  0.00     0.209 A 
ATOM     14  C   UNL d   1      53.437  35.756  54.494  0.00  0.00     0.027 C 
ATOM     15  C   UNL d   1      50.623  34.936  53.071  0.00  0.00     0.002 A 
ATOM     16  C   UNL d   1      50.413  33.388  52.517  0.00  0.00     0.002 A 
ATOM     17  C   UNL d   1      49.913  34.714  52.708  0.00  0.00     0.000 A 
ATOM     18  C   UNL d   1      49.808  33.946  52.432  0.00  0.00     0.000 A 
ENDROOT
BRANCH  11  19
ATOM     19  C   UNL d   1      53.511  31.377  53.205  0.00  0.00     0.084 C 
BRANCH  19  20
ATOM     20  C   UNL d   1      53.332  30.626  53.514  0.00  0.00     0.037 A 
ATOM     21  C   UNL d   1      53.014  30.043  53.021  0.00  0.00     0.100 A 
ATOM     22  N   UNL d   1      52.838  29.305  53.328  0.00  0.00    -0.242 NA
ATOM     23  C   UNL d   1      52.974  29.139  54.124  0.00  0.00     0.099 A 
ATOM     24  C   UNL d   1      53.289  29.720  54.607  0.00  0.00     0.021 A 
ATOM     25  C   UNL d   1      53.470  30.467  54.308  0.00  0.00     0.005 A 
ENDBRANCH  19  20
ENDBRANCH  11  19
BRANCH   1  26
ATOM     26  C   UNL d   1      53.883  34.030  54.160  0.00  0.00     0.302 C 
ATOM     27  O   UNL d   1      54.454  33.904  53.590  0.00  0.00    -0.259 OA
BRANCH  26  28
ATOM     28  O   UNL d   1      54.031  33.783  54.941  0.00  0.00    -0.271 OA
BRANCH  28  29
ATOM     29  C   UNL d   1      54.803  33.707  55.194  0.00  0.00     0.126 C 
ATOM     30  C   UNL d   1      54.965  33.444  55.955  0.00  0.00     0.029 C 
ENDBRANCH  28  29
ENDBRANCH  26  28
ENDBRANCH   1  26
TORSDOF 5
ENDMDL
MODEL 3
REMARK VINA RESULT:      -7.4      1.342      3.840
REMARK  5 active torsions:
REMARK  status: ('A' for Active; 'I' for Inactive)
REMARK    1  A    between atoms: C_11  and  C_1 
REMARK    2  A    between atoms: O_19  and  C_11 
REMARK    3  A    between atoms: C_16  and  N_12 
REMARK    4  A    between atoms: C_18  and  C_16 
REMARK    5  A    between atoms: C_26  and  O_19 
ROOT
ATOM      1  C   UNL d   1      52.165  34.192  53.742  0.00  0.00     0.088 A 
ATOM      2  C   UNL d   1      52.880  33.866  53.963  0.00  0.00     0.033 A 
ATOM      3  C   UNL d   1      53.218  33.115  53.797  0.00  0.00     0.043 A 
ATOM      4  C   UNL d   1      53.287  34.416  54.422  0.00  0.00     0.100 A 
ATOM      5  C   UNL d   1      52.129  34.963  54.072  0.00  0.00     0.105 A 
ATOM      6  O   UNL d   1      52.829  35.093  54.492  0.00  0.00    -0.307 OA
ATOM      7  C   UNL d   1      53.961  32.936  54.099  0.00  0.00     0.103 A 
ATOM      8  O   UNL d   1      54.305  32.196  53.942  0.00  0.00    -0.288 OA
ATOM      9  C   UNL d   1      54.039  34.220  54.721  0.00  0.00     0.025 A 
ATOM     10  C   UNL d   1      54.372  33.480  54.558  0.00  0.00     0.025 A 
ATOM     11  N   UNL d   1      53.148  31.838  53.182  0.00  0.00    -0.282 N 
ATOM     12  C   UNL d   1      52.811  32.577  53.344  0.00  0.00     0.084 A 
ATOM     13  C   UNL d   1      53.896  31.648  53.483  0.00  0.00     0.209 A 
ATOM     14  C   UNL d   1      51.502  35.495  53.990  0.00  0.00     0.027 C 
ATOM     15  C   UNL d   1      54.446  34.770  55.180  0.00  0.00     0.002 A 
ATOM     16  C   UNL d   1      55.113  33.288  54.853  0.00  0.00     0.002 A 
ATOM     17  C   UNL d   1      55.194  34.573  55.477  0.00  0.00     0.000 A 
ATOM     18  C   UNL d   1      55.525  33.837  55.314  0.00  0.00     0.000 A 
ENDROOT
BRANCH  11  19
ATOM     19  C   UNL d   1      52.747  31.288  52.727  0.00  0.00     0.084 C 
BRANCH  19  20
ATOM     20  C   UNL d   1      52.638  30.516  53.015  0.00  0.00     0.037 A 
ATOM     21  C   UNL d   1      51.931  30.312  53.391  0.00  0.00     0.100 A 
ATOM     22  N   UNL d   1      51.826  29.551  53.674  0.00  0.00    -0.242 NA
ATOM     23  C   UNL d   1      52.420  28.987  53.585  0.00  0.00     0.099 A 
ATOM     24  C   UNL d   1      53.119  29.194  53.212  0.00  0.00     0.021 A 
ATOM     25  C   UNL d   1      53.234  29.958  52.924  0.00  0.00     0.005 A 
ENDBRANCH  19  20
ENDBRANCH  11  19
BRANCH   1  26
ATOM     26  C   UNL d   1      51.593  33.828  53.282  0.00  0.00     0.302 C 
ATOM     27  O   UNL d   1      51.060  33.304  53.611  0.00  0.00    -0.259 OA
BRANCH  26  28
ATOM     28  O   UNL d   1      51.550  33.990  52.467  0.00  0.00    -0.271 OA
BRANCH  28  29
ATOM     29  C   UNL d   1      50.820  33.992  52.101  0.00  0.00     0.126 C 
ATOM     30  C   UNL d   1      50.761  34.153  51.297  0.00  0.00     0.029 C 
ENDBRANCH  28  29
ENDBRANCH  26  28
ENDBRANCH   1  26
TORSDOF 5
ENDMDL
MODEL 4
REMARK VINA RESULT:      -7.0      0.938      2.989
REMARK  5 active torsions:
REMARK  status: ('A' for Active; 'I' for Inactive)
REMARK    1  A    between atoms: C_11  and  C_1 
REMARK    2  A    between atoms: O_19  and  C_11 
REMARK    3  A    between atoms: C_16  and  N_12 
REMARK    4  A    between atoms: C_18  and  C_16 
REMARK    5  A    between atoms: C_26  and  O_19 
ROOT
ATOM      1  C   UNL d   1      53.433  31.606  53.385  0.00  0.00     0.088 A 
ATOM      2  C   UNL d   1      53.437  32.348  53.726  0.00  0.00     0.033 A 
ATOM      3  C   UNL d   1      52.831  32.925  53.795  0.00  0.00     0.043 A 
ATOM      4  C   UNL d   1      54.189  32.490  54.033  0.00  0.00     0.100 A 
ATOM      5  C   UNL d   1      54.202  31.281  53.483  0.00  0.00     0.105 A 
ATOM      6  O   UNL d   1      54.663  31.837  53.886  0.00  0.00    -0.307 OA
ATOM      7  C   UNL d   1      52.999  33.635  54.175  0.00  0.00     0.103 A 
ATOM      8  O   UNL d   1      52.407  34.214  54.249  0.00  0.00    -0.288 OA
ATOM      9  C   UNL d   1      54.342  33.214  54.414  0.00  0.00     0.025 A 
ATOM     10  C   UNL d   1      53.745  33.784  54.483  0.00  0.00     0.025 A 
ATOM     11  N   UNL d   1      51.498  33.351  53.561  0.00  0.00    -0.282 N 
ATOM     12  C   UNL d   1      52.092  32.779  53.491  0.00  0.00     0.084 A 
ATOM     13  C   UNL d   1      51.657  34.069  53.942  0.00  0.00     0.209 A 
ATOM     14  C   UNL d   1      54.448  30.537  53.222  0.00  0.00     0.027 C 
ATOM     15  C   UNL d   1      55.094  33.356  54.721  0.00  0.00     0.002 A 
ATOM     16  C   UNL d   1      53.898  34.497  54.859  0.00  0.00     0.002 A 
ATOM     17  C   UNL d   1      55.245  34.078  55.100  0.00  0.00     0.000 A 
ATOM     18  C   UNL d   1      54.651  34.644  55.168  0.00  0.00     0.000 A 
ENDROOT
BRANCH  11  19
ATOM     19  C   UNL d   1      50.750  33.214  53.258  0.00  0.00     0.084 C 
BRANCH  19  20
ATOM     20  C   UNL d   1      50.375  33.803  52.808  0.00  0.00     0.037 A 
ATOM     21  C   UNL d   1      49.886  34.358  53.178  0.00  0.00     0.100 A 
ATOM     22  N   UNL d   1      49.517  34.936  52.731  0.00  0.00    -0.242 NA
ATOM     23  C   UNL d   1      49.630  34.970  51.916  0.00  0.00     0.099 A 
ATOM     24  C   UNL d   1      50.115  34.419  51.554  0.00  0.00     0.021 A 
ATOM     25  C   UNL d   1      50.491  33.832  51.995  0.00  0.00     0.005 A 
ENDBRANCH  19  20
ENDBRANCH  11  19
BRANCH   1  26
ATOM     26  C   UNL d   1      52.793  31.251  53.016  0.00  0.00     0.302 C 
ATOM     27  O   UNL d   1      52.632  31.390  52.228  0.00  0.00    -0.259 OA
BRANCH  26  28
ATOM     28  O   UNL d   1      52.297  30.740  53.446  0.00  0.00    -0.271 OA
BRANCH  28  29
ATOM     29  C   UNL d   1      52.029  30.056  53.092  0.00  0.00     0.126 C 
ATOM     30  C   UNL d   1      51.539  29.540  53.503  0.00  0.00     0.029 C 
ENDBRANCH  28  29
ENDBRANCH  26  28
ENDBRANCH   1  26
TORSDOF 5
ENDMDL
