MODEL 1
REMARK VINA RESULT:      -8.3      0.000      0.000
REMARK  9 active torsions:
REMARK  status: ('A' for Active; 'I' for Inactive)
REMARK    1  A    between atoms: C_21  and  N_1 
REMARK    2  A    between atoms: S_7  and  C_2 
REMARK       I    between atoms: C_6  and  N_18 
REMARK    3  A    between atoms: C_15  and  C_6 
REMARK    4  A    between atoms: C_19  and  S_7 
REMARK    5  A    between atoms: C_8  and  C_19 
REMARK       I    between atoms: N_11  and  C_8 
REMARK    6  A    between atoms: C_9  and  C_20 
REMARK    7  A    between atoms: C_20  and  N_11 
REMARK    8  A    between atoms: N_18  and  C_23 
REMARK    9  A    between atoms: C_23  and  C_21 
ROOT
ATOM      1  N   UNL d   1      51.965  33.939  53.430  0.00  0.00    -0.302 N 
ATOM      2  C   UNL d   1      52.780  32.892  53.246  0.00  0.00     0.049 A 
ATOM      3  C   UNL d   1      52.052  33.208  53.032  0.00  0.00     0.087 A 
ATOM      4  C   UNL d   1      53.150  33.416  53.774  0.00  0.00     0.024 A 
ATOM      5  C   UNL d   1      52.645  34.061  53.885  0.00  0.00     0.065 A 
ATOM      6  C   UNL d   1      53.875  33.381  54.158  0.00  0.00     0.002 A 
ATOM      7  C   UNL d   1      52.873  34.670  54.385  0.00  0.00     0.018 A 
ATOM      8  C   UNL d   1      54.100  33.998  54.661  0.00  0.00     0.000 A 
ATOM      9  C   UNL d   1      53.602  34.644  54.777  0.00  0.00     0.002 A 
ENDROOT
BRANCH   1  10
ATOM     10  C   UNL d   1      51.321  34.451  53.382  0.00  0.00     0.101 C 
BRANCH  10  11
ATOM     11  C   UNL d   1      50.699  34.285  52.864  0.00  0.00     0.121 C 
BRANCH  11  12
ATOM     12  N   UNL d   1      49.995  34.724  52.911  0.00  0.00    -0.205 NA
ATOM     13  C   UNL d   1      49.478  34.747  52.264  0.00  0.00     0.279 C 
ATOM     14  O   UNL d   1      49.667  34.331  51.568  0.00  0.00    -0.265 OA
BRANCH  13  15
ATOM     15  C   UNL d   1      48.781  35.182  52.312  0.00  0.00     0.058 A 
ATOM     16  C   UNL d   1      48.624  35.635  52.964  0.00  0.00     0.005 A 
ATOM     17  C   UNL d   1      47.930  36.078  53.030  0.00  0.00     0.000 A 
ATOM     18  C   UNL d   1      47.377  36.060  52.413  0.00  0.00     0.000 A 
ATOM     19  C   UNL d   1      47.530  35.597  51.738  0.00  0.00     0.000 A 
ATOM     20  C   UNL d   1      48.232  35.159  51.689  0.00  0.00     0.005 A 
ENDBRANCH  13  15
ENDBRANCH  11  12
ENDBRANCH  10  11
ENDBRANCH   1  10
BRANCH   2  21
ATOM     21  S   UNL d   1      53.094  32.173  52.982  0.00  0.00    -0.080 SA
BRANCH  21  22
ATOM     22  C   UNL d   1      52.726  31.465  53.196  0.00  0.00     0.098 C 
BRANCH  22  23
ATOM     23  C   UNL d   1      52.910  30.765  52.808  0.00  0.00     0.286 C 
ATOM     24  N   UNL d   1      53.025  30.068  53.226  0.00  0.00    -0.204 NA
ATOM     25  O   UNL d   1      52.980  30.765  51.985  0.00  0.00    -0.265 OA
BRANCH  24  26
ATOM     26  C   UNL d   1      52.954  30.072  54.042  0.00  0.00     0.127 C 
BRANCH  26  27
ATOM     27  C   UNL d   1      53.158  29.399  54.476  0.00  0.00     0.119 A 
ATOM     28  O   UNL d   1      53.340  28.666  54.160  0.00  0.00    -0.304 OA
ATOM     29  C   UNL d   1      53.509  28.158  54.784  0.00  0.00     0.123 A 
ATOM     30  C   UNL d   1      53.433  28.575  55.480  0.00  0.00     0.029 A 
ATOM     31  C   UNL d   1      53.216  29.344  55.292  0.00  0.00     0.028 A 
ENDBRANCH  26  27
ENDBRANCH  24  26
ENDBRANCH  22  23
ENDBRANCH  21  22
ENDBRANCH   2  21
TORSDOF 9
ENDMDL
MODEL 2
REMARK VINA RESULT:      -7.5      0.984      6.029
REMARK  9 active torsions:
REMARK  status: ('A' for Active; 'I' for Inactive)
REMARK    1  A    between atoms: C_21  and  N_1 
REMARK    2  A    between atoms: S_7  and  C_2 
REMARK       I    between atoms: C_6  and  N_18 
REMARK    3  A    between atoms: C_15  and  C_6 
REMARK    4  A    between atoms: C_19  and  S_7 
REMARK    5  A    between atoms: C_8  and  C_19 
REMARK       I    between atoms: N_11  and  C_8 
REMARK    6  A    between atoms: C_9  and  C_20 
REMARK    7  A    between atoms: C_20  and  N_11 
REMARK    8  A    between atoms: N_18  and  C_23 
REMARK    9  A    between atoms: C_23  and  C_21 
ROOT
ATOM      1  N   UNL d   1      53.006  33.247  53.650  0.00  0.00    -0.302 N 
ATOM      2  C   UNL d   1      52.197  34.117  53.031  0.00  0.00     0.049 A 
ATOM      3  C   UNL d   1      52.433  33.330  53.045  0.00  0.00     0.087 A 
ATOM      4  C   UNL d   1      52.615  34.528  53.620  0.00  0.00     0.024 A 
ATOM      5  C   UNL d   1      53.113  33.989  53.999  0.00  0.00     0.065 A 
ATOM      6  C   UNL d   1      52.600  35.317  53.849  0.00  0.00     0.002 A 
ATOM      7  C   UNL d   1      53.596  34.246  54.611  0.00  0.00     0.018 A 
ATOM      8  C   UNL d   1      53.088  35.572  54.466  0.00  0.00     0.000 A 
ATOM      9  C   UNL d   1      53.587  35.039  54.849  0.00  0.00     0.002 A 
ENDROOT
BRANCH   1  10
ATOM     10  C   UNL d   1      53.397  32.553  53.863  0.00  0.00     0.101 C 
BRANCH  10  11
ATOM     11  C   UNL d   1      53.137  31.826  53.572  0.00  0.00     0.121 C 
BRANCH  11  12
ATOM     12  N   UNL d   1      53.328  31.127  53.979  0.00  0.00    -0.205 NA
ATOM     13  C   UNL d   1      53.040  30.398  53.708  0.00  0.00     0.279 C 
ATOM     14  O   UNL d   1      52.559  30.370  53.029  0.00  0.00    -0.265 OA
BRANCH  13  15
ATOM     15  C   UNL d   1      53.230  29.707  54.112  0.00  0.00     0.058 A 
ATOM     16  C   UNL d   1      53.697  29.144  53.764  0.00  0.00     0.005 A 
ATOM     17  C   UNL d   1      53.898  28.444  54.153  0.00  0.00     0.000 A 
ATOM     18  C   UNL d   1      53.616  28.311  54.921  0.00  0.00     0.000 A 
ATOM     19  C   UNL d   1      53.136  28.885  55.287  0.00  0.00     0.000 A 
ATOM     20  C   UNL d   1      52.944  29.581  54.881  0.00  0.00     0.005 A 
ENDBRANCH  13  15
ENDBRANCH  11  12
ENDBRANCH  10  11
ENDBRANCH   1  10
BRANCH   2  21
ATOM     21  S   UNL d   1      51.637  34.448  52.518  0.00  0.00    -0.080 SA
BRANCH  21  22
ATOM     22  C   UNL d   1      50.836  34.273  52.622  0.00  0.00     0.098 C 
BRANCH  22  23
ATOM     23  C   UNL d   1      50.305  34.370  52.006  0.00  0.00     0.286 C 
ATOM     24  N   UNL d   1      49.570  34.716  52.130  0.00  0.00    -0.204 NA
ATOM     25  O   UNL d   1      50.513  34.115  51.247  0.00  0.00    -0.265 OA
BRANCH  24  26
ATOM     26  C   UNL d   1      49.367  34.967  52.883  0.00  0.00     0.127 C 
BRANCH  26  27
ATOM     27  C   UNL d   1      48.701  35.444  52.991  0.00  0.00     0.119 A 
ATOM     28  O   UNL d   1      48.123  35.589  52.430  0.00  0.00    -0.304 OA
ATOM     29  C   UNL d   1      47.566  36.091  52.767  0.00  0.00     0.123 A 
ATOM     30  C   UNL d   1      47.798  36.254  53.531  0.00  0.00     0.029 A 
ATOM     31  C   UNL d   1      48.501  35.855  53.671  0.00  0.00     0.028 A 
ENDBRANCH  26  27
ENDBRANCH  24  26
ENDBRANCH  22  23
ENDBRANCH  21  22
ENDBRANCH   2  21
TORSDOF 9
ENDMDL
MODEL 3
REMARK VINA RESULT:      -7.2      9.883     11.330
REMARK  9 active torsions:
REMARK  status: ('A' for Active; 'I' for Inactive)
REMARK    1  A    between atoms: C_21  and  N_1 
REMARK    2  A    between atoms: S_7  and  C_2 
REMARK       I    between atoms: C_6  and  N_18 
REMARK    3  A    between atoms: C_15  and  C_6 
REMARK    4  A    between atoms: C_19  and  S_7 
REMARK    5  A    between atoms: C_8  and  C_19 
REMARK       I    between atoms: N_11  and  C_8 
REMARK    6  A    between atoms: C_9  and  C_20 
REMARK    7  A    between atoms: C_20  and  N_11 
REMARK    8  A    between atoms: N_18  and  C_23 
REMARK    9  A    between atoms: C_23  and  C_21 
ROOT
ATOM      1  N   UNL d   1      44.946  28.922  57.918  0.00  0.00    -0.302 N 
ATOM      2  C   UNL d   1      44.923  29.980  58.739  0.00  0.00     0.049 A 
ATOM      3  C   UNL d   1      45.009  29.164  58.718  0.00  0.00     0.087 A 
ATOM      4  C   UNL d   1      44.806  30.254  57.963  0.00  0.00     0.024 A 
ATOM      5  C   UNL d   1      44.821  29.599  57.460  0.00  0.00     0.065 A 
ATOM      6  C   UNL d   1      44.691  31.011  57.663  0.00  0.00     0.002 A 
ATOM      7  C   UNL d   1      44.719  29.708  56.653  0.00  0.00     0.018 A 
ATOM      8  C   UNL d   1      44.588  31.115  56.850  0.00  0.00     0.000 A 
ATOM      9  C   UNL d   1      44.601  30.467  56.342  0.00  0.00     0.002 A 
ENDROOT
BRANCH   1  10
ATOM     10  C   UNL d   1      44.998  28.151  57.633  0.00  0.00     0.101 C 
BRANCH  10  11
ATOM     11  C   UNL d   1      45.010  27.515  58.160  0.00  0.00     0.121 C 
BRANCH  11  12
ATOM     12  N   UNL d   1      44.848  26.748  57.885  0.00  0.00    -0.205 NA
ATOM     13  C   UNL d   1      44.800  26.118  58.421  0.00  0.00     0.279 C 
ATOM     14  O   UNL d   1      44.914  26.256  59.234  0.00  0.00    -0.265 OA
BRANCH  13  15
ATOM     15  C   UNL d   1      44.639  25.359  58.147  0.00  0.00     0.058 A 
ATOM     16  C   UNL d   1      44.501  25.227  57.360  0.00  0.00     0.005 A 
ATOM     17  C   UNL d   1      44.338  24.472  57.068  0.00  0.00     0.000 A 
ATOM     18  C   UNL d   1      44.314  23.830  57.590  0.00  0.00     0.000 A 
ATOM     19  C   UNL d   1      44.454  23.956  58.402  0.00  0.00     0.000 A 
ATOM     20  C   UNL d   1      44.617  24.720  58.678  0.00  0.00     0.005 A 
ENDBRANCH  13  15
ENDBRANCH  11  12
ENDBRANCH  10  11
ENDBRANCH   1  10
BRANCH   2  21
ATOM     21  S   UNL d   1      44.948  30.454  59.418  0.00  0.00    -0.080 SA
BRANCH  21  22
ATOM     22  C   UNL d   1      44.854  30.106  60.161  0.00  0.00     0.098 C 
BRANCH  22  23
ATOM     23  C   UNL d   1      44.823  30.569  60.838  0.00  0.00     0.286 C 
ATOM     24  N   UNL d   1      44.738  30.228  61.580  0.00  0.00    -0.204 NA
ATOM     25  O   UNL d   1      44.879  31.391  60.769  0.00  0.00    -0.265 OA
BRANCH  24  26
ATOM     26  C   UNL d   1      44.682  29.414  61.644  0.00  0.00     0.127 C 
BRANCH  26  27
ATOM     27  C   UNL d   1      44.585  29.066  62.387  0.00  0.00     0.119 A 
ATOM     28  O   UNL d   1      44.333  29.451  63.064  0.00  0.00    -0.304 OA
ATOM     29  C   UNL d   1      44.314  28.901  63.674  0.00  0.00     0.123 A 
ATOM     30  C   UNL d   1      44.553  28.181  63.376  0.00  0.00     0.029 A 
ATOM     31  C   UNL d   1      44.721  28.281  62.579  0.00  0.00     0.028 A 
ENDBRANCH  26  27
ENDBRANCH  24  26
ENDBRANCH  22  23
ENDBRANCH  21  22
ENDBRANCH   2  21
TORSDOF 9
ENDMDL
MODEL 4
REMARK VINA RESULT:      -5.7      1.705      3.885
REMARK  9 active torsions:
REMARK  status: ('A' for Active; 'I' for Inactive)
REMARK    1  A    between atoms: C_21  and  N_1 
REMARK    2  A    between atoms: S_7  and  C_2 
REMARK       I    between atoms: C_6  and  N_18 
REMARK    3  A    between atoms: C_15  and  C_6 
REMARK    4  A    between atoms: C_19  and  S_7 
REMARK    5  A    between atoms: C_8  and  C_19 
REMARK       I    between atoms: N_11  and  C_8 
REMARK    6  A    between atoms: C_9  and  C_20 
REMARK    7  A    between atoms: C_20  and  N_11 
REMARK    8  A    between atoms: N_18  and  C_23 
REMARK    9  A    between atoms: C_23  and  C_21 
ROOT
ATOM      1  N   UNL d   1      52.483  31.982  53.108  0.00  0.00    -0.302 N 
ATOM      2  C   UNL d   1      53.597  32.013  53.851  0.00  0.00     0.049 A 
ATOM      3  C   UNL d   1      53.007  32.483  53.528  0.00  0.00     0.087 A 
ATOM      4  C   UNL d   1      53.451  31.222  53.640  0.00  0.00     0.024 A 
ATOM      5  C   UNL d   1      52.763  31.207  53.182  0.00  0.00     0.065 A 
ATOM      6  C   UNL d   1      53.857  30.528  53.810  0.00  0.00     0.002 A 
ATOM      7  C   UNL d   1      52.486  30.490  52.895  0.00  0.00     0.018 A 
ATOM      8  C   UNL d   1      53.573  29.809  53.518  0.00  0.00     0.000 A 
ATOM      9  C   UNL d   1      52.888  29.785  53.061  0.00  0.00     0.002 A 
ENDROOT
BRANCH   1  10
ATOM     10  C   UNL d   1      51.809  32.212  52.694  0.00  0.00     0.101 C 
BRANCH  10  11
ATOM     11  C   UNL d   1      51.712  33.000  52.468  0.00  0.00     0.121 C 
BRANCH  11  12
ATOM     12  N   UNL d   1      50.961  33.353  52.514  0.00  0.00    -0.205 NA
ATOM     13  C   UNL d   1      50.810  34.058  52.105  0.00  0.00     0.279 C 
ATOM     14  O   UNL d   1      51.411  34.409  51.649  0.00  0.00    -0.265 OA
BRANCH  13  15
ATOM     15  C   UNL d   1      50.066  34.407  52.152  0.00  0.00     0.058 A 
ATOM     16  C   UNL d   1      49.819  34.756  52.839  0.00  0.00     0.005 A 
ATOM     17  C   UNL d   1      49.076  35.111  52.904  0.00  0.00     0.000 A 
ATOM     18  C   UNL d   1      48.567  35.111  52.251  0.00  0.00     0.000 A 
ATOM     19  C   UNL d   1      48.813  34.754  51.540  0.00  0.00     0.000 A 
ATOM     20  C   UNL d   1      49.562  34.403  51.492  0.00  0.00     0.005 A 
ENDBRANCH  13  15
ENDBRANCH  11  12
ENDBRANCH  10  11
ENDBRANCH   1  10
BRANCH   2  21
ATOM     21  S   UNL d   1      54.233  32.278  54.311  0.00  0.00    -0.080 SA
BRANCH  21  22
ATOM     22  C   UNL d   1      54.120  32.900  54.842  0.00  0.00     0.098 C 
BRANCH  22  23
ATOM     23  C   UNL d   1      54.680  33.495  54.913  0.00  0.00     0.286 C 
ATOM     24  N   UNL d   1      54.457  34.271  55.067  0.00  0.00    -0.204 NA
ATOM     25  O   UNL d   1      55.481  33.310  54.829  0.00  0.00    -0.265 OA
BRANCH  24  26
ATOM     26  C   UNL d   1      53.662  34.450  55.149  0.00  0.00     0.127 C 
BRANCH  26  27
ATOM     27  C   UNL d   1      53.386  35.200  54.938  0.00  0.00     0.119 A 
ATOM     28  O   UNL d   1      53.809  35.763  54.520  0.00  0.00    -0.304 OA
ATOM     29  C   UNL d   1      53.329  36.424  54.432  0.00  0.00     0.123 A 
ATOM     30  C   UNL d   1      52.615  36.271  54.793  0.00  0.00     0.029 A 
ATOM     31  C   UNL d   1      52.648  35.514  55.107  0.00  0.00     0.028 A 
ENDBRANCH  26  27
ENDBRANCH  24  26
ENDBRANCH  22  23
ENDBRANCH  21  22
ENDBRANCH   2  21
TORSDOF 9
ENDMDL
