MODEL 1
REMARK VINA RESULT:      62.8      0.000      0.000
REMARK  5 active torsions:
REMARK  status: ('A' for Active; 'I' for Inactive)
REMARK    1  A    between atoms: C_7  and  C_1 
REMARK       I    between atoms: C_3  and  N_8 
REMARK       I    between atoms: N_10  and  C_3 
REMARK    2  A    between atoms: N_8  and  C_6 
REMARK    3  A    between atoms: O_14  and  C_7 
REMARK    4  A    between atoms: C_13  and  N_10 
REMARK    5  A    between atoms: C_23  and  O_14 
ROOT
ATOM      1  C   UNL d   1     -56.933 -99.715 -43.955  0.00  0.00     0.083 A 
ATOM      2  N   UNL d   1     -56.051 -99.516 -45.054  0.00  0.00    -0.244 NA
ATOM      3  C   UNL d   1     -56.744 -99.334 -44.656  0.00  0.00     0.087 A 
ATOM      4  C   UNL d   1     -56.431-100.280 -43.647  0.00  0.00     0.028 A 
ATOM      5  C   UNL d   1     -55.728-100.471 -44.040  0.00  0.00     0.104 A 
ATOM      6  C   UNL d   1     -55.539-100.090 -44.742  0.00  0.00     0.099 A 
ATOM      7  C   UNL d   1     -57.256 -98.760 -44.969  0.00  0.00     0.021 C 
ATOM      8  C   UNL d   1     -54.835-100.278 -45.140  0.00  0.00     0.022 C 
ENDROOT
BRANCH   5   9
ATOM      9  N   UNL d   1     -55.217-101.046 -43.728  0.00  0.00    -0.189 NA
ATOM     10  C   UNL d   1     -55.218-101.209 -42.926  0.00  0.00     0.369 C 
ATOM     11  N   UNL d   1     -54.713-101.777 -42.606  0.00  0.00    -0.191 NA
ATOM     12  O   UNL d   1     -55.733-100.797 -42.418  0.00  0.00    -0.242 OA
BRANCH  11  13
ATOM     13  C   UNL d   1     -54.716-101.937 -41.808  0.00  0.00     0.086 A 
ATOM     14  C   UNL d   1     -54.723-102.719 -41.546  0.00  0.00     0.020 A 
ATOM     15  C   UNL d   1     -54.727-102.878 -40.730  0.00  0.00     0.008 A 
ATOM     16  C   UNL d   1     -54.722-102.256 -40.187  0.00  0.00     0.035 A 
ATOM     17  C   UNL d   1     -54.715-101.475 -40.450  0.00  0.00     0.008 A 
ATOM     18 BR   UNL d   1     -54.726-102.416 -39.390  0.00  0.00    -0.049 Br
ATOM     19  C   UNL d   1     -54.712-101.310 -41.261  0.00  0.00     0.020 A 
ENDBRANCH  11  13
ENDBRANCH   5   9
BRANCH   1  20
ATOM     20  C   UNL d   1     -57.630 -99.528 -43.562  0.00  0.00     0.302 C 
ATOM     21  O   UNL d   1     -57.662 -98.872 -43.083  0.00  0.00    -0.259 OA
BRANCH  20  22
ATOM     22  O   UNL d   1     -58.283-100.000 -43.654  0.00  0.00    -0.271 OA
BRANCH  22  23
ATOM     23  C   UNL d   1     -59.013 -99.657 -43.781  0.00  0.00     0.126 C 
ATOM     24  C   UNL d   1     -59.664 -99.903 -43.344  0.00  0.00     0.029 C 
ENDBRANCH  22  23
ENDBRANCH  20  22
ENDBRANCH   1  20
TORSDOF 5
ENDMDL
