MODEL 1
REMARK VINA RESULT:      70.5      0.000      0.000
REMARK  4 active torsions:
REMARK  status: ('A' for Active; 'I' for Inactive)
REMARK    1  A    between atoms: C_11  and  N_2 
REMARK    2  A    between atoms: C_12  and  C_6 
REMARK    3  A    between atoms: C_15  and  C_11 
REMARK    4  A    between atoms: O_29  and  C_24 
ROOT
ATOM      1  C   UNL d   1      14.086  14.826  -3.883  0.00  0.00     0.137 A 
ATOM      2  N   UNL d   1      13.890  13.549  -3.279  0.00  0.00    -0.256 N 
ATOM      3  C   UNL d   1      14.487  15.088  -3.207  0.00  0.00     0.192 A 
ATOM      4  C   UNL d   1      13.788  14.057  -3.919  0.00  0.00     0.272 A 
ATOM      5  N   UNL d   1      14.589  14.583  -2.570  0.00  0.00    -0.204 NA
ATOM      6  C   UNL d   1      14.290  13.807  -2.602  0.00  0.00     0.152 A 
ATOM      7  C   UNL d   1      13.985  15.338  -4.524  0.00  0.00     0.205 A 
ATOM      8  C   UNL d   1      14.278  16.097  -4.492  0.00  0.00     0.062 A 
ATOM      9  O   UNL d   1      14.781  15.854  -3.179  0.00  0.00    -0.289 OA
ATOM     10  C   UNL d   1      14.677  16.361  -3.821  0.00  0.00     0.107 A 
ATOM     11  C   UNL d   1      14.976  17.137  -3.790  0.00  0.00     0.049 A 
ATOM     12  C   UNL d   1      14.175  16.607  -5.136  0.00  0.00     0.007 A 
ATOM     13  O   UNL d   1      13.390  13.801  -4.593  0.00  0.00    -0.266 OA
ATOM     14  O   UNL d   1      13.586  15.074  -5.194  0.00  0.00    -0.286 OA
ATOM     15  C   UNL d   1      14.872  17.640  -4.431  0.00  0.00     0.096 A 
ATOM     16  C   UNL d   1      14.473  17.376  -5.101  0.00  0.00     0.024 A 
ENDROOT
BRANCH   6  17
ATOM     17  C   UNL d   1      14.394  13.301  -1.959  0.00  0.00     0.035 A 
ATOM     18  C   UNL d   1      14.263  12.493  -2.046  0.00  0.00     0.003 A 
ATOM     19  C   UNL d   1      14.370  11.999  -1.398  0.00  0.00     0.000 A 
ATOM     20  C   UNL d   1      14.605  12.302  -0.671  0.00  0.00     0.000 A 
ATOM     21  C   UNL d   1      14.735  13.115  -0.591  0.00  0.00     0.000 A 
ATOM     22  C   UNL d   1      14.709  11.800  -0.027  0.00  0.00     0.000 C 
ATOM     23  C   UNL d   1      14.630  13.616  -1.235  0.00  0.00     0.003 A 
ENDBRANCH   6  17
BRANCH   2  24
ATOM     24  C   UNL d   1      13.592  12.781  -3.315  0.00  0.00     0.109 C 
BRANCH  24  25
ATOM     25  C   UNL d   1      13.497  12.400  -4.053  0.00  0.00     0.118 A 
ATOM     26  O   UNL d   1      14.104  12.116  -4.532  0.00  0.00    -0.304 OA
ATOM     27  C   UNL d   1      13.757  11.779  -5.209  0.00  0.00     0.123 A 
ATOM     28  C   UNL d   1      12.929  11.858  -5.143  0.00  0.00     0.029 A 
ATOM     29  C   UNL d   1      12.769  12.246  -4.419  0.00  0.00     0.028 A 
ENDBRANCH  24  25
ENDBRANCH   2  24
BRANCH  15  30
ATOM     30  O   UNL d   1      15.162  18.403  -4.409  0.00  0.00    -0.328 OA
ATOM     31  C   UNL d   1      14.859  18.968  -4.926  0.00  0.00     0.181 C 
ENDBRANCH  15  30
TORSDOF 4
ENDMDL
