MODEL 1
REMARK VINA RESULT:      -3.7      0.000      0.000
REMARK  3 active torsions:
REMARK  status: ('A' for Active; 'I' for Inactive)
REMARK    1  A    between atoms: C_4  and  C_1 
REMARK       I    between atoms: N_7  and  C_4 
REMARK    2  A    between atoms: C_14  and  N_7 
REMARK    3  A    between atoms: C_9  and  C_10 
ROOT
ATOM      1  C   UNL d   1      32.559  21.735 -20.855  0.00  0.00     0.281 C 
ATOM      2  N   UNL d   1      33.240  21.462 -21.209  0.00  0.00    -0.208 NA
ATOM      3  O   UNL d   1      31.850  21.319 -20.936  0.00  0.00    -0.265 OA
ENDROOT
BRANCH   2   4
ATOM      4  C   UNL d   1      33.220  20.771 -21.647  0.00  0.00     0.085 A 
ATOM      5  C   UNL d   1      33.210  20.824 -22.488  0.00  0.00     0.019 A 
ATOM      6  C   UNL d   1      33.190  20.143 -22.942  0.00  0.00     0.005 A 
ATOM      7  C   UNL d   1      33.180  19.404 -22.586  0.00  0.00     0.039 A 
ATOM      8  C   UNL d   1      33.190  19.358 -21.755  0.00  0.00     0.005 A 
ATOM      9  C   UNL d   1      33.210  20.037 -21.298  0.00  0.00     0.019 A 
BRANCH   7  10
ATOM     10  C   UNL d   1      33.159  18.701 -23.054  0.00  0.00     0.196 C 
ATOM     11  O   UNL d   1      33.176  17.969 -22.710  0.00  0.00    -0.287 OA
ATOM     12  C   UNL d   1      33.121  18.758 -23.893  0.00  0.00     0.045 C 
ENDBRANCH   7  10
ENDBRANCH   2   4
BRANCH   1  13
ATOM     13  C   UNL d   1      32.551  22.434 -20.405  0.00  0.00     0.076 A 
ATOM     14  C   UNL d   1      32.193  23.133 -20.587  0.00  0.00     0.092 A 
ATOM     15  S   UNL d   1      32.324  23.695 -19.977  0.00  0.00    -0.064 SA
ATOM     16 CL   UNL d   1      31.745  23.279 -21.299  0.00  0.00    -0.075 Cl
ATOM     17  C   UNL d   1      32.757  23.341 -19.431  0.00  0.00     0.088 A 
ATOM     18  C   UNL d   1      32.912  22.553 -19.674  0.00  0.00     0.024 A 
ATOM     19 CL   UNL d   1      33.022  23.701 -18.712  0.00  0.00    -0.075 Cl
ENDBRANCH   1  13
TORSDOF 3
ENDMDL
MODEL 2
REMARK VINA RESULT:      -2.7      2.919      4.705
REMARK  3 active torsions:
REMARK  status: ('A' for Active; 'I' for Inactive)
REMARK    1  A    between atoms: C_4  and  C_1 
REMARK       I    between atoms: N_7  and  C_4 
REMARK    2  A    between atoms: C_14  and  N_7 
REMARK    3  A    between atoms: C_9  and  C_10 
ROOT
ATOM      1  C   UNL d   1      32.723  19.232 -22.830  0.00  0.00     0.281 C 
ATOM      2  N   UNL d   1      33.240  19.585 -22.310  0.00  0.00    -0.208 NA
ATOM      3  O   UNL d   1      32.002  19.592 -23.013  0.00  0.00    -0.265 OA
ENDROOT
BRANCH   2   4
ATOM      4  C   UNL d   1      33.044  20.302 -21.967  0.00  0.00     0.085 A 
ATOM      5  C   UNL d   1      33.219  21.014 -22.385  0.00  0.00     0.019 A 
ATOM      6  C   UNL d   1      33.029  21.739 -22.058  0.00  0.00     0.005 A 
ATOM      7  C   UNL d   1      32.668  21.784 -21.322  0.00  0.00     0.039 A 
ATOM      8  C   UNL d   1      32.497  21.078 -20.915  0.00  0.00     0.005 A 
ATOM      9  C   UNL d   1      32.685  20.351 -21.239  0.00  0.00     0.019 A 
BRANCH   7  10
ATOM     10  C   UNL d   1      32.472  22.533 -20.984  0.00  0.00     0.196 C 
ATOM     11  O   UNL d   1      31.706  22.792 -20.958  0.00  0.00    -0.287 OA
ATOM     12  C   UNL d   1      33.080  23.022 -20.668  0.00  0.00     0.045 C 
ENDBRANCH   7  10
ENDBRANCH   2   4
BRANCH   1  13
ATOM     13  C   UNL d   1      32.898  18.504 -23.192  0.00  0.00     0.076 A 
ATOM     14  C   UNL d   1      33.058  18.367 -23.970  0.00  0.00     0.092 A 
ATOM     15  S   UNL d   1      33.205  17.550 -24.098  0.00  0.00    -0.064 SA
ATOM     16 CL   UNL d   1      33.077  18.968 -24.576  0.00  0.00    -0.075 Cl
ATOM     17  C   UNL d   1      33.133  17.195 -23.405  0.00  0.00     0.088 A 
ATOM     18  C   UNL d   1      32.942  17.768 -22.823  0.00  0.00     0.024 A 
ATOM     19 CL   UNL d   1      33.234  16.365 -23.271  0.00  0.00    -0.075 Cl
ENDBRANCH   1  13
TORSDOF 3
ENDMDL
MODEL 3
REMARK VINA RESULT:      -2.3      1.327      1.958
REMARK  3 active torsions:
REMARK  status: ('A' for Active; 'I' for Inactive)
REMARK    1  A    between atoms: C_4  and  C_1 
REMARK       I    between atoms: N_7  and  C_4 
REMARK    2  A    between atoms: C_14  and  N_7 
REMARK    3  A    between atoms: C_9  and  C_10 
ROOT
ATOM      1  C   UNL d   1      32.695  20.733 -21.942  0.00  0.00     0.281 C 
ATOM      2  N   UNL d   1      33.241  20.370 -22.424  0.00  0.00    -0.208 NA
ATOM      3  O   UNL d   1      31.987  20.352 -21.750  0.00  0.00    -0.265 OA
ENDROOT
BRANCH   2   4
ATOM      4  C   UNL d   1      33.086  19.622 -22.720  0.00  0.00     0.085 A 
ATOM      5  C   UNL d   1      33.238  18.952 -22.232  0.00  0.00     0.019 A 
ATOM      6  C   UNL d   1      33.089  18.198 -22.511  0.00  0.00     0.005 A 
ATOM      7  C   UNL d   1      32.791  18.084 -23.267  0.00  0.00     0.039 A 
ATOM      8  C   UNL d   1      32.643  18.749 -23.745  0.00  0.00     0.005 A 
ATOM      9  C   UNL d   1      32.791  19.505 -23.469  0.00  0.00     0.019 A 
BRANCH   7  10
ATOM     10  C   UNL d   1      32.637  17.305 -23.556  0.00  0.00     0.196 C 
ATOM     11  O   UNL d   1      33.232  16.845 -23.854  0.00  0.00    -0.287 OA
ATOM     12  C   UNL d   1      31.853  16.998 -23.537  0.00  0.00     0.045 C 
ENDBRANCH   7  10
ENDBRANCH   2   4
BRANCH   1  13
ATOM     13  C   UNL d   1      32.827  21.492 -21.627  0.00  0.00     0.076 A 
ATOM     14  C   UNL d   1      32.950  21.691 -20.856  0.00  0.00     0.092 A 
ATOM     15  S   UNL d   1      33.060  22.520 -20.783  0.00  0.00    -0.064 SA
ATOM     16 CL   UNL d   1      32.965  21.135 -20.207  0.00  0.00    -0.075 Cl
ATOM     17  C   UNL d   1      33.004  22.821 -21.502  0.00  0.00     0.088 A 
ATOM     18  C   UNL d   1      32.859  22.200 -22.048  0.00  0.00     0.024 A 
ATOM     19 CL   UNL d   1      33.080  23.643 -21.692  0.00  0.00    -0.075 Cl
ENDBRANCH   1  13
TORSDOF 3
ENDMDL
MODEL 4
REMARK VINA RESULT:      -2.3      3.483      5.313
REMARK  3 active torsions:
REMARK  status: ('A' for Active; 'I' for Inactive)
REMARK    1  A    between atoms: C_4  and  C_1 
REMARK       I    between atoms: N_7  and  C_4 
REMARK    2  A    between atoms: C_14  and  N_7 
REMARK    3  A    between atoms: C_9  and  C_10 
ROOT
ATOM      1  C   UNL d   1      32.475  18.175 -23.469  0.00  0.00     0.281 C 
ATOM      2  N   UNL d   1      33.122  18.426 -23.045  0.00  0.00    -0.208 NA
ATOM      3  O   UNL d   1      31.843  18.687 -23.613  0.00  0.00    -0.265 OA
ENDROOT
BRANCH   2   4
ATOM      4  C   UNL d   1      33.145  19.193 -22.758  0.00  0.00     0.085 A 
ATOM      5  C   UNL d   1      33.090  19.317 -21.926  0.00  0.00     0.019 A 
ATOM      6  C   UNL d   1      33.111  20.077 -21.622  0.00  0.00     0.005 A 
ATOM      7  C   UNL d   1      33.187  20.724 -22.121  0.00  0.00     0.039 A 
ATOM      8  C   UNL d   1      33.241  20.595 -22.941  0.00  0.00     0.005 A 
ATOM      9  C   UNL d   1      33.220  19.837 -23.249  0.00  0.00     0.019 A 
BRANCH   7  10
ATOM     10  C   UNL d   1      33.209  21.509 -21.807  0.00  0.00     0.196 C 
ATOM     11  O   UNL d   1      33.237  22.153 -22.296  0.00  0.00    -0.287 OA
ATOM     12  C   UNL d   1      33.201  21.627 -20.974  0.00  0.00     0.045 C 
ENDBRANCH   7  10
ENDBRANCH   2   4
BRANCH   1  13
ATOM     13  C   UNL d   1      32.426  17.401 -23.772  0.00  0.00     0.076 A 
ATOM     14  C   UNL d   1      31.762  16.957 -23.882  0.00  0.00     0.092 A 
ATOM     15  S   UNL d   1      31.964  16.206 -24.200  0.00  0.00    -0.064 SA
ATOM     16 CL   UNL d   1      30.968  17.214 -23.700  0.00  0.00    -0.075 Cl
ATOM     17  C   UNL d   1      32.740  16.195 -24.283  0.00  0.00     0.088 A 
ATOM     18  C   UNL d   1      33.053  16.930 -24.022  0.00  0.00     0.024 A 
ATOM     19 CL   UNL d   1      33.188  15.544 -24.587  0.00  0.00    -0.075 Cl
ENDBRANCH   1  13
TORSDOF 3
ENDMDL
MODEL 5
REMARK VINA RESULT:      -0.8      2.056      4.694
REMARK  3 active torsions:
REMARK  status: ('A' for Active; 'I' for Inactive)
REMARK    1  A    between atoms: C_4  and  C_1 
REMARK       I    between atoms: N_7  and  C_4 
REMARK    2  A    between atoms: C_14  and  N_7 
REMARK    3  A    between atoms: C_9  and  C_10 
ROOT
ATOM      1  C   UNL d   1      32.793  21.835 -20.405  0.00  0.00     0.281 C 
ATOM      2  N   UNL d   1      33.217  22.452 -20.085  0.00  0.00    -0.208 NA
ATOM      3  O   UNL d   1      32.210  21.453 -19.961  0.00  0.00    -0.265 OA
ENDROOT
BRANCH   2   4
ATOM      4  C   UNL d   1      33.064  22.695 -19.319  0.00  0.00     0.085 A 
ATOM      5  C   UNL d   1      33.239  22.168 -18.683  0.00  0.00     0.019 A 
ATOM      6  C   UNL d   1      33.092  22.394 -17.911  0.00  0.00     0.005 A 
ATOM      7  C   UNL d   1      32.774  23.133 -17.745  0.00  0.00     0.039 A 
ATOM      8  C   UNL d   1      32.604  23.648 -18.376  0.00  0.00     0.005 A 
ATOM      9  C   UNL d   1      32.749  23.425 -19.150  0.00  0.00     0.019 A 
BRANCH   7  10
ATOM     10  C   UNL d   1      32.622  23.367 -16.947  0.00  0.00     0.196 C 
ATOM     11  O   UNL d   1      31.889  23.276 -16.617  0.00  0.00    -0.287 OA
ATOM     12  C   UNL d   1      33.241  23.700 -16.484  0.00  0.00     0.045 C 
ENDBRANCH   7  10
ENDBRANCH   2   4
BRANCH   1  13
ATOM     13  C   UNL d   1      32.928  21.568 -21.181  0.00  0.00     0.076 A 
ATOM     14  C   UNL d   1      33.067  22.015 -21.837  0.00  0.00     0.092 A 
ATOM     15  S   UNL d   1      33.175  21.521 -22.508  0.00  0.00    -0.064 SA
ATOM     16 CL   UNL d   1      33.100  22.868 -21.848  0.00  0.00    -0.075 Cl
ATOM     17  C   UNL d   1      33.102  20.783 -22.262  0.00  0.00     0.088 A 
ATOM     18  C   UNL d   1      32.947  20.785 -21.436  0.00  0.00     0.024 A 
ATOM     19 CL   UNL d   1      33.169  20.097 -22.753  0.00  0.00    -0.075 Cl
ENDBRANCH   1  13
TORSDOF 3
ENDMDL
