MODEL 1
REMARK VINA RESULT:       3.6      0.000      0.000
REMARK  4 active torsions:
REMARK  status: ('A' for Active; 'I' for Inactive)
REMARK    1  A    between atoms: S_6  and  C_1 
REMARK    2  A    between atoms: C_9  and  N_2 
REMARK    3  A    between atoms: C_15  and  S_6 
REMARK    4  A    between atoms: C_14  and  C_9 
ROOT
ATOM      1  C   UNL d   1      32.044  18.231 -23.936  0.00  0.00     0.145 A 
ATOM      2  N   UNL d   1      31.957  16.909 -23.869  0.00  0.00    -0.270 N 
ATOM      3  C   UNL d   1      31.282  18.018 -24.177  0.00  0.00     0.130 A 
ATOM      4  C   UNL d   1      32.462  17.547 -23.745  0.00  0.00     0.183 A 
ATOM      5  C   UNL d   1      31.227  17.195 -24.136  0.00  0.00     0.168 A 
ATOM      6  N   UNL d   1      30.635  18.462 -24.428  0.00  0.00    -0.240 NA
ATOM      7  N   UNL d   1      30.526  16.816 -24.345  0.00  0.00    -0.225 NA
ATOM      8  C   UNL d   1      29.933  18.084 -24.637  0.00  0.00     0.099 A 
ATOM      9  C   UNL d   1      29.879  17.261 -24.596  0.00  0.00     0.101 A 
ATOM     10  N   UNL d   1      33.241  17.496 -23.479  0.00  0.00    -0.128 N 
ATOM     11  C   UNL d   1      29.286  18.528 -24.888  0.00  0.00     0.021 A 
ATOM     12  C   UNL d   1      29.178  16.882 -24.805  0.00  0.00     0.021 A 
ATOM     13  C   UNL d   1      28.531  17.327 -25.055  0.00  0.00     0.002 A 
ATOM     14  C   UNL d   1      28.585  18.150 -25.097  0.00  0.00     0.002 A 
ENDROOT
BRANCH   1  15
ATOM     15  S   UNL d   1      32.332  19.004 -23.895  0.00  0.00     0.214 S 
ATOM     16  O   UNL d   1      32.285  18.744 -23.116  0.00  0.00    -0.217 OA
ATOM     17  O   UNL d   1      32.379  19.264 -24.678  0.00  0.00    -0.217 OA
BRANCH  15  18
ATOM     18  C   UNL d   1      32.620  19.774 -23.839  0.00  0.00     0.088 A 
ATOM     19  C   UNL d   1      32.564  20.094 -23.077  0.00  0.00     0.011 A 
ATOM     20  C   UNL d   1      32.832  20.867 -22.937  0.00  0.00     0.001 A 
ATOM     21  C   UNL d   1      33.154  21.314 -23.553  0.00  0.00     0.000 A 
ATOM     22  C   UNL d   1      33.208  20.991 -24.311  0.00  0.00     0.001 A 
ATOM     23  C   UNL d   1      32.941  20.221 -24.456  0.00  0.00     0.011 A 
ENDBRANCH  15  18
ENDBRANCH   1  15
BRANCH   2  24
ATOM     24  C   UNL d   1      32.141  16.112 -23.749  0.00  0.00     0.108 C 
BRANCH  24  25
ATOM     25  C   UNL d   1      32.379  15.854 -23.008  0.00  0.00     0.118 A 
ATOM     26  O   UNL d   1      31.888  15.705 -22.372  0.00  0.00    -0.304 OA
ATOM     27  C   UNL d   1      32.356  15.455 -21.735  0.00  0.00     0.123 A 
ATOM     28  C   UNL d   1      33.135  15.453 -21.987  0.00  0.00     0.029 A 
ATOM     29  C   UNL d   1      33.145  15.699 -22.773  0.00  0.00     0.028 A 
ENDBRANCH  24  25
ENDBRANCH   2  24
TORSDOF 4
ENDMDL
