MODEL 1
REMARK VINA RESULT:      50.2      0.000      0.000
REMARK  2 active torsions:
REMARK  status: ('A' for Active; 'I' for Inactive)
REMARK    1  A    between atoms: C_9  and  C_3 
REMARK    2  A    between atoms: C_8  and  C_4 
ROOT
ATOM      1  N   UNL d   1     -54.871-100.958 -38.983  0.00  0.00    -0.242 NA
ATOM      2  N   UNL d   1     -55.185-102.531 -38.606  0.00  0.00    -0.242 NA
ATOM      3  C   UNL d   1     -54.988-101.179 -38.198  0.00  0.00     0.099 A 
ATOM      4  C   UNL d   1     -55.144-101.960 -38.010  0.00  0.00     0.099 A 
ATOM      5  C   UNL d   1     -54.911-101.525 -39.576  0.00  0.00     0.101 A 
ATOM      6  C   UNL d   1     -55.067-102.306 -39.388  0.00  0.00     0.099 A 
ATOM      7  C   UNL d   1     -54.795-101.303 -40.358  0.00  0.00     0.042 A 
ATOM      8  C   UNL d   1     -55.109-102.876 -39.981  0.00  0.00     0.022 A 
ATOM      9  C   UNL d   1     -54.835-101.870 -40.953  0.00  0.00     0.104 A 
ATOM     10  N   UNL d   1     -54.719-101.647 -41.731  0.00  0.00    -0.148 N 
ATOM     11  C   UNL d   1     -54.991-102.652 -40.766  0.00  0.00     0.023 A 
ENDROOT
BRANCH   3  12
ATOM     12  C   UNL d   1     -54.947-100.613 -37.610  0.00  0.00     0.019 A 
ATOM     13  C   UNL d   1     -55.099 -99.815 -37.790  0.00  0.00     0.002 A 
ATOM     14  C   UNL d   1     -55.059 -99.236 -37.198  0.00  0.00     0.000 A 
ATOM     15  C   UNL d   1     -54.866 -99.453 -36.418  0.00  0.00     0.000 A 
ATOM     16  C   UNL d   1     -54.713-100.258 -36.243  0.00  0.00     0.000 A 
ATOM     17  C   UNL d   1     -54.755-100.829 -36.836  0.00  0.00     0.002 A 
ENDBRANCH   3  12
BRANCH   4  18
ATOM     18  C   UNL d   1     -55.261-102.186 -37.232  0.00  0.00     0.019 A 
ATOM     19  C   UNL d   1     -55.935-102.634 -37.031  0.00  0.00     0.002 A 
ATOM     20  C   UNL d   1     -56.059-102.866 -36.243  0.00  0.00     0.000 A 
ATOM     21  C   UNL d   1     -55.510-102.652 -35.652  0.00  0.00     0.000 A 
ATOM     22  C   UNL d   1     -54.838-102.205 -35.850  0.00  0.00     0.000 A 
ATOM     23  C   UNL d   1     -54.711-101.972 -36.641  0.00  0.00     0.002 A 
ENDBRANCH   4  18
TORSDOF 2
ENDMDL
