MODEL 1
REMARK VINA RESULT:      -4.2      0.000      0.000
REMARK  7 active torsions:
REMARK  status: ('A' for Active; 'I' for Inactive)
REMARK    1  A    between atoms: C_3  and  S_1 
REMARK    2  A    between atoms: N_4  and  S_1 
REMARK    3  A    between atoms: C_6  and  C_2 
REMARK       I    between atoms: N_13  and  C_6 
REMARK    4  A    between atoms: C_17  and  N_13 
REMARK    5  A    between atoms: C_18  and  C_17 
REMARK    6  A    between atoms: C_20  and  C_18 
REMARK    7  A    between atoms: C_19  and  C_20 
ROOT
ATOM      1  C   UNL d   1     -41.845-122.725 -51.406  0.00  0.00     0.086 A 
ATOM      2  C   UNL d   1     -41.688-122.810 -52.829  0.00  0.00     0.104 A 
ATOM      3  C   UNL d   1     -41.980-122.418 -52.165  0.00  0.00     0.020 A 
ATOM      4  C   UNL d   1     -41.418-123.422 -51.315  0.00  0.00     0.145 A 
ATOM      5  C   UNL d   1     -41.256-123.514 -52.737  0.00  0.00     0.015 A 
ATOM      6  C   UNL d   1     -41.123-123.817 -51.987  0.00  0.00     0.030 A 
ATOM      7  F   UNL d   1     -41.279-123.733 -50.569  0.00  0.00    -0.204 F 
ENDROOT
BRANCH   2   8
ATOM      8  S   UNL d   1     -41.823-122.502 -53.591  0.00  0.00     0.271 S 
ATOM      9  O   UNL d   1     -42.480-123.004 -53.662  0.00  0.00    -0.200 OA
ATOM     10  O   UNL d   1     -41.168-122.007 -53.507  0.00  0.00    -0.200 OA
BRANCH   8  11
ATOM     11  N   UNL d   1     -41.965-122.204 -54.343  0.00  0.00    -0.229 N 
ATOM     12  C   UNL d   1     -42.669-121.805 -54.498  0.00  0.00     0.092 A 
ATOM     13  C   UNL d   1     -42.807-121.508 -55.254  0.00  0.00     0.020 A 
ATOM     14  C   UNL d   1     -42.252-121.607 -55.849  0.00  0.00     0.003 A 
ATOM     15  C   UNL d   1     -41.547-122.007 -55.690  0.00  0.00     0.020 A 
ATOM     16  C   UNL d   1     -41.404-122.307 -54.933  0.00  0.00     0.092 A 
ENDBRANCH   8  11
ENDBRANCH   2   8
BRANCH   1  17
ATOM     17  C   UNL d   1     -42.141-122.327 -50.743  0.00  0.00     0.281 C 
ATOM     18  O   UNL d   1     -41.986-121.519 -50.654  0.00  0.00    -0.265 OA
ATOM     19  N   UNL d   1     -42.583-122.728 -50.178  0.00  0.00    -0.206 NA
BRANCH  19  20
ATOM     20  C   UNL d   1     -42.879-122.332 -49.515  0.00  0.00     0.102 C 
BRANCH  20  21
ATOM     21  C   UNL d   1     -43.202-122.754 -48.889  0.00  0.00     0.021 C 
BRANCH  21  22
ATOM     22  C   UNL d   1     -42.901-122.650 -48.132  0.00  0.00     0.002 C 
BRANCH  22  23
ATOM     23  C   UNL d   1     -42.920-123.275 -47.590  0.00  0.00     0.000 C 
ATOM     24  C   UNL d   1     -42.334-123.344 -47.017  0.00  0.00     0.000 C 
ENDBRANCH  22  23
ENDBRANCH  21  22
ENDBRANCH  20  21
ENDBRANCH  19  20
ENDBRANCH   1  17
TORSDOF 7
ENDMDL
MODEL 2
REMARK VINA RESULT:      -3.5      1.479      5.340
REMARK  7 active torsions:
REMARK  status: ('A' for Active; 'I' for Inactive)
REMARK    1  A    between atoms: C_3  and  S_1 
REMARK    2  A    between atoms: N_4  and  S_1 
REMARK    3  A    between atoms: C_6  and  C_2 
REMARK       I    between atoms: N_13  and  C_6 
REMARK    4  A    between atoms: C_17  and  N_13 
REMARK    5  A    between atoms: C_18  and  C_17 
REMARK    6  A    between atoms: C_20  and  C_18 
REMARK    7  A    between atoms: C_19  and  C_20 
ROOT
ATOM      1  C   UNL d   1     -41.461-122.499 -51.706  0.00  0.00     0.086 A 
ATOM      2  C   UNL d   1     -41.691-122.405 -50.293  0.00  0.00     0.104 A 
ATOM      3  C   UNL d   1     -41.651-122.857 -50.982  0.00  0.00     0.020 A 
ATOM      4  C   UNL d   1     -41.312-121.690 -51.737  0.00  0.00     0.145 A 
ATOM      5  C   UNL d   1     -41.540-121.589 -50.324  0.00  0.00     0.015 A 
ATOM      6  C   UNL d   1     -41.352-121.235 -51.039  0.00  0.00     0.030 A 
ATOM      7  F   UNL d   1     -41.123-121.327 -52.448  0.00  0.00    -0.204 F 
ENDROOT
BRANCH   2   8
ATOM      8  S   UNL d   1     -41.881-122.765 -49.567  0.00  0.00     0.271 S 
ATOM      9  O   UNL d   1     -42.614-122.376 -49.581  0.00  0.00    -0.200 OA
ATOM     10  O   UNL d   1     -41.150-123.147 -49.564  0.00  0.00    -0.200 OA
BRANCH   8  11
ATOM     11  N   UNL d   1     -42.078-123.116 -48.850  0.00  0.00    -0.229 N 
ATOM     12  C   UNL d   1     -41.502-123.208 -48.269  0.00  0.00     0.092 A 
ATOM     13  C   UNL d   1     -41.705-123.560 -47.552  0.00  0.00     0.020 A 
ATOM     14  C   UNL d   1     -42.470-123.817 -47.414  0.00  0.00     0.003 A 
ATOM     15  C   UNL d   1     -43.046-123.723 -48.000  0.00  0.00     0.020 A 
ATOM     16  C   UNL d   1     -42.847-123.370 -48.721  0.00  0.00     0.092 A 
ENDBRANCH   8  11
ENDBRANCH   2   8
BRANCH   1  17
ATOM     17  C   UNL d   1     -41.422-122.957 -52.394  0.00  0.00     0.281 C 
ATOM     18  O   UNL d   1     -41.380-123.781 -52.329  0.00  0.00    -0.265 OA
ATOM     19  N   UNL d   1     -41.426-122.600 -53.135  0.00  0.00    -0.206 NA
BRANCH  19  20
ATOM     20  C   UNL d   1     -41.387-123.056 -53.823  0.00  0.00     0.102 C 
BRANCH  20  21
ATOM     21  C   UNL d   1     -41.891-122.902 -54.453  0.00  0.00     0.021 C 
BRANCH  21  22
ATOM     22  C   UNL d   1     -41.651-122.393 -55.051  0.00  0.00     0.002 C 
BRANCH  22  23
ATOM     23  C   UNL d   1     -42.035-122.405 -55.783  0.00  0.00     0.000 C 
ATOM     24  C   UNL d   1     -42.662-121.893 -55.930  0.00  0.00     0.000 C 
ENDBRANCH  22  23
ENDBRANCH  21  22
ENDBRANCH  20  21
ENDBRANCH  19  20
ENDBRANCH   1  17
TORSDOF 7
ENDMDL
MODEL 3
REMARK VINA RESULT:      -1.9      1.087      1.399
REMARK  7 active torsions:
REMARK  status: ('A' for Active; 'I' for Inactive)
REMARK    1  A    between atoms: C_3  and  S_1 
REMARK    2  A    between atoms: N_4  and  S_1 
REMARK    3  A    between atoms: C_6  and  C_2 
REMARK       I    between atoms: N_13  and  C_6 
REMARK    4  A    between atoms: C_17  and  N_13 
REMARK    5  A    between atoms: C_18  and  C_17 
REMARK    6  A    between atoms: C_20  and  C_18 
REMARK    7  A    between atoms: C_19  and  C_20 
ROOT
ATOM      1  C   UNL d   1     -42.148-122.249 -50.881  0.00  0.00     0.086 A 
ATOM      2  C   UNL d   1     -41.762-122.099 -52.254  0.00  0.00     0.104 A 
ATOM      3  C   UNL d   1     -42.222-122.469 -51.678  0.00  0.00     0.020 A 
ATOM      4  C   UNL d   1     -41.616-121.661 -50.664  0.00  0.00     0.145 A 
ATOM      5  C   UNL d   1     -41.224-121.505 -52.036  0.00  0.00     0.015 A 
ATOM      6  C   UNL d   1     -41.151-121.288 -51.248  0.00  0.00     0.030 A 
ATOM      7  F   UNL d   1     -41.536-121.437 -49.879  0.00  0.00    -0.204 F 
ENDROOT
BRANCH   2   8
ATOM      8  S   UNL d   1     -41.836-122.320 -53.053  0.00  0.00     0.271 S 
ATOM      9  O   UNL d   1     -42.178-121.580 -53.212  0.00  0.00    -0.200 OA
ATOM     10  O   UNL d   1     -41.494-123.051 -52.883  0.00  0.00    -0.200 OA
BRANCH   8  11
ATOM     11  N   UNL d   1     -41.912-122.529 -53.845  0.00  0.00    -0.229 N 
ATOM     12  C   UNL d   1     -41.918-121.942 -54.423  0.00  0.00     0.092 A 
ATOM     13  C   UNL d   1     -41.995-122.156 -55.214  0.00  0.00     0.020 A 
ATOM     14  C   UNL d   1     -42.066-122.943 -55.429  0.00  0.00     0.003 A 
ATOM     15  C   UNL d   1     -42.060-123.529 -54.847  0.00  0.00     0.020 A 
ATOM     16  C   UNL d   1     -41.983-123.319 -54.050  0.00  0.00     0.092 A 
ENDBRANCH   8  11
ENDBRANCH   2   8
BRANCH   1  17
ATOM     17  C   UNL d   1     -42.612-122.624 -50.307  0.00  0.00     0.281 C 
ATOM     18  O   UNL d   1     -43.296-123.029 -50.540  0.00  0.00    -0.265 OA
ATOM     19  N   UNL d   1     -42.400-122.596 -49.513  0.00  0.00    -0.206 NA
BRANCH  19  20
ATOM     20  C   UNL d   1     -42.862-122.969 -48.939  0.00  0.00     0.102 C 
BRANCH  20  21
ATOM     21  C   UNL d   1     -42.508-123.388 -48.328  0.00  0.00     0.021 C 
BRANCH  21  22
ATOM     22  C   UNL d   1     -42.279-122.994 -47.644  0.00  0.00     0.002 C 
BRANCH  22  23
ATOM     23  C   UNL d   1     -41.808-123.378 -47.083  0.00  0.00     0.000 C 
ATOM     24  C   UNL d   1     -41.219-122.965 -46.684  0.00  0.00     0.000 C 
ENDBRANCH  22  23
ENDBRANCH  21  22
ENDBRANCH  20  21
ENDBRANCH  19  20
ENDBRANCH   1  17
TORSDOF 7
ENDMDL
