MODEL 1
REMARK VINA RESULT:      -6.9      0.000      0.000
REMARK  5 active torsions:
REMARK  status: ('A' for Active; 'I' for Inactive)
REMARK    1  A    between atoms: C_12  and  N_3 
REMARK    2  A    between atoms: C_10  and  N_7 
REMARK    3  A    between atoms: C_11  and  C_10 
REMARK    4  A    between atoms: C_15  and  C_11 
REMARK    5  A    between atoms: C_16  and  C_12 
ROOT
ATOM      1  C   UNL d   1     -41.307-122.866 -52.303  0.00  0.00     0.191 A 
ATOM      2  C   UNL d   1     -41.214-122.223 -51.781  0.00  0.00     0.196 A 
ATOM      3  N   UNL d   1     -41.275-122.564 -53.077  0.00  0.00    -0.191 N 
ATOM      4  N   UNL d   1     -41.406-123.621 -52.004  0.00  0.00    -0.204 NA
ATOM      5  N   UNL d   1     -41.126-121.539 -52.243  0.00  0.00    -0.122 NA
ATOM      6  N   UNL d   1     -41.165-121.756 -53.024  0.00  0.00    -0.058 NA
ATOM      7  N   UNL d   1     -41.321-123.113 -50.667  0.00  0.00    -0.251 N 
ATOM      8  C   UNL d   1     -41.222-122.353 -50.974  0.00  0.00     0.289 A 
ATOM      9  C   UNL d   1     -41.415-123.756 -51.190  0.00  0.00     0.187 A 
ATOM     10  O   UNL d   1     -41.128-121.710 -50.451  0.00  0.00    -0.265 OA
ENDROOT
BRANCH   7  11
ATOM     11  C   UNL d   1     -41.330-123.252 -49.848  0.00  0.00     0.127 C 
BRANCH  11  12
ATOM     12  C   UNL d   1     -42.011-123.560 -49.479  0.00  0.00     0.213 C 
ATOM     13  O   UNL d   1     -42.663-123.778 -49.937  0.00  0.00    -0.285 OA
BRANCH  12  14
ATOM     14  C   UNL d   1     -42.026-123.645 -48.663  0.00  0.00     0.041 A 
ATOM     15  C   UNL d   1     -41.320-123.733 -48.242  0.00  0.00     0.003 A 
ATOM     16  C   UNL d   1     -41.330-123.817 -47.432  0.00  0.00     0.000 A 
ATOM     17  C   UNL d   1     -42.053-123.814 -47.029  0.00  0.00     0.000 A 
ATOM     18  C   UNL d   1     -42.759-123.725 -47.449  0.00  0.00     0.000 A 
ATOM     19  C   UNL d   1     -42.748-123.641 -48.259  0.00  0.00     0.003 A 
ENDBRANCH  12  14
ENDBRANCH  11  12
ENDBRANCH   7  11
BRANCH   3  20
ATOM     20  C   UNL d   1     -41.344-123.006 -53.785  0.00  0.00     0.104 C 
BRANCH  20  21
ATOM     21  C   UNL d   1     -41.683-122.655 -54.460  0.00  0.00     0.019 A 
ATOM     22  C   UNL d   1     -42.502-122.646 -54.560  0.00  0.00     0.002 A 
ATOM     23  C   UNL d   1     -42.814-122.300 -55.225  0.00  0.00     0.000 A 
ATOM     24  C   UNL d   1     -42.341-121.962 -55.795  0.00  0.00     0.000 A 
ATOM     25  C   UNL d   1     -41.499-121.972 -55.692  0.00  0.00     0.000 A 
ATOM     26  C   UNL d   1     -41.182-122.321 -55.022  0.00  0.00     0.002 A 
ENDBRANCH  20  21
ENDBRANCH   3  20
TORSDOF 5
ENDMDL
MODEL 2
REMARK VINA RESULT:      -6.6      0.973      5.467
REMARK  5 active torsions:
REMARK  status: ('A' for Active; 'I' for Inactive)
REMARK    1  A    between atoms: C_12  and  N_3 
REMARK    2  A    between atoms: C_10  and  N_7 
REMARK    3  A    between atoms: C_11  and  C_10 
REMARK    4  A    between atoms: C_15  and  C_11 
REMARK    5  A    between atoms: C_16  and  C_12 
ROOT
ATOM      1  C   UNL d   1     -41.348-123.157 -50.847  0.00  0.00     0.191 A 
ATOM      2  C   UNL d   1     -41.292-122.364 -51.100  0.00  0.00     0.196 A 
ATOM      3  N   UNL d   1     -41.417-123.148 -50.019  0.00  0.00    -0.191 N 
ATOM      4  N   UNL d   1     -41.329-123.760 -51.398  0.00  0.00    -0.204 NA
ATOM      5  N   UNL d   1     -41.327-121.884 -50.423  0.00  0.00    -0.122 NA
ATOM      6  N   UNL d   1     -41.403-122.368 -49.776  0.00  0.00    -0.058 NA
ATOM      7  N   UNL d   1     -41.198-122.804 -52.456  0.00  0.00    -0.251 N 
ATOM      8  C   UNL d   1     -41.218-122.198 -51.897  0.00  0.00     0.289 A 
ATOM      9  C   UNL d   1     -41.254-123.597 -52.203  0.00  0.00     0.187 A 
ATOM     10  O   UNL d   1     -41.161-121.405 -52.150  0.00  0.00    -0.265 OA
ENDROOT
BRANCH   7  11
ATOM     11  C   UNL d   1     -41.123-122.643 -53.268  0.00  0.00     0.127 C 
BRANCH  11  12
ATOM     12  C   UNL d   1     -41.605-123.034 -53.824  0.00  0.00     0.213 C 
ATOM     13  O   UNL d   1     -41.861-123.805 -53.674  0.00  0.00    -0.285 OA
BRANCH  12  14
ATOM     14  C   UNL d   1     -41.822-122.648 -54.515  0.00  0.00     0.041 A 
ATOM     15  C   UNL d   1     -42.620-122.566 -54.712  0.00  0.00     0.003 A 
ATOM     16  C   UNL d   1     -42.839-122.184 -55.397  0.00  0.00     0.000 A 
ATOM     17  C   UNL d   1     -42.256-121.875 -55.898  0.00  0.00     0.000 A 
ATOM     18  C   UNL d   1     -41.458-121.956 -55.701  0.00  0.00     0.000 A 
ATOM     19  C   UNL d   1     -41.240-122.338 -55.016  0.00  0.00     0.003 A 
ENDBRANCH  12  14
ENDBRANCH  11  12
ENDBRANCH   7  11
BRANCH   3  20
ATOM     20  C   UNL d   1     -41.488-123.817 -49.520  0.00  0.00     0.104 C 
BRANCH  20  21
ATOM     21  C   UNL d   1     -41.799-123.730 -48.752  0.00  0.00     0.019 A 
ATOM     22  C   UNL d   1     -42.614-123.725 -48.628  0.00  0.00     0.002 A 
ATOM     23  C   UNL d   1     -42.897-123.639 -47.872  0.00  0.00     0.000 A 
ATOM     24  C   UNL d   1     -42.398-123.558 -47.233  0.00  0.00     0.000 A 
ATOM     25  C   UNL d   1     -41.560-123.563 -47.362  0.00  0.00     0.000 A 
ATOM     26  C   UNL d   1     -41.272-123.649 -48.124  0.00  0.00     0.002 A 
ENDBRANCH  20  21
ENDBRANCH   3  20
TORSDOF 5
ENDMDL
