MODEL 1
REMARK VINA RESULT:      44.4      0.000      0.000
REMARK  3 active torsions:
REMARK  status: ('A' for Active; 'I' for Inactive)
REMARK    1  A    between atoms: C_7  and  C_1 
REMARK    2  A    between atoms: C_10  and  N_2 
REMARK    3  A    between atoms: C_14  and  C_7 
ROOT
ATOM      1  C   UNL d   1      14.648  14.352  -1.615  0.00  0.00     0.155 A 
ATOM      2  N   UNL d   1      14.363  13.589  -1.777  0.00  0.00    -0.277 N 
ATOM      3  C   UNL d   1      14.003  13.443  -2.493  0.00  0.00     0.153 A 
ATOM      4  C   UNL d   1      13.923  14.051  -3.053  0.00  0.00     0.092 A 
ATOM      5  N   UNL d   1      14.568  14.958  -2.172  0.00  0.00    -0.190 NA
ATOM      6  C   UNL d   1      14.204  14.795  -2.886  0.00  0.00     0.283 A 
ATOM      7  N   UNL d   1      13.713  12.677  -2.664  0.00  0.00    -0.228 NA
ATOM      8  C   UNL d   1      13.553  13.888  -3.778  0.00  0.00     0.009 A 
ATOM      9  O   UNL d   1      14.121  15.398  -3.450  0.00  0.00    -0.265 OA
ATOM     10  C   UNL d   1      13.273  13.135  -3.935  0.00  0.00     0.019 A 
ATOM     11  C   UNL d   1      13.352  12.538  -3.385  0.00  0.00     0.083 A 
ATOM     12  C   UNL d   1      13.474  14.493  -4.334  0.00  0.00     0.000 C 
ATOM     13  C   UNL d   1      13.063  11.780  -3.558  0.00  0.00     0.021 C 
ENDROOT
BRANCH   2  14
ATOM     14  C   UNL d   1      14.442  12.989  -1.225  0.00  0.00     0.067 A 
ATOM     15  C   UNL d   1      15.124  12.547  -1.201  0.00  0.00     0.018 A 
ATOM     16  C   UNL d   1      15.203  11.940  -0.643  0.00  0.00     0.002 A 
ATOM     17  C   UNL d   1      14.601  11.780  -0.112  0.00  0.00     0.000 A 
ATOM     18  C   UNL d   1      13.905  12.238  -0.144  0.00  0.00     0.002 A 
ATOM     19  C   UNL d   1      13.826  12.839  -0.697  0.00  0.00     0.018 A 
ENDBRANCH   2  14
BRANCH   1  20
ATOM     20  C   UNL d   1      15.012  14.505  -0.895  0.00  0.00     0.080 C 
BRANCH  20  21
ATOM     21  C   UNL d   1      15.094  15.260  -0.572  0.00  0.00     0.199 C 
ATOM     22  O   UNL d   1      14.417  15.513  -0.041  0.00  0.00    -0.286 OA
ATOM     23  C   UNL d   1      15.916  15.925  -0.739  0.00  0.00     0.045 C 
ENDBRANCH  20  21
ENDBRANCH   1  20
TORSDOF 3
ENDMDL
