MODEL 1
REMARK VINA RESULT:      50.4      0.000      0.000
REMARK  3 active torsions:
REMARK  status: ('A' for Active; 'I' for Inactive)
REMARK    1  A    between atoms: N_6  and  C_1 
REMARK    2  A    between atoms: C_9  and  C_2 
REMARK       I    between atoms: C_8  and  N_6 
REMARK       I    between atoms: C_11  and  N_7 
REMARK    3  A    between atoms: C_17  and  C_8 
ROOT
ATOM      1  C   UNL d   1      13.814  13.721  -3.559  0.00  0.00     0.119 A 
ATOM      2  C   UNL d   1      13.632  12.926  -3.458  0.00  0.00     0.084 A 
ATOM      3  C   UNL d   1      14.225  13.357  -2.346  0.00  0.00     0.049 A 
ATOM      4  C   UNL d   1      13.888  12.698  -2.702  0.00  0.00     0.016 A 
ATOM      5  S   UNL d   1      14.183  13.992  -2.868  0.00  0.00    -0.066 SA
ATOM      6  N   UNL d   1      14.499  12.571  -1.174  0.00  0.00    -0.272 N 
ATOM      7  C   UNL d   1      14.533  13.286  -1.572  0.00  0.00     0.089 A 
ATOM      8  C   UNL d   1      14.801  12.495  -0.412  0.00  0.00     0.265 C 
ATOM      9  C   UNL d   1      13.849  11.973  -2.309  0.00  0.00     0.020 A 
ATOM     10  C   UNL d   1      14.155  11.909  -1.546  0.00  0.00     0.083 A 
ATOM     11  O   UNL d   1      15.141  13.150  -0.044  0.00  0.00    -0.267 OA
ATOM     12  C   UNL d   1      14.767  11.779  -0.014  0.00  0.00     0.066 C 
ENDROOT
BRANCH   1  13
ATOM     13  N   UNL d   1      13.658  14.182  -4.235  0.00  0.00    -0.201 NA
ATOM     14  C   UNL d   1      13.850  14.986  -4.229  0.00  0.00     0.280 C 
ATOM     15  O   UNL d   1      14.193  15.339  -3.569  0.00  0.00    -0.265 OA
BRANCH  14  16
ATOM     16  C   UNL d   1      13.696  15.443  -4.898  0.00  0.00     0.058 A 
ATOM     17  C   UNL d   1      14.297  15.587  -5.448  0.00  0.00     0.005 A 
ATOM     18  C   UNL d   1      14.143  16.044  -6.117  0.00  0.00     0.000 A 
ATOM     19  C   UNL d   1      13.384  16.363  -6.248  0.00  0.00     0.000 A 
ATOM     20  C   UNL d   1      12.793  16.211  -5.691  0.00  0.00     0.000 A 
ATOM     21  C   UNL d   1      12.948  15.755  -5.022  0.00  0.00     0.005 A 
ENDBRANCH  14  16
ENDBRANCH   1  13
BRANCH   2  22
ATOM     22  C   UNL d   1      13.262  12.450  -4.015  0.00  0.00     0.299 C 
ATOM     23  O   UNL d   1      13.364  12.615  -4.818  0.00  0.00    -0.264 OA
ATOM     24  N   UNL d   1      12.793  11.815  -3.779  0.00  0.00    -0.102 N 
ENDBRANCH   2  22
TORSDOF 3
ENDMDL
MODEL 2
REMARK VINA RESULT:      53.0      1.081      4.552
REMARK  3 active torsions:
REMARK  status: ('A' for Active; 'I' for Inactive)
REMARK    1  A    between atoms: N_6  and  C_1 
REMARK    2  A    between atoms: C_9  and  C_2 
REMARK       I    between atoms: C_8  and  N_6 
REMARK       I    between atoms: C_11  and  N_7 
REMARK    3  A    between atoms: C_17  and  C_8 
ROOT
ATOM      1  C   UNL d   1      13.807  13.450  -3.208  0.00  0.00     0.119 A 
ATOM      2  C   UNL d   1      13.467  13.206  -3.915  0.00  0.00     0.084 A 
ATOM      3  C   UNL d   1      13.730  14.508  -4.013  0.00  0.00     0.049 A 
ATOM      4  C   UNL d   1      13.418  13.864  -4.417  0.00  0.00     0.016 A 
ATOM      5  S   UNL d   1      13.972  14.259  -3.266  0.00  0.00    -0.066 SA
ATOM      6  N   UNL d   1      13.465  15.341  -5.153  0.00  0.00    -0.272 N 
ATOM      7  C   UNL d   1      13.751  15.254  -4.390  0.00  0.00     0.089 A 
ATOM      8  C   UNL d   1      13.483  16.073  -5.530  0.00  0.00     0.265 C 
ATOM      9  C   UNL d   1      13.128  13.944  -5.186  0.00  0.00     0.020 A 
ATOM     10  C   UNL d   1      13.151  14.682  -5.553  0.00  0.00     0.083 A 
ATOM     11  O   UNL d   1      13.794  16.726  -5.133  0.00  0.00    -0.267 OA
ATOM     12  C   UNL d   1      13.197  16.162  -6.293  0.00  0.00     0.066 C 
ENDROOT
BRANCH   1  13
ATOM     13  N   UNL d   1      13.963  12.972  -2.544  0.00  0.00    -0.201 NA
ATOM     14  C   UNL d   1      14.537  13.212  -1.999  0.00  0.00     0.280 C 
ATOM     15  O   UNL d   1      14.956  13.913  -2.100  0.00  0.00    -0.265 OA
BRANCH  14  16
ATOM     16  C   UNL d   1      14.691  12.739  -1.341  0.00  0.00     0.058 A 
ATOM     17  C   UNL d   1      14.160  12.728  -0.706  0.00  0.00     0.005 A 
ATOM     18  C   UNL d   1      14.314  12.255  -0.049  0.00  0.00     0.000 A 
ATOM     19  C   UNL d   1      15.002  11.785  -0.015  0.00  0.00     0.000 A 
ATOM     20  C   UNL d   1      15.524  11.806  -0.655  0.00  0.00     0.000 A 
ATOM     21  C   UNL d   1      15.369  12.279  -1.313  0.00  0.00     0.005 A 
ENDBRANCH  14  16
ENDBRANCH   1  13
BRANCH   2  22
ATOM     22  C   UNL d   1      13.221  12.441  -4.084  0.00  0.00     0.299 C 
ATOM     23  O   UNL d   1      12.783  12.025  -3.521  0.00  0.00    -0.264 OA
ATOM     24  N   UNL d   1      13.409  12.090  -4.806  0.00  0.00    -0.102 N 
ENDBRANCH   2  22
TORSDOF 3
ENDMDL
