MODEL 1
REMARK VINA RESULT:      72.0      0.000      0.000
REMARK  5 active torsions:
REMARK  status: ('A' for Active; 'I' for Inactive)
REMARK    1  A    between atoms: S_9  and  C_2 
REMARK    2  A    between atoms: C_19  and  S_9 
REMARK    3  A    between atoms: C_11  and  C_19 
REMARK       I    between atoms: N_16  and  C_11 
REMARK    4  A    between atoms: C_22  and  N_16 
REMARK    5  A    between atoms: C_21  and  C_22 
ROOT
ATOM      1  C   UNL d   1      58.507  49.663  51.237  0.00  0.00     0.092 A 
ATOM      2  C   UNL d   1      59.114  49.656  50.668  0.00  0.00     0.120 A 
ATOM      3  N   UNL d   1      58.922  49.663  49.873  0.00  0.00    -0.238 NA
ATOM      4  C   UNL d   1      57.711  49.678  51.010  0.00  0.00     0.013 A 
ATOM      5  C   UNL d   1      57.531  49.685  50.197  0.00  0.00     0.018 A 
ATOM      6  C   UNL d   1      58.131  49.678  49.633  0.00  0.00     0.082 A 
ATOM      7  C   UNL d   1      58.702  49.656  52.047  0.00  0.00     0.103 C 
ATOM      8  N   UNL d   1      58.886  49.649  52.852  0.00  0.00    -0.191 NA
ATOM      9  C   UNL d   1      57.110  49.685  51.574  0.00  0.00     0.001 A 
ATOM     10  C   UNL d   1      56.735  49.700  49.957  0.00  0.00     0.002 A 
ATOM     11  C   UNL d   1      57.944  49.685  48.832  0.00  0.00     0.021 C 
ATOM     12  C   UNL d   1      56.323  49.699  51.337  0.00  0.00     0.000 A 
ATOM     13  C   UNL d   1      56.127  49.707  50.527  0.00  0.00     0.000 A 
ENDROOT
BRANCH   2  14
ATOM     14  S   UNL d   1      59.907  49.642  50.911  0.00  0.00    -0.062 SA
BRANCH  14  15
ATOM     15  C   UNL d   1      60.509  49.707  50.348  0.00  0.00     0.099 C 
BRANCH  15  16
ATOM     16  C   UNL d   1      61.159  49.204  50.385  0.00  0.00     0.286 C 
ATOM     17  N   UNL d   1      61.075  48.449  50.712  0.00  0.00    -0.206 NA
ATOM     18  O   UNL d   1      61.895  49.451  50.097  0.00  0.00    -0.265 OA
BRANCH  17  19
ATOM     19  C   UNL d   1      61.723  47.936  50.754  0.00  0.00     0.102 C 
BRANCH  19  20
ATOM     20  C   UNL d   1      61.672  47.178  50.429  0.00  0.00     0.021 A 
ATOM     21  C   UNL d   1      61.134  46.639  50.732  0.00  0.00     0.028 A 
ATOM     22  C   UNL d   1      61.084  45.883  50.407  0.00  0.00     0.119 A 
ATOM     23  O   UNL d   1      60.607  45.238  50.593  0.00  0.00    -0.300 OA
ATOM     24  C   UNL d   1      61.568  45.672  49.786  0.00  0.00     0.119 A 
ATOM     25  C   UNL d   1      60.802  44.623  50.079  0.00  0.00     0.304 A 
ATOM     26  O   UNL d   1      61.398  44.892  49.578  0.00  0.00    -0.300 OA
ATOM     27  C   UNL d   1      62.118  46.224  49.477  0.00  0.00     0.026 A 
ATOM     28  C   UNL d   1      62.160  46.975  49.808  0.00  0.00     0.004 A 
ENDBRANCH  19  20
ENDBRANCH  17  19
ENDBRANCH  15  16
ENDBRANCH  14  15
ENDBRANCH   2  14
TORSDOF 5
ENDMDL
