MODEL 1
REMARK VINA RESULT:      63.2      0.000      0.000
REMARK  5 active torsions:
REMARK  status: ('A' for Active; 'I' for Inactive)
REMARK    1  A    between atoms: O_8  and  C_2 
REMARK    2  A    between atoms: C_9  and  C_5 
REMARK    3  A    between atoms: C_14  and  O_8 
REMARK    4  A    between atoms: N_11  and  C_9 
REMARK    5  A    between atoms: O_20  and  C_17 
ROOT
ATOM      1  C   UNL d   1     -57.920 -98.857 -45.517  0.00  0.00     0.108 A 
ATOM      2  C   UNL d   1     -56.653 -98.910 -44.439  0.00  0.00     0.161 A 
ATOM      3  C   UNL d   1     -58.070 -98.930 -44.695  0.00  0.00     0.064 A 
ATOM      4  C   UNL d   1     -57.436 -98.957 -44.160  0.00  0.00     0.222 A 
ATOM      5  C   UNL d   1     -58.542 -98.830 -46.046  0.00  0.00     0.079 A 
ATOM      6  O   UNL d   1     -57.137 -98.810 -45.792  0.00  0.00    -0.305 OA
ATOM      7  C   UNL d   1     -56.504 -98.837 -45.253  0.00  0.00     0.126 A 
ATOM      8  C   UNL d   1     -58.850 -98.975 -44.436  0.00  0.00     0.009 A 
ATOM      9  C   UNL d   1     -59.318 -98.875 -45.782  0.00  0.00     0.199 A 
ATOM     10  O   UNL d   1     -57.585 -99.030 -43.349  0.00  0.00    -0.284 OA
ATOM     11  C   UNL d   1     -59.471 -98.948 -44.973  0.00  0.00     0.042 A 
ATOM     12  O   UNL d   1     -59.943 -98.848 -46.320  0.00  0.00    -0.286 OA
ATOM     13  C   UNL d   1     -55.725 -98.791 -45.532  0.00  0.00     0.029 C 
ENDROOT
BRANCH   2  14
ATOM     14  O   UNL d   1     -56.028 -98.938 -43.901  0.00  0.00    -0.302 OA
BRANCH  14  15
ATOM     15  C   UNL d   1     -55.608 -99.638 -43.778  0.00  0.00     0.102 A 
ATOM     16  C   UNL d   1     -55.375-100.092 -44.418  0.00  0.00     0.049 A 
ATOM     17  C   UNL d   1     -54.955-100.793 -44.292  0.00  0.00     0.096 A 
ATOM     18  C   UNL d   1     -54.770-101.036 -43.521  0.00  0.00     0.024 A 
ATOM     19  C   UNL d   1     -55.009-100.571 -42.879  0.00  0.00     0.004 A 
ATOM     20  C   UNL d   1     -55.427 -99.875 -43.009  0.00  0.00     0.025 A 
BRANCH  17  21
ATOM     21  O   UNL d   1     -54.722-101.247 -44.933  0.00  0.00    -0.328 OA
ATOM     22  C   UNL d   1     -54.749-102.073 -44.892  0.00  0.00     0.181 C 
ENDBRANCH  17  21
ENDBRANCH  14  15
ENDBRANCH   2  14
BRANCH   5  23
ATOM     23  C   UNL d   1     -58.392 -98.758 -46.843  0.00  0.00     0.085 C 
BRANCH  23  24
ATOM     24  N   UNL d   1     -58.893 -98.968 -47.451  0.00  0.00    -0.302 N 
ATOM     25  C   UNL d   1     -59.679 -98.768 -47.516  0.00  0.00     0.080 A 
ATOM     26  C   UNL d   1     -59.960 -99.089 -48.197  0.00  0.00     0.021 A 
ATOM     27  C   UNL d   1     -59.367 -99.482 -48.555  0.00  0.00     0.021 A 
ATOM     28  C   UNL d   1     -58.694 -99.410 -48.091  0.00  0.00     0.080 A 
ENDBRANCH  23  24
ENDBRANCH   5  23
TORSDOF 5
ENDMDL
