MODEL 1
REMARK VINA RESULT:      17.4      0.000      0.000
REMARK  9 active torsions:
REMARK  status: ('A' for Active; 'I' for Inactive)
REMARK    1  A    between atoms: N_4  and  C_1 
REMARK       I    between atoms: C_7  and  N_4 
REMARK    2  A    between atoms: C_13  and  C_7 
REMARK    3  A    between atoms: C_8  and  C_14 
REMARK    4  A    between atoms: O_12  and  C_8 
REMARK    5  A    between atoms: S_11  and  C_13 
REMARK    6  A    between atoms: C_14  and  S_11 
REMARK    7  A    between atoms: C_16  and  O_12 
REMARK    8  A    between atoms: C_17  and  C_16 
REMARK    9  A    between atoms: C_18  and  C_17 
ROOT
ATOM      1  C   UNL d   1      14.895  12.751  -0.376  0.00  0.00     0.127 C 
ENDROOT
BRANCH   1   2
ATOM      2  S   UNL d   1      15.131  13.455  -0.015  0.00  0.00    -0.089 SA
BRANCH   2   3
ATOM      3  C   UNL d   1      14.698  14.146  -0.137  0.00  0.00     0.103 C 
BRANCH   3   4
ATOM      4  C   UNL d   1      15.085  14.860  -0.259  0.00  0.00     0.307 C 
ATOM      5  O   UNL d   1      15.862  14.955  -0.014  0.00  0.00    -0.258 OA
BRANCH   4   6
ATOM      6  O   UNL d   1      14.690  15.475  -0.626  0.00  0.00    -0.271 OA
BRANCH   6   7
ATOM      7  C   UNL d   1      14.926  15.734  -1.373  0.00  0.00     0.126 C 
BRANCH   7   8
ATOM      8  C   UNL d   1      15.178  16.513  -1.479  0.00  0.00     0.027 C 
BRANCH   8   9
ATOM      9  C   UNL d   1      15.305  16.805  -2.240  0.00  0.00     0.002 C 
ATOM     10  C   UNL d   1      14.745  16.702  -2.821  0.00  0.00     0.000 C 
ENDBRANCH   8   9
ENDBRANCH   7   8
ENDBRANCH   6   7
ENDBRANCH   4   6
ENDBRANCH   3   4
ENDBRANCH   2   3
ENDBRANCH   1   2
BRANCH   1  11
ATOM     11  C   UNL d   1      15.458  12.247  -0.707  0.00  0.00     0.275 C 
ATOM     12  N   UNL d   1      15.258  11.780  -1.348  0.00  0.00    -0.187 NA
ATOM     13  O   UNL d   1      16.219  12.215  -0.391  0.00  0.00    -0.266 OA
BRANCH  12  14
ATOM     14  C   UNL d   1      14.497  11.812  -1.664  0.00  0.00     0.194 A 
ATOM     15  N   UNL d   1      13.795  11.814  -1.231  0.00  0.00    -0.107 NA
ATOM     16  O   UNL d   1      13.171  11.851  -1.768  0.00  0.00    -0.210 OA
ATOM     17  C   UNL d   1      13.471  11.872  -2.526  0.00  0.00     0.128 A 
ATOM     18  C   UNL d   1      14.295  11.849  -2.467  0.00  0.00     0.068 A 
ATOM     19  C   UNL d   1      13.024  11.911  -3.228  0.00  0.00     0.029 C 
ENDBRANCH  12  14
ENDBRANCH   1  11
TORSDOF 9
ENDMDL
MODEL 2
REMARK VINA RESULT:      19.3      1.883      2.834
REMARK  9 active torsions:
REMARK  status: ('A' for Active; 'I' for Inactive)
REMARK    1  A    between atoms: N_4  and  C_1 
REMARK       I    between atoms: C_7  and  N_4 
REMARK    2  A    between atoms: C_13  and  C_7 
REMARK    3  A    between atoms: C_8  and  C_14 
REMARK    4  A    between atoms: O_12  and  C_8 
REMARK    5  A    between atoms: S_11  and  C_13 
REMARK    6  A    between atoms: C_14  and  S_11 
REMARK    7  A    between atoms: C_16  and  O_12 
REMARK    8  A    between atoms: C_17  and  C_16 
REMARK    9  A    between atoms: C_18  and  C_17 
ROOT
ATOM      1  C   UNL d   1      13.703  13.172  -3.274  0.00  0.00     0.127 C 
ENDROOT
BRANCH   1   2
ATOM      2  S   UNL d   1      13.539  13.857  -3.704  0.00  0.00    -0.089 SA
BRANCH   2   3
ATOM      3  C   UNL d   1      14.108  14.451  -3.765  0.00  0.00     0.103 C 
BRANCH   3   4
ATOM      4  C   UNL d   1      13.901  15.236  -3.641  0.00  0.00     0.307 C 
ATOM      5  O   UNL d   1      13.127  15.481  -3.756  0.00  0.00    -0.258 OA
BRANCH   4   6
ATOM      6  O   UNL d   1      14.472  15.770  -3.403  0.00  0.00    -0.271 OA
BRANCH   6   7
ATOM      7  C   UNL d   1      14.694  15.817  -2.609  0.00  0.00     0.126 C 
BRANCH   7   8
ATOM      8  C   UNL d   1      14.827  16.553  -2.261  0.00  0.00     0.027 C 
BRANCH   8   9
ATOM      9  C   UNL d   1      15.370  16.624  -1.644  0.00  0.00     0.002 C 
ATOM     10  C   UNL d   1      15.131  16.886  -0.911  0.00  0.00     0.000 C 
ENDBRANCH   8   9
ENDBRANCH   7   8
ENDBRANCH   6   7
ENDBRANCH   4   6
ENDBRANCH   3   4
ENDBRANCH   2   3
ENDBRANCH   1   2
BRANCH   1  11
ATOM     11  C   UNL d   1      13.404  12.445  -3.525  0.00  0.00     0.275 C 
ATOM     12  N   UNL d   1      13.510  11.781  -3.060  0.00  0.00    -0.187 NA
ATOM     13  O   UNL d   1      13.001  12.390  -4.242  0.00  0.00    -0.266 OA
BRANCH  12  14
ATOM     14  C   UNL d   1      13.914  11.835  -2.343  0.00  0.00     0.194 A 
ATOM     15  N   UNL d   1      14.728  11.932  -2.254  0.00  0.00    -0.107 NA
ATOM     16  O   UNL d   1      14.889  11.959  -1.446  0.00  0.00    -0.210 OA
ATOM     17  C   UNL d   1      14.191  11.880  -1.032  0.00  0.00     0.128 A 
ATOM     18  C   UNL d   1      13.581  11.803  -1.584  0.00  0.00     0.068 A 
ATOM     19  C   UNL d   1      14.113  11.878  -0.202  0.00  0.00     0.029 C 
ENDBRANCH  12  14
ENDBRANCH   1  11
TORSDOF 9
ENDMDL
MODEL 3
REMARK VINA RESULT:      19.5      1.871      3.447
REMARK  9 active torsions:
REMARK  status: ('A' for Active; 'I' for Inactive)
REMARK    1  A    between atoms: N_4  and  C_1 
REMARK       I    between atoms: C_7  and  N_4 
REMARK    2  A    between atoms: C_13  and  C_7 
REMARK    3  A    between atoms: C_8  and  C_14 
REMARK    4  A    between atoms: O_12  and  C_8 
REMARK    5  A    between atoms: S_11  and  C_13 
REMARK    6  A    between atoms: C_14  and  S_11 
REMARK    7  A    between atoms: C_16  and  O_12 
REMARK    8  A    between atoms: C_17  and  C_16 
REMARK    9  A    between atoms: C_18  and  C_17 
ROOT
ATOM      1  C   UNL d   1      14.890  14.534  -1.437  0.00  0.00     0.127 C 
ENDROOT
BRANCH   1   2
ATOM      2  S   UNL d   1      14.534  14.936  -2.064  0.00  0.00    -0.089 SA
BRANCH   2   3
ATOM      3  C   UNL d   1      14.396  14.547  -2.778  0.00  0.00     0.103 C 
BRANCH   3   4
ATOM      4  C   UNL d   1      14.011  14.933  -3.392  0.00  0.00     0.307 C 
ATOM      5  O   UNL d   1      14.176  15.721  -3.551  0.00  0.00    -0.258 OA
BRANCH   4   6
ATOM      6  O   UNL d   1      13.463  14.527  -3.843  0.00  0.00    -0.271 OA
BRANCH   6   7
ATOM      7  C   UNL d   1      13.615  13.754  -4.087  0.00  0.00     0.126 C 
BRANCH   7   8
ATOM      8  C   UNL d   1      12.994  13.270  -4.334  0.00  0.00     0.027 C 
BRANCH   8   9
ATOM      9  C   UNL d   1      13.081  12.449  -4.319  0.00  0.00     0.002 C 
ATOM     10  C   UNL d   1      12.769  11.990  -4.913  0.00  0.00     0.000 C 
ENDBRANCH   8   9
ENDBRANCH   7   8
ENDBRANCH   6   7
ENDBRANCH   4   6
ENDBRANCH   3   4
ENDBRANCH   2   3
ENDBRANCH   1   2
BRANCH   1  11
ATOM     11  C   UNL d   1      14.963  14.898  -0.701  0.00  0.00     0.275 C 
ATOM     12  N   UNL d   1      14.924  14.448  -0.019  0.00  0.00    -0.187 NA
ATOM     13  O   UNL d   1      15.075  15.714  -0.654  0.00  0.00    -0.266 OA
BRANCH  12  14
ATOM     14  C   UNL d   1      14.812  13.632  -0.066  0.00  0.00     0.194 A 
ATOM     15  N   UNL d   1      15.405  13.069  -0.173  0.00  0.00    -0.107 NA
ATOM     16  O   UNL d   1      15.045  12.328  -0.187  0.00  0.00    -0.210 OA
ATOM     17  C   UNL d   1      14.241  12.419  -0.091  0.00  0.00     0.128 A 
ATOM     18  C   UNL d   1      14.090  13.228  -0.015  0.00  0.00     0.068 A 
ATOM     19  C   UNL d   1      13.678  11.805  -0.073  0.00  0.00     0.029 C 
ENDBRANCH  12  14
ENDBRANCH   1  11
TORSDOF 9
ENDMDL
