MODEL 1
REMARK VINA RESULT:      -9.2      0.000      0.000
REMARK  2 active torsions:
REMARK  status: ('A' for Active; 'I' for Inactive)
REMARK    1  A    between atoms: S_12  and  C_3 
REMARK    2  A    between atoms: C_14  and  S_12 
ROOT
ATOM      1  N   UNL d   1     -45.122  10.836  23.691  0.00  0.00    -0.195 NA
ATOM      2  C   UNL d   1     -45.916  11.052  23.691  0.00  0.00     0.086 C 
ATOM      3  C   UNL d   1     -46.716  11.257  23.696  0.00  0.00     0.170 C 
ENDROOT
BRANCH   3   4
ATOM      4  S   UNL d   1     -46.936  12.022  23.479  0.00  0.00    -0.060 SA
BRANCH   4   5
ATOM      5  C   UNL d   1     -47.738  12.219  23.418  0.00  0.00     0.177 A 
ATOM      6  N   UNL d   1     -47.958  12.979  23.186  0.00  0.00    -0.270 N 
ATOM      7  C   UNL d   1     -48.752  13.186  23.122  0.00  0.00     0.151 A 
ATOM      8  C   UNL d   1     -47.514  13.650  22.982  0.00  0.00     0.085 A 
ATOM      9  N   UNL d   1     -48.805  13.969  22.883  0.00  0.00    -0.227 NA
ATOM     10  C   UNL d   1     -49.327  12.616  23.295  0.00  0.00     0.052 A 
ATOM     11  C   UNL d   1     -48.039  14.259  22.795  0.00  0.00     0.099 A 
ATOM     12  C   UNL d   1     -47.750  14.995  22.571  0.00  0.00     0.021 A 
ATOM     13  C   UNL d   1     -46.936  15.120  22.534  0.00  0.00     0.002 A 
ATOM     14  C   UNL d   1     -46.411  14.512  22.720  0.00  0.00     0.002 A 
ATOM     15  C   UNL d   1     -46.703  13.777  22.944  0.00  0.00     0.019 A 
ATOM     16  C   UNL d   1     -50.124  12.815  23.233  0.00  0.00     0.004 A 
ATOM     17  C   UNL d   1     -49.107  11.856  23.527  0.00  0.00     0.086 A 
ATOM     18  C   UNL d   1     -50.706  12.251  23.405  0.00  0.00     0.000 A 
ATOM     19  C   UNL d   1     -50.487  11.491  23.637  0.00  0.00     0.002 A 
ATOM     20  C   UNL d   1     -49.685  11.294  23.698  0.00  0.00     0.019 A 
ATOM     21  N   UNL d   1     -48.310  11.658  23.589  0.00  0.00    -0.222 NA
ENDBRANCH   4   5
ENDBRANCH   3   4
TORSDOF 2
ENDMDL
MODEL 2
REMARK VINA RESULT:      -8.4      1.368      3.160
REMARK  2 active torsions:
REMARK  status: ('A' for Active; 'I' for Inactive)
REMARK    1  A    between atoms: S_12  and  C_3 
REMARK    2  A    between atoms: C_14  and  S_12 
ROOT
ATOM      1  N   UNL d   1     -50.706  11.048  23.698  0.00  0.00    -0.195 NA
ATOM      2  C   UNL d   1     -50.000  11.447  23.554  0.00  0.00     0.086 C 
ATOM      3  C   UNL d   1     -49.286  11.836  23.411  0.00  0.00     0.170 C 
ENDROOT
BRANCH   3   4
ATOM      4  S   UNL d   1     -49.292  12.650  23.278  0.00  0.00    -0.060 SA
BRANCH   4   5
ATOM      5  C   UNL d   1     -48.584  13.045  23.109  0.00  0.00     0.177 A 
ATOM      6  N   UNL d   1     -48.584  13.864  23.011  0.00  0.00    -0.270 N 
ATOM      7  C   UNL d   1     -47.886  14.268  22.843  0.00  0.00     0.151 A 
ATOM      8  C   UNL d   1     -49.189  14.431  23.048  0.00  0.00     0.085 A 
ATOM      9  N   UNL d   1     -48.051  15.069  22.776  0.00  0.00    -0.227 NA
ATOM     10  C   UNL d   1     -47.184  13.836  22.773  0.00  0.00     0.052 A 
ATOM     11  C   UNL d   1     -48.858  15.173  22.903  0.00  0.00     0.099 A 
ATOM     12  C   UNL d   1     -49.335  15.842  22.906  0.00  0.00     0.021 A 
ATOM     13  C   UNL d   1     -50.142  15.768  23.054  0.00  0.00     0.002 A 
ATOM     14  C   UNL d   1     -50.474  15.027  23.199  0.00  0.00     0.002 A 
ATOM     15  C   UNL d   1     -49.995  14.359  23.196  0.00  0.00     0.019 A 
ATOM     16  C   UNL d   1     -46.481  14.231  22.605  0.00  0.00     0.004 A 
ATOM     17  C   UNL d   1     -47.184  13.016  22.870  0.00  0.00     0.086 A 
ATOM     18  C   UNL d   1     -45.773  13.807  22.533  0.00  0.00     0.000 A 
ATOM     19  C   UNL d   1     -45.773  12.988  22.631  0.00  0.00     0.002 A 
ATOM     20  C   UNL d   1     -46.481  12.593  22.800  0.00  0.00     0.019 A 
ATOM     21  N   UNL d   1     -47.887  12.622  23.039  0.00  0.00    -0.222 NA
ENDBRANCH   4   5
ENDBRANCH   3   4
TORSDOF 2
ENDMDL
MODEL 3
REMARK VINA RESULT:      -8.4      1.344      2.911
REMARK  2 active torsions:
REMARK  status: ('A' for Active; 'I' for Inactive)
REMARK    1  A    between atoms: S_12  and  C_3 
REMARK    2  A    between atoms: C_14  and  S_12 
ROOT
ATOM      1  N   UNL d   1     -44.989  13.289  22.151  0.00  0.00    -0.195 NA
ATOM      2  C   UNL d   1     -45.717  13.603  22.374  0.00  0.00     0.086 C 
ATOM      3  C   UNL d   1     -46.442  13.929  22.595  0.00  0.00     0.170 C 
ENDROOT
BRANCH   3   4
ATOM      4  S   UNL d   1     -47.056  13.427  22.823  0.00  0.00    -0.060 SA
BRANCH   4   5
ATOM      5  C   UNL d   1     -47.821  13.728  22.918  0.00  0.00     0.177 A 
ATOM      6  N   UNL d   1     -48.435  13.225  23.142  0.00  0.00    -0.270 N 
ATOM      7  C   UNL d   1     -49.200  13.513  23.240  0.00  0.00     0.151 A 
ATOM      8  C   UNL d   1     -48.458  12.412  23.308  0.00  0.00     0.085 A 
ATOM      9  N   UNL d   1     -49.692  12.895  23.462  0.00  0.00    -0.227 NA
ATOM     10  C   UNL d   1     -49.342  14.318  23.109  0.00  0.00     0.052 A 
ATOM     11  C   UNL d   1     -49.234  12.211  23.506  0.00  0.00     0.099 A 
ATOM     12  C   UNL d   1     -49.420  11.434  23.698  0.00  0.00     0.021 A 
ATOM     13  C   UNL d   1     -48.829  10.860  23.692  0.00  0.00     0.002 A 
ATOM     14  C   UNL d   1     -48.054  11.060  23.495  0.00  0.00     0.002 A 
ATOM     15  C   UNL d   1     -47.871  11.838  23.304  0.00  0.00     0.019 A 
ATOM     16  C   UNL d   1     -50.105  14.615  23.204  0.00  0.00     0.004 A 
ATOM     17  C   UNL d   1     -48.728  14.821  22.884  0.00  0.00     0.086 A 
ATOM     18  C   UNL d   1     -50.256  15.419  23.075  0.00  0.00     0.000 A 
ATOM     19  C   UNL d   1     -49.642  15.922  22.850  0.00  0.00     0.002 A 
ATOM     20  C   UNL d   1     -48.876  15.621  22.755  0.00  0.00     0.019 A 
ATOM     21  N   UNL d   1     -47.966  14.524  22.789  0.00  0.00    -0.222 NA
ENDBRANCH   4   5
ENDBRANCH   3   4
TORSDOF 2
ENDMDL
MODEL 4
REMARK VINA RESULT:      -8.1      1.015      2.690
REMARK  2 active torsions:
REMARK  status: ('A' for Active; 'I' for Inactive)
REMARK    1  A    between atoms: S_12  and  C_3 
REMARK    2  A    between atoms: C_14  and  S_12 
ROOT
ATOM      1  N   UNL d   1     -47.007  15.627  22.274  0.00  0.00    -0.195 NA
ATOM      2  C   UNL d   1     -47.510  15.061  22.597  0.00  0.00     0.086 C 
ATOM      3  C   UNL d   1     -48.023  14.503  22.924  0.00  0.00     0.170 C 
ENDROOT
BRANCH   3   4
ATOM      4  S   UNL d   1     -47.798  13.709  22.937  0.00  0.00    -0.060 SA
BRANCH   4   5
ATOM      5  C   UNL d   1     -48.354  13.126  23.128  0.00  0.00     0.177 A 
ATOM      6  N   UNL d   1     -48.101  12.366  23.324  0.00  0.00    -0.270 N 
ATOM      7  C   UNL d   1     -48.644  11.777  23.516  0.00  0.00     0.151 A 
ATOM      8  C   UNL d   1     -47.346  12.026  23.377  0.00  0.00     0.085 A 
ATOM      9  N   UNL d   1     -48.239  11.085  23.685  0.00  0.00    -0.227 NA
ATOM     10  C   UNL d   1     -49.451  11.963  23.508  0.00  0.00     0.052 A 
ATOM     11  C   UNL d   1     -47.434  11.236  23.600  0.00  0.00     0.099 A 
ATOM     12  C   UNL d   1     -46.770  10.761  23.695  0.00  0.00     0.021 A 
ATOM     13  C   UNL d   1     -46.019  11.077  23.568  0.00  0.00     0.002 A 
ATOM     14  C   UNL d   1     -45.931  11.866  23.346  0.00  0.00     0.002 A 
ATOM     15  C   UNL d   1     -46.596  12.338  23.251  0.00  0.00     0.019 A 
ATOM     16  C   UNL d   1     -50.002  11.381  23.698  0.00  0.00     0.004 A 
ATOM     17  C   UNL d   1     -49.704  12.724  23.311  0.00  0.00     0.086 A 
ATOM     18  C   UNL d   1     -50.811  11.558  23.692  0.00  0.00     0.000 A 
ATOM     19  C   UNL d   1     -51.064  12.318  23.496  0.00  0.00     0.002 A 
ATOM     20  C   UNL d   1     -50.508  12.901  23.306  0.00  0.00     0.019 A 
ATOM     21  N   UNL d   1     -49.153  13.305  23.121  0.00  0.00    -0.222 NA
ENDBRANCH   4   5
ENDBRANCH   3   4
TORSDOF 2
ENDMDL
MODEL 5
REMARK VINA RESULT:      -7.7      1.121      1.425
REMARK  2 active torsions:
REMARK  status: ('A' for Active; 'I' for Inactive)
REMARK    1  A    between atoms: S_12  and  C_3 
REMARK    2  A    between atoms: C_14  and  S_12 
ROOT
ATOM      1  N   UNL d   1     -44.836  13.167  22.149  0.00  0.00    -0.195 NA
ATOM      2  C   UNL d   1     -45.562  12.989  22.495  0.00  0.00     0.086 C 
ATOM      3  C   UNL d   1     -46.284  12.801  22.847  0.00  0.00     0.170 C 
ENDROOT
BRANCH   3   4
ATOM      4  S   UNL d   1     -46.938  13.283  22.704  0.00  0.00    -0.060 SA
BRANCH   4   5
ATOM      5  C   UNL d   1     -47.697  13.016  22.900  0.00  0.00     0.177 A 
ATOM      6  N   UNL d   1     -48.333  13.541  22.889  0.00  0.00    -0.270 N 
ATOM      7  C   UNL d   1     -49.093  13.287  23.081  0.00  0.00     0.151 A 
ATOM      8  C   UNL d   1     -48.386  14.350  22.710  0.00  0.00     0.085 A 
ATOM      9  N   UNL d   1     -49.609  13.922  23.024  0.00  0.00    -0.227 NA
ATOM     10  C   UNL d   1     -49.206  12.493  23.287  0.00  0.00     0.052 A 
ATOM     11  C   UNL d   1     -49.173  14.582  22.794  0.00  0.00     0.099 A 
ATOM     12  C   UNL d   1     -49.387  15.362  22.649  0.00  0.00     0.021 A 
ATOM     13  C   UNL d   1     -48.814  15.908  22.421  0.00  0.00     0.002 A 
ATOM     14  C   UNL d   1     -48.027  15.676  22.337  0.00  0.00     0.002 A 
ATOM     15  C   UNL d   1     -47.816  14.896  22.482  0.00  0.00     0.019 A 
ATOM     16  C   UNL d   1     -49.963  12.231  23.481  0.00  0.00     0.004 A 
ATOM     17  C   UNL d   1     -48.571  11.968  23.298  0.00  0.00     0.086 A 
ATOM     18  C   UNL d   1     -50.086  11.438  23.687  0.00  0.00     0.000 A 
ATOM     19  C   UNL d   1     -49.450  10.912  23.698  0.00  0.00     0.002 A 
ATOM     20  C   UNL d   1     -48.691  11.179  23.503  0.00  0.00     0.019 A 
ATOM     21  N   UNL d   1     -47.815  12.231  23.103  0.00  0.00    -0.222 NA
ENDBRANCH   4   5
ENDBRANCH   3   4
TORSDOF 2
ENDMDL
