MODEL 1
REMARK VINA RESULT:       8.6      0.000      0.000
REMARK  2 active torsions:
REMARK  status: ('A' for Active; 'I' for Inactive)
REMARK    1  A    between atoms: C_6  and  C_1 
REMARK    2  A    between atoms: O_12  and  C_9 
ROOT
ATOM      1  C   UNL d   1      46.375 -19.158  43.598  0.00  0.00     0.128 A 
ATOM      2  C   UNL d   1      46.386 -18.392  43.293  0.00  0.00     0.306 A 
ATOM      3  O   UNL d   1      46.454 -18.274  42.497  0.00  0.00    -0.271 OA
ATOM      4  C   UNL d   1      46.432 -19.787  43.098  0.00  0.00     0.013 A 
ATOM      5  C   UNL d   1      46.515 -18.923  41.961  0.00  0.00     0.125 A 
ATOM      6  C   UNL d   1      46.504 -19.689  42.266  0.00  0.00     0.025 A 
ATOM      7  O   UNL d   1      46.328 -17.758  43.791  0.00  0.00    -0.259 OA
ATOM      8  C   UNL d   1      46.586 -18.813  41.144  0.00  0.00     0.117 A 
ATOM      9  C   UNL d   1      46.564 -20.326  41.745  0.00  0.00     0.002 A 
ATOM     10  C   UNL d   1      46.635 -20.223  40.926  0.00  0.00     0.002 A 
ATOM     11  C   UNL d   1      46.646 -19.457  40.622  0.00  0.00     0.026 A 
ENDROOT
BRANCH   1  12
ATOM     12  C   UNL d   1      46.306 -19.300  44.403  0.00  0.00     0.216 C 
ATOM     13  O   UNL d   1      45.987 -20.030  44.692  0.00  0.00    -0.644 OA
ATOM     14  O   UNL d   1      46.560 -18.703  44.869  0.00  0.00    -0.644 OA
ENDBRANCH   1  12
BRANCH   8  15
ATOM     15  O   UNL d   1      46.597 -18.055  40.843  0.00  0.00    -0.326 OA
ATOM     16  C   UNL d   1      46.562 -17.933  40.044  0.00  0.00     0.181 C 
ENDBRANCH   8  15
TORSDOF 2
ENDMDL
MODEL 2
REMARK VINA RESULT:       9.2      6.780      7.440
REMARK  2 active torsions:
REMARK  status: ('A' for Active; 'I' for Inactive)
REMARK    1  A    between atoms: C_6  and  C_1 
REMARK    2  A    between atoms: O_12  and  C_9 
ROOT
ATOM      1  C   UNL d   1      45.453 -15.053  36.894  0.00  0.00     0.128 A 
ATOM      2  C   UNL d   1      44.901 -14.462  37.055  0.00  0.00     0.306 A 
ATOM      3  O   UNL d   1      44.111 -14.620  36.998  0.00  0.00    -0.271 OA
ATOM      4  C   UNL d   1      45.200 -15.788  36.679  0.00  0.00     0.013 A 
ATOM      5  C   UNL d   1      43.831 -15.384  36.775  0.00  0.00     0.125 A 
ATOM      6  C   UNL d   1      44.383 -15.975  36.614  0.00  0.00     0.025 A 
ATOM      7  O   UNL d   1      45.150 -13.724  37.270  0.00  0.00    -0.259 OA
ATOM      8  C   UNL d   1      43.025 -15.557  36.714  0.00  0.00     0.117 A 
ATOM      9  C   UNL d   1      44.114 -16.724  36.395  0.00  0.00     0.002 A 
ATOM     10  C   UNL d   1      43.308 -16.903  36.332  0.00  0.00     0.002 A 
ATOM     11  C   UNL d   1      42.756 -16.311  36.493  0.00  0.00     0.026 A 
ENDROOT
BRANCH   1  12
ATOM     12  C   UNL d   1      46.261 -14.914  36.946  0.00  0.00     0.216 C 
ATOM     13  O   UNL d   1      46.643 -14.365  36.425  0.00  0.00    -0.644 OA
ATOM     14  O   UNL d   1      46.635 -15.332  37.514  0.00  0.00    -0.644 OA
ENDBRANCH   1  12
BRANCH   8  15
ATOM     15  O   UNL d   1      42.479 -14.971  36.873  0.00  0.00    -0.326 OA
ATOM     16  C   UNL d   1      41.689 -15.109  36.762  0.00  0.00     0.181 C 
ENDBRANCH   8  15
TORSDOF 2
ENDMDL
MODEL 3
REMARK VINA RESULT:      10.5      7.157      7.436
REMARK  2 active torsions:
REMARK  status: ('A' for Active; 'I' for Inactive)
REMARK    1  A    between atoms: C_6  and  C_1 
REMARK    2  A    between atoms: O_12  and  C_9 
ROOT
ATOM      1  C   UNL d   1      43.725 -15.691  36.668  0.00  0.00     0.128 A 
ATOM      2  C   UNL d   1      43.626 -15.041  37.165  0.00  0.00     0.306 A 
ATOM      3  O   UNL d   1      44.266 -14.594  37.377  0.00  0.00    -0.271 OA
ATOM      4  C   UNL d   1      44.460 -15.878  36.396  0.00  0.00     0.013 A 
ATOM      5  C   UNL d   1      45.041 -14.778  37.101  0.00  0.00     0.125 A 
ATOM      6  C   UNL d   1      45.139 -15.429  36.603  0.00  0.00     0.025 A 
ATOM      7  O   UNL d   1      42.892 -14.849  37.440  0.00  0.00    -0.259 OA
ATOM      8  C   UNL d   1      45.702 -14.327  37.312  0.00  0.00     0.117 A 
ATOM      9  C   UNL d   1      45.896 -15.612  36.330  0.00  0.00     0.002 A 
ATOM     10  C   UNL d   1      46.561 -15.164  36.539  0.00  0.00     0.002 A 
ATOM     11  C   UNL d   1      46.463 -14.514  37.036  0.00  0.00     0.026 A 
ENDROOT
BRANCH   1  12
ATOM     12  C   UNL d   1      43.089 -16.158  36.440  0.00  0.00     0.216 C 
ATOM     13  O   UNL d   1      42.318 -15.824  36.335  0.00  0.00    -0.644 OA
ATOM     14  O   UNL d   1      43.265 -16.930  36.330  0.00  0.00    -0.644 OA
ENDBRANCH   1  12
BRANCH   8  15
ATOM     15  O   UNL d   1      45.604 -13.684  37.804  0.00  0.00    -0.326 OA
ATOM     16  C   UNL d   1      46.240 -13.226  38.008  0.00  0.00     0.181 C 
ENDBRANCH   8  15
TORSDOF 2
ENDMDL
