MODEL 1
REMARK VINA RESULT:      -4.7      0.000      0.000
REMARK  3 active torsions:
REMARK  status: ('A' for Active; 'I' for Inactive)
REMARK    1  A    between atoms: C_4  and  N_1 
REMARK    2  A    between atoms: C_6  and  C_4 
REMARK       I    between atoms: N_8  and  C_6 
REMARK    3  A    between atoms: C_10  and  N_8 
ROOT
ATOM      1  C   UNL d   1     -41.722-122.381 -51.760  0.00  0.00     0.165 C 
ENDROOT
BRANCH   1   2
ATOM      2  N   UNL d   1     -41.726-122.869 -51.090  0.00  0.00    -0.204 N 
ATOM      3  N   UNL d   1     -41.137-123.419 -50.886  0.00  0.00    -0.059 NA
ATOM      4  N   UNL d   1     -41.361-123.784 -50.180  0.00  0.00    -0.129 NA
ATOM      5  C   UNL d   1     -42.086-123.464 -49.942  0.00  0.00     0.122 A 
ATOM      6  C   UNL d   1     -42.312-122.896 -50.507  0.00  0.00     0.104 A 
ATOM      7  C   UNL d   1     -42.567-123.613 -49.291  0.00  0.00     0.022 A 
ATOM      8  C   UNL d   1     -43.018-122.483 -50.416  0.00  0.00     0.021 A 
ATOM      9  C   UNL d   1     -43.499-122.631 -49.765  0.00  0.00     0.002 A 
ATOM     10  C   UNL d   1     -43.275-123.193 -49.206  0.00  0.00     0.002 A 
ENDBRANCH   1   2
BRANCH   1  11
ATOM     11  C   UNL d   1     -41.340-121.666 -51.910  0.00  0.00     0.299 C 
ATOM     12  N   UNL d   1     -41.270-121.631 -52.728  0.00  0.00    -0.207 NA
ATOM     13  O   UNL d   1     -41.123-121.174 -51.284  0.00  0.00    -0.263 OA
BRANCH  12  14
ATOM     14  C   UNL d   1     -41.488-122.124 -53.351  0.00  0.00     0.085 A 
ATOM     15  C   UNL d   1     -42.070-121.880 -53.886  0.00  0.00     0.019 A 
ATOM     16  C   UNL d   1     -42.288-122.374 -54.510  0.00  0.00     0.002 A 
ATOM     17  C   UNL d   1     -42.866-122.133 -55.043  0.00  0.00     0.000 C 
ATOM     18  C   UNL d   1     -41.925-123.112 -54.597  0.00  0.00     0.000 A 
ATOM     19  C   UNL d   1     -41.341-123.356 -54.058  0.00  0.00     0.002 A 
ATOM     20  C   UNL d   1     -41.123-122.864 -53.438  0.00  0.00     0.019 A 
ENDBRANCH  12  14
ENDBRANCH   1  11
TORSDOF 3
ENDMDL
MODEL 2
REMARK VINA RESULT:      -4.3      0.961      3.849
REMARK  3 active torsions:
REMARK  status: ('A' for Active; 'I' for Inactive)
REMARK    1  A    between atoms: C_4  and  N_1 
REMARK    2  A    between atoms: C_6  and  C_4 
REMARK       I    between atoms: N_8  and  C_6 
REMARK    3  A    between atoms: C_10  and  N_8 
ROOT
ATOM      1  C   UNL d   1     -41.715-122.298 -52.449  0.00  0.00     0.165 C 
ENDROOT
BRANCH   1   2
ATOM      2  N   UNL d   1     -41.630-122.581 -53.224  0.00  0.00    -0.204 N 
ATOM      3  N   UNL d   1     -41.123-123.195 -53.464  0.00  0.00    -0.059 NA
ATOM      4  N   UNL d   1     -41.213-123.297 -54.278  0.00  0.00    -0.129 NA
ATOM      5  C   UNL d   1     -41.773-122.751 -54.547  0.00  0.00     0.122 A 
ATOM      6  C   UNL d   1     -42.032-122.307 -53.892  0.00  0.00     0.104 A 
ATOM      7  C   UNL d   1     -42.080-122.600 -55.295  0.00  0.00     0.022 A 
ATOM      8  C   UNL d   1     -42.596-121.716 -53.992  0.00  0.00     0.021 A 
ATOM      9  C   UNL d   1     -42.904-121.564 -54.741  0.00  0.00     0.002 A 
ATOM     10  C   UNL d   1     -42.647-122.004 -55.389  0.00  0.00     0.002 A 
ENDBRANCH   1   2
BRANCH   1  11
ATOM     11  C   UNL d   1     -41.380-121.649 -52.067  0.00  0.00     0.299 C 
ATOM     12  N   UNL d   1     -41.393-121.843 -51.269  0.00  0.00    -0.207 NA
ATOM     13  O   UNL d   1     -41.123-120.999 -52.506  0.00  0.00    -0.263 OA
BRANCH  12  14
ATOM     14  C   UNL d   1     -41.651-122.494 -50.833  0.00  0.00     0.085 A 
ATOM     15  C   UNL d   1     -42.395-122.479 -50.474  0.00  0.00     0.019 A 
ATOM     16  C   UNL d   1     -42.654-123.131 -50.038  0.00  0.00     0.002 A 
ATOM     17  C   UNL d   1     -43.394-123.119 -49.679  0.00  0.00     0.000 C 
ATOM     18  C   UNL d   1     -42.167-123.795 -49.963  0.00  0.00     0.000 A 
ATOM     19  C   UNL d   1     -41.419-123.808 -50.325  0.00  0.00     0.002 A 
ATOM     20  C   UNL d   1     -41.162-123.159 -50.759  0.00  0.00     0.019 A 
ENDBRANCH  12  14
ENDBRANCH   1  11
TORSDOF 3
ENDMDL
