MODEL 1
REMARK VINA RESULT:       1.1      0.000      0.000
REMARK  11 active torsions:
REMARK  status: ('A' for Active; 'I' for Inactive)
REMARK    1  A    between atoms: C_8  and  S_1 
REMARK    2  A    between atoms: N_19  and  S_1 
REMARK    3  A    between atoms: S_2  and  C_9 
REMARK    4  A    between atoms: N_20  and  S_2 
REMARK    5  A    between atoms: N_14  and  C_5 
REMARK    6  A    between atoms: C_24  and  N_19 
REMARK    7  A    between atoms: C_25  and  N_20 
REMARK    8  A    between atoms: C_29  and  C_24 
REMARK    9  A    between atoms: C_28  and  C_25 
REMARK   10  A    between atoms: O_26  and  C_29 
REMARK   11  A    between atoms: O_27  and  C_28 
ROOT
ATOM      1  C   UNL d   1     -41.361-122.248 -52.603  0.00  0.00     0.021 A 
ATOM      2  C   UNL d   1     -41.366-122.419 -51.362  0.00  0.00     0.021 A 
ATOM      3  C   UNL d   1     -41.295-121.876 -51.873  0.00  0.00     0.111 A 
ATOM      4  C   UNL d   1     -41.479-123.058 -52.476  0.00  0.00     0.002 A 
ATOM      5  C   UNL d   1     -41.484-123.184 -51.659  0.00  0.00     0.002 A 
ATOM      6  C   UNL d   1     -41.417-122.470 -54.007  0.00  0.00     0.105 A 
ATOM      7  C   UNL d   1     -41.419-122.921 -50.033  0.00  0.00     0.105 A 
ATOM      8  C   UNL d   1     -41.334-122.290 -50.547  0.00  0.00     0.015 A 
ATOM      9  C   UNL d   1     -41.331-121.958 -53.369  0.00  0.00     0.015 A 
ATOM     10  C   UNL d   1     -41.569-123.817 -51.136  0.00  0.00     0.001 A 
ATOM     11  C   UNL d   1     -41.565-123.573 -53.114  0.00  0.00     0.001 A 
ATOM     12  C   UNL d   1     -41.537-123.691 -50.322  0.00  0.00     0.013 A 
ATOM     13  C   UNL d   1     -41.533-123.266 -53.878  0.00  0.00     0.013 A 
ENDROOT
BRANCH   6  14
ATOM     14  S   UNL d   1     -41.412-122.343 -54.824  0.00  0.00     0.285 S 
ATOM     15  O   UNL d   1     -41.692-121.573 -54.711  0.00  0.00    -0.198 OA
ATOM     16  O   UNL d   1     -41.133-123.111 -54.928  0.00  0.00    -0.198 OA
BRANCH  14  17
ATOM     17  N   UNL d   1     -41.544-121.857 -55.476  0.00  0.00    -0.155 NA
BRANCH  17  18
ATOM     18  C   UNL d   1     -42.312-121.729 -55.747  0.00  0.00     0.138 C 
BRANCH  18  19
ATOM     19  C   UNL d   1     -42.457-121.579 -56.550  0.00  0.00     0.138 C 
BRANCH  19  20
ATOM     20  O   UNL d   1     -43.172-121.781 -56.891  0.00  0.00    -0.325 OA
ATOM     21  C   UNL d   1     -43.496-122.533 -56.774  0.00  0.00     0.182 C 
ENDBRANCH  19  20
ENDBRANCH  18  19
ENDBRANCH  17  18
ENDBRANCH  14  17
ENDBRANCH   6  14
BRANCH   3  22
ATOM     22  N   UNL d   1     -41.173-121.068 -51.747  0.00  0.00    -0.096 NA
ATOM     23  O   UNL d   1     -41.820-120.547 -51.804  0.00  0.00    -0.061 OA
ENDBRANCH   3  22
BRANCH   7  24
ATOM     24  S   UNL d   1     -41.424-123.048 -49.216  0.00  0.00     0.285 S 
ATOM     25  O   UNL d   1     -41.123-123.809 -49.332  0.00  0.00    -0.198 OA
ATOM     26  O   UNL d   1     -41.726-122.287 -49.100  0.00  0.00    -0.198 OA
BRANCH  24  27
ATOM     27  N   UNL d   1     -41.580-122.776 -48.452  0.00  0.00    -0.155 NA
BRANCH  27  28
ATOM     28  C   UNL d   1     -42.075-123.210 -47.955  0.00  0.00     0.138 C 
BRANCH  28  29
ATOM     29  C   UNL d   1     -42.582-122.817 -47.435  0.00  0.00     0.138 C 
BRANCH  29  30
ATOM     30  O   UNL d   1     -42.937-123.231 -46.806  0.00  0.00    -0.325 OA
ATOM     31  C   UNL d   1     -43.541-123.761 -46.958  0.00  0.00     0.182 C 
ENDBRANCH  29  30
ENDBRANCH  28  29
ENDBRANCH  27  28
ENDBRANCH  24  27
ENDBRANCH   7  24
TORSDOF 11
ENDMDL
MODEL 2
REMARK VINA RESULT:       2.3      0.601      5.989
REMARK  11 active torsions:
REMARK  status: ('A' for Active; 'I' for Inactive)
REMARK    1  A    between atoms: C_8  and  S_1 
REMARK    2  A    between atoms: N_19  and  S_1 
REMARK    3  A    between atoms: S_2  and  C_9 
REMARK    4  A    between atoms: N_20  and  S_2 
REMARK    5  A    between atoms: N_14  and  C_5 
REMARK    6  A    between atoms: C_24  and  N_19 
REMARK    7  A    between atoms: C_25  and  N_20 
REMARK    8  A    between atoms: C_29  and  C_24 
REMARK    9  A    between atoms: C_28  and  C_25 
REMARK   10  A    between atoms: O_26  and  C_29 
REMARK   11  A    between atoms: O_27  and  C_28 
ROOT
ATOM      1  C   UNL d   1     -41.826-122.560 -51.006  0.00  0.00     0.021 A 
ATOM      2  C   UNL d   1     -41.795-122.398 -52.248  0.00  0.00     0.021 A 
ATOM      3  C   UNL d   1     -42.038-122.062 -51.624  0.00  0.00     0.111 A 
ATOM      4  C   UNL d   1     -41.436-123.220 -51.321  0.00  0.00     0.002 A 
ATOM      5  C   UNL d   1     -41.409-123.125 -52.142  0.00  0.00     0.002 A 
ATOM      6  C   UNL d   1     -41.659-123.098 -49.700  0.00  0.00     0.105 A 
ATOM      7  C   UNL d   1     -41.606-122.497 -53.653  0.00  0.00     0.105 A 
ATOM      8  C   UNL d   1     -41.892-122.086 -53.006  0.00  0.00     0.015 A 
ATOM      9  C   UNL d   1     -41.935-122.503 -50.195  0.00  0.00     0.015 A 
ATOM     10  C   UNL d   1     -41.123-123.535 -52.799  0.00  0.00     0.001 A 
ATOM     11  C   UNL d   1     -41.158-123.817 -50.826  0.00  0.00     0.001 A 
ATOM     12  C   UNL d   1     -41.218-123.226 -53.557  0.00  0.00     0.013 A 
ATOM     13  C   UNL d   1     -41.276-123.746 -50.014  0.00  0.00     0.013 A 
ENDROOT
BRANCH   6  14
ATOM     14  S   UNL d   1     -41.686-123.193 -48.879  0.00  0.00     0.285 S 
ATOM     15  O   UNL d   1     -41.126-122.591 -48.787  0.00  0.00    -0.198 OA
ATOM     16  O   UNL d   1     -42.243-123.791 -48.980  0.00  0.00    -0.198 OA
BRANCH  14  17
ATOM     17  N   UNL d   1     -41.435-122.981 -48.123  0.00  0.00    -0.155 NA
BRANCH  17  18
ATOM     18  C   UNL d   1     -41.815-123.289 -47.460  0.00  0.00     0.138 C 
BRANCH  18  19
ATOM     19  C   UNL d   1     -42.295-122.806 -46.984  0.00  0.00     0.138 C 
BRANCH  19  20
ATOM     20  O   UNL d   1     -43.086-122.982 -46.874  0.00  0.00    -0.325 OA
ATOM     21  C   UNL d   1     -43.323-123.749 -46.679  0.00  0.00     0.182 C 
ENDBRANCH  19  20
ENDBRANCH  18  19
ENDBRANCH  17  18
ENDBRANCH  14  17
ENDBRANCH   6  14
BRANCH   3  22
ATOM     22  N   UNL d   1     -42.437-121.341 -51.554  0.00  0.00    -0.096 NA
ATOM     23  O   UNL d   1     -41.999-120.634 -51.556  0.00  0.00    -0.061 OA
ENDBRANCH   3  22
BRANCH   7  24
ATOM     24  S   UNL d   1     -41.578-122.402 -54.475  0.00  0.00     0.285 S 
ATOM     25  O   UNL d   1     -41.570-123.224 -54.569  0.00  0.00    -0.198 OA
ATOM     26  O   UNL d   1     -41.587-121.581 -54.380  0.00  0.00    -0.198 OA
BRANCH  24  27
ATOM     27  N   UNL d   1     -41.559-121.909 -55.136  0.00  0.00    -0.155 NA
BRANCH  27  28
ATOM     28  C   UNL d   1     -42.093-122.029 -55.753  0.00  0.00     0.138 C 
BRANCH  28  29
ATOM     29  C   UNL d   1     -42.092-121.520 -56.402  0.00  0.00     0.138 C 
BRANCH  29  30
ATOM     30  O   UNL d   1     -42.630-121.638 -57.028  0.00  0.00    -0.325 OA
ATOM     31  C   UNL d   1     -43.428-121.509 -56.907  0.00  0.00     0.182 C 
ENDBRANCH  29  30
ENDBRANCH  28  29
ENDBRANCH  27  28
ENDBRANCH  24  27
ENDBRANCH   7  24
TORSDOF 11
ENDMDL
