MODEL 1
REMARK VINA RESULT:     -10.2      0.000      0.000
REMARK  5 active torsions:
REMARK  status: ('A' for Active; 'I' for Inactive)
REMARK    1  A    between atoms: C_7  and  C_1 
REMARK    2  A    between atoms: C_10  and  C_3 
REMARK    3  A    between atoms: C_8  and  C_4 
REMARK    4  A    between atoms: O_14  and  C_7 
REMARK    5  A    between atoms: C_20  and  O_14 
ROOT
ATOM      1  C   UNL d   1      53.108  31.917  53.353  0.00  0.00     0.102 A 
ATOM      2  C   UNL d   1      52.482  31.680  52.860  0.00  0.00     0.201 A 
ATOM      3  C   UNL d   1      53.129  32.678  53.677  0.00  0.00     0.008 A 
ATOM      4  C   UNL d   1      51.904  32.986  53.029  0.00  0.00     0.003 A 
ATOM      5  C   UNL d   1      51.884  32.226  52.705  0.00  0.00     0.042 A 
ATOM      6  C   UNL d   1      52.523  33.209  53.511  0.00  0.00     0.000 A 
ATOM      7  O   UNL d   1      52.462  30.928  52.539  0.00  0.00    -0.286 OA
ENDROOT
BRANCH   4   8
ATOM      8  C   UNL d   1      51.291  33.520  52.859  0.00  0.00     0.000 A 
ATOM      9  C   UNL d   1      51.327  33.978  52.167  0.00  0.00     0.000 A 
ATOM     10  C   UNL d   1      50.732  34.502  51.992  0.00  0.00     0.000 A 
ATOM     11  C   UNL d   1      50.086  34.573  52.517  0.00  0.00     0.000 A 
ATOM     12  C   UNL d   1      50.061  34.118  53.192  0.00  0.00     0.000 A 
ATOM     13  C   UNL d   1      49.476  35.107  52.342  0.00  0.00     0.000 C 
ATOM     14  C   UNL d   1      50.660  33.592  53.366  0.00  0.00     0.000 A 
ENDBRANCH   4   8
BRANCH   3  15
ATOM     15  C   UNL d   1      53.755  32.899  54.163  0.00  0.00     0.000 A 
ATOM     16  C   UNL d   1      53.670  32.827  54.982  0.00  0.00     0.000 A 
ATOM     17  C   UNL d   1      54.304  33.051  55.465  0.00  0.00     0.000 A 
ATOM     18  C   UNL d   1      54.993  33.334  55.155  0.00  0.00     0.000 A 
ATOM     19  C   UNL d   1      55.068  33.402  54.321  0.00  0.00     0.000 A 
ATOM     20  C   UNL d   1      54.443  33.182  53.831  0.00  0.00     0.000 A 
ENDBRANCH   3  15
BRANCH   1  21
ATOM     21  C   UNL d   1      53.721  31.380  53.520  0.00  0.00     0.303 C 
ATOM     22  O   UNL d   1      54.453  31.455  53.143  0.00  0.00    -0.259 OA
BRANCH  21  23
ATOM     23  O   UNL d   1      53.603  30.767  54.066  0.00  0.00    -0.271 OA
BRANCH  23  24
ATOM     24  C   UNL d   1      53.894  30.011  53.907  0.00  0.00     0.126 C 
ATOM     25  C   UNL d   1      53.689  29.381  54.398  0.00  0.00     0.029 C 
ENDBRANCH  23  24
ENDBRANCH  21  23
ENDBRANCH   1  21
TORSDOF 5
ENDMDL
MODEL 2
REMARK VINA RESULT:      -9.9      1.608      4.234
REMARK  5 active torsions:
REMARK  status: ('A' for Active; 'I' for Inactive)
REMARK    1  A    between atoms: C_7  and  C_1 
REMARK    2  A    between atoms: C_10  and  C_3 
REMARK    3  A    between atoms: C_8  and  C_4 
REMARK    4  A    between atoms: O_14  and  C_7 
REMARK    5  A    between atoms: C_20  and  O_14 
ROOT
ATOM      1  C   UNL d   1      53.025  33.659  53.529  0.00  0.00     0.102 A 
ATOM      2  C   UNL d   1      53.709  33.294  53.830  0.00  0.00     0.201 A 
ATOM      3  C   UNL d   1      52.388  33.207  53.258  0.00  0.00     0.008 A 
ATOM      4  C   UNL d   1      53.096  32.019  53.577  0.00  0.00     0.003 A 
ATOM      5  C   UNL d   1      53.733  32.471  53.848  0.00  0.00     0.042 A 
ATOM      6  C   UNL d   1      52.429  32.385  53.284  0.00  0.00     0.000 A 
ATOM      7  O   UNL d   1      54.340  33.741  54.098  0.00  0.00    -0.286 OA
ENDROOT
BRANCH   4   8
ATOM      8  C   UNL d   1      53.141  31.190  53.605  0.00  0.00     0.000 A 
ATOM      9  C   UNL d   1      53.256  30.811  54.336  0.00  0.00     0.000 A 
ATOM     10  C   UNL d   1      53.302  30.002  54.374  0.00  0.00     0.000 A 
ATOM     11  C   UNL d   1      53.231  29.558  53.670  0.00  0.00     0.000 A 
ATOM     12  C   UNL d   1      53.119  29.939  52.960  0.00  0.00     0.000 A 
ATOM     13  C   UNL d   1      53.277  28.730  53.705  0.00  0.00     0.000 C 
ATOM     14  C   UNL d   1      53.073  30.753  52.924  0.00  0.00     0.000 A 
ENDBRANCH   4   8
BRANCH   3  15
ATOM     15  C   UNL d   1      51.717  33.581  52.963  0.00  0.00     0.000 A 
ATOM     16  C   UNL d   1      51.056  33.662  53.453  0.00  0.00     0.000 A 
ATOM     17  C   UNL d   1      50.385  34.040  53.150  0.00  0.00     0.000 A 
ATOM     18  C   UNL d   1      50.364  34.326  52.396  0.00  0.00     0.000 A 
ATOM     19  C   UNL d   1      51.042  34.238  51.907  0.00  0.00     0.000 A 
ATOM     20  C   UNL d   1      51.715  33.864  52.199  0.00  0.00     0.000 A 
ENDBRANCH   3  15
BRANCH   1  21
ATOM     21  C   UNL d   1      52.984  34.489  53.503  0.00  0.00     0.303 C 
ATOM     22  O   UNL d   1      53.118  34.889  52.791  0.00  0.00    -0.259 OA
BRANCH  21  23
ATOM     23  O   UNL d   1      52.808  34.922  54.187  0.00  0.00    -0.271 OA
BRANCH  23  24
ATOM     24  C   UNL d   1      53.123  35.677  54.292  0.00  0.00     0.126 C 
ATOM     25  C   UNL d   1      52.870  36.145  54.922  0.00  0.00     0.029 C 
ENDBRANCH  23  24
ENDBRANCH  21  23
ENDBRANCH   1  21
TORSDOF 5
ENDMDL
MODEL 3
REMARK VINA RESULT:      -9.6      1.156      2.341
REMARK  5 active torsions:
REMARK  status: ('A' for Active; 'I' for Inactive)
REMARK    1  A    between atoms: C_7  and  C_1 
REMARK    2  A    between atoms: C_10  and  C_3 
REMARK    3  A    between atoms: C_8  and  C_4 
REMARK    4  A    between atoms: O_14  and  C_7 
REMARK    5  A    between atoms: C_20  and  O_14 
ROOT
ATOM      1  C   UNL d   1      53.236  33.486  53.504  0.00  0.00     0.102 A 
ATOM      2  C   UNL d   1      53.029  34.289  53.440  0.00  0.00     0.201 A 
ATOM      3  C   UNL d   1      52.719  32.894  53.247  0.00  0.00     0.008 A 
ATOM      4  C   UNL d   1      51.780  33.884  52.856  0.00  0.00     0.003 A 
ATOM      5  C   UNL d   1      52.297  34.476  53.113  0.00  0.00     0.042 A 
ATOM      6  C   UNL d   1      51.991  33.099  52.923  0.00  0.00     0.000 A 
ATOM      7  O   UNL d   1      53.541  34.875  53.694  0.00  0.00    -0.286 OA
ENDROOT
BRANCH   4   8
ATOM      8  C   UNL d   1      51.046  34.095  52.529  0.00  0.00     0.000 A 
ATOM      9  C   UNL d   1      50.417  34.298  53.033  0.00  0.00     0.000 A 
ATOM     10  C   UNL d   1      49.696  34.506  52.724  0.00  0.00     0.000 A 
ATOM     11  C   UNL d   1      49.596  34.512  51.895  0.00  0.00     0.000 A 
ATOM     12  C   UNL d   1      50.219  34.311  51.411  0.00  0.00     0.000 A 
ATOM     13  C   UNL d   1      48.861  34.724  51.575  0.00  0.00     0.000 C 
ATOM     14  C   UNL d   1      50.943  34.103  51.724  0.00  0.00     0.000 A 
ENDBRANCH   4   8
BRANCH   3  15
ATOM     15  C   UNL d   1      52.935  32.104  53.317  0.00  0.00     0.000 A 
ATOM     16  C   UNL d   1      52.700  31.681  53.988  0.00  0.00     0.000 A 
ATOM     17  C   UNL d   1      52.921  30.886  54.052  0.00  0.00     0.000 A 
ATOM     18  C   UNL d   1      53.357  30.521  53.480  0.00  0.00     0.000 A 
ATOM     19  C   UNL d   1      53.591  30.960  52.803  0.00  0.00     0.000 A 
ATOM     20  C   UNL d   1      53.376  31.752  52.729  0.00  0.00     0.000 A 
ENDBRANCH   3  15
BRANCH   1  21
ATOM     21  C   UNL d   1      53.971  33.279  53.832  0.00  0.00     0.303 C 
ATOM     22  O   UNL d   1      54.594  33.046  53.339  0.00  0.00    -0.259 OA
BRANCH  21  23
ATOM     23  O   UNL d   1      54.087  33.303  54.652  0.00  0.00    -0.271 OA
BRANCH  23  24
ATOM     24  C   UNL d   1      54.836  33.461  54.960  0.00  0.00     0.126 C 
ATOM     25  C   UNL d   1      54.942  33.512  55.777  0.00  0.00     0.029 C 
ENDBRANCH  23  24
ENDBRANCH  21  23
ENDBRANCH   1  21
TORSDOF 5
ENDMDL
MODEL 4
REMARK VINA RESULT:      -9.5      1.278      3.899
REMARK  5 active torsions:
REMARK  status: ('A' for Active; 'I' for Inactive)
REMARK    1  A    between atoms: C_7  and  C_1 
REMARK    2  A    between atoms: C_10  and  C_3 
REMARK    3  A    between atoms: C_8  and  C_4 
REMARK    4  A    between atoms: O_14  and  C_7 
REMARK    5  A    between atoms: C_20  and  O_14 
ROOT
ATOM      1  C   UNL d   1      53.228  32.514  53.392  0.00  0.00     0.102 A 
ATOM      2  C   UNL d   1      52.758  31.945  53.008  0.00  0.00     0.201 A 
ATOM      3  C   UNL d   1      53.739  32.297  54.005  0.00  0.00     0.008 A 
ATOM      4  C   UNL d   1      53.329  30.946  53.869  0.00  0.00     0.003 A 
ATOM      5  C   UNL d   1      52.818  31.162  53.256  0.00  0.00     0.042 A 
ATOM      6  C   UNL d   1      53.785  31.510  54.240  0.00  0.00     0.000 A 
ATOM      7  O   UNL d   1      52.253  32.160  52.401  0.00  0.00    -0.286 OA
ENDROOT
BRANCH   4   8
ATOM      8  C   UNL d   1      53.372  30.150  54.104  0.00  0.00     0.000 A 
ATOM      9  C   UNL d   1      53.117  29.933  54.864  0.00  0.00     0.000 A 
ATOM     10  C   UNL d   1      53.156  29.158  55.102  0.00  0.00     0.000 A 
ATOM     11  C   UNL d   1      53.455  28.585  54.574  0.00  0.00     0.000 A 
ATOM     12  C   UNL d   1      53.702  28.810  53.831  0.00  0.00     0.000 A 
ATOM     13  C   UNL d   1      53.496  27.792  54.813  0.00  0.00     0.000 C 
ATOM     14  C   UNL d   1      53.662  29.589  53.594  0.00  0.00     0.000 A 
ENDBRANCH   4   8
BRANCH   3  15
ATOM     15  C   UNL d   1      54.198  32.870  54.376  0.00  0.00     0.000 A 
ATOM     16  C   UNL d   1      53.933  33.197  55.088  0.00  0.00     0.000 A 
ATOM     17  C   UNL d   1      54.401  33.773  55.456  0.00  0.00     0.000 A 
ATOM     18  C   UNL d   1      55.100  34.018  55.137  0.00  0.00     0.000 A 
ATOM     19  C   UNL d   1      55.359  33.679  54.413  0.00  0.00     0.000 A 
ATOM     20  C   UNL d   1      54.901  33.105  54.038  0.00  0.00     0.000 A 
ENDBRANCH   3  15
BRANCH   1  21
ATOM     21  C   UNL d   1      53.182  33.310  53.154  0.00  0.00     0.303 C 
ATOM     22  O   UNL d   1      53.759  33.628  52.655  0.00  0.00    -0.259 OA
BRANCH  21  23
ATOM     23  O   UNL d   1      52.557  33.789  53.415  0.00  0.00    -0.271 OA
BRANCH  23  24
ATOM     24  C   UNL d   1      52.297  34.418  52.950  0.00  0.00     0.126 C 
ATOM     25  C   UNL d   1      51.658  34.877  53.198  0.00  0.00     0.029 C 
ENDBRANCH  23  24
ENDBRANCH  21  23
ENDBRANCH   1  21
TORSDOF 5
ENDMDL
MODEL 5
REMARK VINA RESULT:      -7.5      1.531      2.254
REMARK  5 active torsions:
REMARK  status: ('A' for Active; 'I' for Inactive)
REMARK    1  A    between atoms: C_7  and  C_1 
REMARK    2  A    between atoms: C_10  and  C_3 
REMARK    3  A    between atoms: C_8  and  C_4 
REMARK    4  A    between atoms: O_14  and  C_7 
REMARK    5  A    between atoms: C_20  and  O_14 
ROOT
ATOM      1  C   UNL d   1      52.330  33.488  53.419  0.00  0.00     0.102 A 
ATOM      2  C   UNL d   1      51.863  32.937  53.008  0.00  0.00     0.201 A 
ATOM      3  C   UNL d   1      52.113  34.285  53.454  0.00  0.00     0.008 A 
ATOM      4  C   UNL d   1      50.961  34.005  52.674  0.00  0.00     0.003 A 
ATOM      5  C   UNL d   1      51.179  33.208  52.638  0.00  0.00     0.042 A 
ATOM      6  C   UNL d   1      51.425  34.539  53.079  0.00  0.00     0.000 A 
ATOM      7  O   UNL d   1      52.079  32.149  52.972  0.00  0.00    -0.286 OA
ENDROOT
BRANCH   4   8
ATOM      8  C   UNL d   1      50.267  34.257  52.293  0.00  0.00     0.000 A 
ATOM      9  C   UNL d   1      49.657  34.600  52.741  0.00  0.00     0.000 A 
ATOM     10  C   UNL d   1      48.974  34.849  52.379  0.00  0.00     0.000 A 
ATOM     11  C   UNL d   1      48.896  34.756  51.553  0.00  0.00     0.000 A 
ATOM     12  C   UNL d   1      49.500  34.418  51.125  0.00  0.00     0.000 A 
ATOM     13  C   UNL d   1      48.200  35.009  51.179  0.00  0.00     0.000 C 
ATOM     14  C   UNL d   1      50.185  34.168  51.491  0.00  0.00     0.000 A 
ENDBRANCH   4   8
BRANCH   3  15
ATOM     15  C   UNL d   1      52.584  34.820  53.865  0.00  0.00     0.000 A 
ATOM     16  C   UNL d   1      53.112  35.296  53.442  0.00  0.00     0.000 A 
ATOM     17  C   UNL d   1      53.583  35.832  53.861  0.00  0.00     0.000 A 
ATOM     18  C   UNL d   1      53.538  35.897  54.664  0.00  0.00     0.000 A 
ATOM     19  C   UNL d   1      52.998  35.409  55.083  0.00  0.00     0.000 A 
ATOM     20  C   UNL d   1      52.524  34.872  54.675  0.00  0.00     0.000 A 
ENDBRANCH   3  15
BRANCH   1  21
ATOM     21  C   UNL d   1      53.025  33.233  53.798  0.00  0.00     0.303 C 
ATOM     22  O   UNL d   1      53.024  33.089  54.613  0.00  0.00    -0.259 OA
BRANCH  21  23
ATOM     23  O   UNL d   1      53.722  33.119  53.364  0.00  0.00    -0.271 OA
BRANCH  23  24
ATOM     24  C   UNL d   1      54.292  32.585  53.629  0.00  0.00     0.126 C 
ATOM     25  C   UNL d   1      55.045  32.586  53.292  0.00  0.00     0.029 C 
ENDBRANCH  23  24
ENDBRANCH  21  23
ENDBRANCH   1  21
TORSDOF 5
ENDMDL
