MODEL 1
REMARK VINA RESULT:      -2.3      0.000      0.000
REMARK  5 active torsions:
REMARK  status: ('A' for Active; 'I' for Inactive)
REMARK    1  A    between atoms: N_5  and  C_1 
REMARK    2  A    between atoms: C_9  and  C_2 
REMARK       I    between atoms: C_6  and  N_5 
REMARK    3  A    between atoms: C_8  and  C_6 
REMARK    4  A    between atoms: O_14  and  C_9 
REMARK    5  A    between atoms: C_16  and  O_14 
ROOT
ATOM      1  C   UNL d   1      32.881  23.256 -19.010  0.00  0.00     0.114 A 
ATOM      2  C   UNL d   1      32.755  22.698 -20.220  0.00  0.00     0.094 A 
ATOM      3  S   UNL d   1      33.130  22.637 -19.502  0.00  0.00    -0.062 SA
ATOM      4  C   UNL d   1      32.258  23.384 -20.160  0.00  0.00     0.013 A 
ATOM      5  C   UNL d   1      32.341  23.702 -19.443  0.00  0.00     0.027 A 
ATOM      6  C   UNL d   1      31.759  23.677 -20.759  0.00  0.00     0.001 C 
ENDROOT
BRANCH   1   7
ATOM      7  N   UNL d   1      33.131  23.414 -18.197  0.00  0.00    -0.201 NA
ATOM      8  C   UNL d   1      32.746  23.038 -17.572  0.00  0.00     0.280 C 
ATOM      9  O   UNL d   1      32.124  22.514 -17.712  0.00  0.00    -0.265 OA
BRANCH   8  10
ATOM     10  C   UNL d   1      32.984  23.188 -16.800  0.00  0.00     0.058 A 
ATOM     11  C   UNL d   1      33.241  23.691 -16.199  0.00  0.00     0.005 A 
ATOM     12  C   UNL d   1      33.169  22.955 -15.967  0.00  0.00     0.005 A 
ENDBRANCH   8  10
ENDBRANCH   1   7
BRANCH   2  13
ATOM     13  C   UNL d   1      32.838  22.193 -20.885  0.00  0.00     0.306 C 
ATOM     14  O   UNL d   1      33.241  22.478 -21.543  0.00  0.00    -0.258 OA
BRANCH  13  15
ATOM     15  O   UNL d   1      32.529  21.429 -20.891  0.00  0.00    -0.271 OA
BRANCH  15  16
ATOM     16  C   UNL d   1      32.553  20.971 -21.579  0.00  0.00     0.126 C 
ATOM     17  C   UNL d   1      32.692  20.152 -21.512  0.00  0.00     0.029 C 
ENDBRANCH  15  16
ENDBRANCH  13  15
ENDBRANCH   2  13
TORSDOF 5
ENDMDL
MODEL 2
REMARK VINA RESULT:      -2.2      3.267      5.117
REMARK  5 active torsions:
REMARK  status: ('A' for Active; 'I' for Inactive)
REMARK    1  A    between atoms: N_5  and  C_1 
REMARK    2  A    between atoms: C_9  and  C_2 
REMARK       I    between atoms: C_6  and  N_5 
REMARK    3  A    between atoms: C_8  and  C_6 
REMARK    4  A    between atoms: O_14  and  C_9 
REMARK    5  A    between atoms: C_16  and  O_14 
ROOT
ATOM      1  C   UNL d   1      33.114  19.612 -22.610  0.00  0.00     0.114 A 
ATOM      2  C   UNL d   1      32.838  18.508 -23.315  0.00  0.00     0.094 A 
ATOM      3  S   UNL d   1      32.897  18.813 -22.564  0.00  0.00    -0.062 SA
ATOM      4  C   UNL d   1      33.027  19.149 -23.837  0.00  0.00     0.013 A 
ATOM      5  C   UNL d   1      33.187  19.793 -23.410  0.00  0.00     0.027 A 
ATOM      6  C   UNL d   1      33.042  19.111 -24.669  0.00  0.00     0.001 C 
ENDROOT
BRANCH   1   7
ATOM      7  N   UNL d   1      33.241  20.160 -21.953  0.00  0.00    -0.201 NA
ATOM      8  C   UNL d   1      32.611  20.613 -21.674  0.00  0.00     0.280 C 
ATOM      9  O   UNL d   1      31.861  20.551 -22.013  0.00  0.00    -0.265 OA
BRANCH   8  10
ATOM     10  C   UNL d   1      32.732  21.134 -21.049  0.00  0.00     0.058 A 
ATOM     11  C   UNL d   1      33.075  21.345 -20.330  0.00  0.00     0.005 A 
ATOM     12  C   UNL d   1      32.608  21.894 -20.614  0.00  0.00     0.005 A 
ENDBRANCH   8  10
ENDBRANCH   1   7
BRANCH   2  13
ATOM     13  C   UNL d   1      32.634  17.723 -23.533  0.00  0.00     0.306 C 
ATOM     14  O   UNL d   1      33.240  17.201 -23.722  0.00  0.00    -0.258 OA
BRANCH  13  15
ATOM     15  O   UNL d   1      31.850  17.472 -23.561  0.00  0.00    -0.271 OA
BRANCH  15  16
ATOM     16  C   UNL d   1      31.668  16.665 -23.589  0.00  0.00     0.126 C 
ATOM     17  C   UNL d   1      30.876  16.435 -23.713  0.00  0.00     0.029 C 
ENDBRANCH  15  16
ENDBRANCH  13  15
ENDBRANCH   2  13
TORSDOF 5
ENDMDL
MODEL 3
REMARK VINA RESULT:      -1.9      5.596      8.144
REMARK  5 active torsions:
REMARK  status: ('A' for Active; 'I' for Inactive)
REMARK    1  A    between atoms: N_5  and  C_1 
REMARK    2  A    between atoms: C_9  and  C_2 
REMARK       I    between atoms: C_6  and  N_5 
REMARK    3  A    between atoms: C_8  and  C_6 
REMARK    4  A    between atoms: O_14  and  C_9 
REMARK    5  A    between atoms: C_16  and  O_14 
ROOT
ATOM      1  C   UNL d   1      31.099  16.495 -24.007  0.00  0.00     0.114 A 
ATOM      2  C   UNL d   1      32.195  17.217 -23.745  0.00  0.00     0.094 A 
ATOM      3  S   UNL d   1      31.406  17.261 -23.930  0.00  0.00    -0.062 SA
ATOM      4  C   UNL d   1      32.374  16.388 -23.708  0.00  0.00     0.013 A 
ATOM      5  C   UNL d   1      31.720  15.975 -23.864  0.00  0.00     0.027 A 
ATOM      6  C   UNL d   1      33.119  16.058 -23.535  0.00  0.00     0.001 C 
ENDROOT
BRANCH   1   7
ATOM      7  N   UNL d   1      30.286  16.272 -24.200  0.00  0.00    -0.201 NA
ATOM      8  C   UNL d   1      29.791  15.986 -23.606  0.00  0.00     0.280 C 
ATOM      9  O   UNL d   1      30.061  15.909 -22.830  0.00  0.00    -0.265 OA
BRANCH   8  10
ATOM     10  C   UNL d   1      29.018  15.774 -23.789  0.00  0.00     0.058 A 
ATOM     11  C   UNL d   1      28.217  15.699 -23.605  0.00  0.00     0.005 A 
ATOM     12  C   UNL d   1      28.387  15.452 -24.319  0.00  0.00     0.005 A 
ENDBRANCH   8  10
ENDBRANCH   1   7
BRANCH   2  13
ATOM     13  C   UNL d   1      32.727  17.853 -23.616  0.00  0.00     0.306 C 
ATOM     14  O   UNL d   1      33.225  18.076 -24.231  0.00  0.00    -0.258 OA
BRANCH  13  15
ATOM     15  O   UNL d   1      32.759  18.252 -22.895  0.00  0.00    -0.271 OA
BRANCH  15  16
ATOM     16  C   UNL d   1      33.116  18.996 -22.842  0.00  0.00     0.126 C 
ATOM     17  C   UNL d   1      33.219  19.340 -22.090  0.00  0.00     0.029 C 
ENDBRANCH  15  16
ENDBRANCH  13  15
ENDBRANCH   2  13
TORSDOF 5
ENDMDL
MODEL 4
REMARK VINA RESULT:      -1.9      1.443      4.201
REMARK  5 active torsions:
REMARK  status: ('A' for Active; 'I' for Inactive)
REMARK    1  A    between atoms: N_5  and  C_1 
REMARK    2  A    between atoms: C_9  and  C_2 
REMARK       I    between atoms: C_6  and  N_5 
REMARK    3  A    between atoms: C_8  and  C_6 
REMARK    4  A    between atoms: O_14  and  C_9 
REMARK    5  A    between atoms: C_16  and  O_14 
ROOT
ATOM      1  C   UNL d   1      32.978  21.500 -20.948  0.00  0.00     0.114 A 
ATOM      2  C   UNL d   1      32.849  22.468 -20.034  0.00  0.00     0.094 A 
ATOM      3  S   UNL d   1      33.241  21.780 -20.214  0.00  0.00    -0.062 SA
ATOM      4  C   UNL d   1      32.326  22.611 -20.687  0.00  0.00     0.013 A 
ATOM      5  C   UNL d   1      32.412  22.033 -21.218  0.00  0.00     0.027 A 
ATOM      6  C   UNL d   1      31.803  23.255 -20.761  0.00  0.00     0.001 C 
ENDROOT
BRANCH   1   7
ATOM      7  N   UNL d   1      33.239  20.787 -21.362  0.00  0.00    -0.201 NA
ATOM      8  C   UNL d   1      32.692  20.338 -21.785  0.00  0.00     0.280 C 
ATOM      9  O   UNL d   1      31.898  20.560 -21.818  0.00  0.00    -0.265 OA
BRANCH   8  10
ATOM     10  C   UNL d   1      32.940  19.660 -22.178  0.00  0.00     0.058 A 
ATOM     11  C   UNL d   1      33.157  18.864 -22.198  0.00  0.00     0.005 A 
ATOM     12  C   UNL d   1      33.185  19.202 -22.894  0.00  0.00     0.005 A 
ENDBRANCH   8  10
ENDBRANCH   1   7
BRANCH   2  13
ATOM     13  C   UNL d   1      32.938  22.943 -19.347  0.00  0.00     0.306 C 
ATOM     14  O   UNL d   1      33.240  23.702 -19.435  0.00  0.00    -0.258 OA
BRANCH  13  15
ATOM     15  O   UNL d   1      32.731  22.666 -18.599  0.00  0.00    -0.271 OA
BRANCH  15  16
ATOM     16  C   UNL d   1      33.030  23.029 -17.919  0.00  0.00     0.126 C 
ATOM     17  C   UNL d   1      32.739  22.792 -17.175  0.00  0.00     0.029 C 
ENDBRANCH  15  16
ENDBRANCH  13  15
ENDBRANCH   2  13
TORSDOF 5
ENDMDL
MODEL 5
REMARK VINA RESULT:      -1.3      2.042      3.293
REMARK  5 active torsions:
REMARK  status: ('A' for Active; 'I' for Inactive)
REMARK    1  A    between atoms: N_5  and  C_1 
REMARK    2  A    between atoms: C_9  and  C_2 
REMARK       I    between atoms: C_6  and  N_5 
REMARK    3  A    between atoms: C_8  and  C_6 
REMARK    4  A    between atoms: O_14  and  C_9 
REMARK    5  A    between atoms: C_16  and  O_14 
ROOT
ATOM      1  C   UNL d   1      33.234  21.760 -21.875  0.00  0.00     0.114 A 
ATOM      2  C   UNL d   1      33.234  20.733 -22.733  0.00  0.00     0.094 A 
ATOM      3  S   UNL d   1      33.232  20.934 -21.946  0.00  0.00    -0.062 SA
ATOM      4  C   UNL d   1      33.238  21.469 -23.156  0.00  0.00     0.013 A 
ATOM      5  C   UNL d   1      33.237  22.065 -22.639  0.00  0.00     0.027 A 
ATOM      6  C   UNL d   1      33.241  21.554 -23.985  0.00  0.00     0.001 C 
ENDROOT
BRANCH   1   7
ATOM      7  N   UNL d   1      33.233  22.224 -21.145  0.00  0.00    -0.201 NA
ATOM      8  C   UNL d   1      32.532  22.312 -20.720  0.00  0.00     0.280 C 
ATOM      9  O   UNL d   1      31.831  21.964 -20.982  0.00  0.00    -0.265 OA
BRANCH   8  10
ATOM     10  C   UNL d   1      32.530  22.753 -20.026  0.00  0.00     0.058 A 
ATOM     11  C   UNL d   1      32.151  23.190 -19.438  0.00  0.00     0.005 A 
ATOM     12  C   UNL d   1      32.916  23.133 -19.326  0.00  0.00     0.005 A 
ENDBRANCH   8  10
ENDBRANCH   1   7
BRANCH   2  13
ATOM     13  C   UNL d   1      33.233  19.961 -23.063  0.00  0.00     0.306 C 
ATOM     14  O   UNL d   1      33.239  19.889 -23.882  0.00  0.00    -0.258 OA
BRANCH  13  15
ATOM     15  O   UNL d   1      33.226  19.287 -22.590  0.00  0.00    -0.271 OA
BRANCH  15  16
ATOM     16  C   UNL d   1      32.946  18.568 -22.887  0.00  0.00     0.126 C 
ATOM     17  C   UNL d   1      33.211  17.858 -22.540  0.00  0.00     0.029 C 
ENDBRANCH  15  16
ENDBRANCH  13  15
ENDBRANCH   2  13
TORSDOF 5
ENDMDL
MODEL 6
REMARK VINA RESULT:      -1.2      3.587      6.386
REMARK  5 active torsions:
REMARK  status: ('A' for Active; 'I' for Inactive)
REMARK    1  A    between atoms: N_5  and  C_1 
REMARK    2  A    between atoms: C_9  and  C_2 
REMARK       I    between atoms: C_6  and  N_5 
REMARK    3  A    between atoms: C_8  and  C_6 
REMARK    4  A    between atoms: O_14  and  C_9 
REMARK    5  A    between atoms: C_16  and  O_14 
ROOT
ATOM      1  C   UNL d   1      33.173  18.665 -23.398  0.00  0.00     0.114 A 
ATOM      2  C   UNL d   1      33.081  19.905 -22.904  0.00  0.00     0.094 A 
ATOM      3  S   UNL d   1      33.076  19.117 -22.710  0.00  0.00    -0.062 SA
ATOM      4  C   UNL d   1      33.186  19.932 -23.746  0.00  0.00     0.013 A 
ATOM      5  C   UNL d   1      33.238  19.195 -24.024  0.00  0.00     0.027 A 
ATOM      6  C   UNL d   1      33.227  20.622 -24.210  0.00  0.00     0.001 C 
ENDROOT
BRANCH   1   7
ATOM      7  N   UNL d   1      33.201  17.802 -23.459  0.00  0.00    -0.201 NA
ATOM      8  C   UNL d   1      32.518  17.386 -23.657  0.00  0.00     0.280 C 
ATOM      9  O   UNL d   1      31.807  17.780 -23.798  0.00  0.00    -0.265 OA
BRANCH   8  10
ATOM     10  C   UNL d   1      32.545  16.566 -23.716  0.00  0.00     0.058 A 
ATOM     11  C   UNL d   1      32.348  15.808 -23.457  0.00  0.00     0.005 A 
ATOM     12  C   UNL d   1      32.796  15.805 -24.090  0.00  0.00     0.005 A 
ENDBRANCH   8  10
ENDBRANCH   1   7
BRANCH   2  13
ATOM     13  C   UNL d   1      33.000  20.561 -22.386  0.00  0.00     0.306 C 
ATOM     14  O   UNL d   1      33.240  21.300 -22.653  0.00  0.00    -0.258 OA
BRANCH  13  15
ATOM     15  O   UNL d   1      32.690  20.477 -21.627  0.00  0.00    -0.271 OA
BRANCH  15  16
ATOM     16  C   UNL d   1      32.313  21.112 -21.255  0.00  0.00     0.126 C 
ATOM     17  C   UNL d   1      32.223  21.097 -20.426  0.00  0.00     0.029 C 
ENDBRANCH  15  16
ENDBRANCH  13  15
ENDBRANCH   2  13
TORSDOF 5
ENDMDL
MODEL 7
REMARK VINA RESULT:      -0.9      1.769      2.893
REMARK  5 active torsions:
REMARK  status: ('A' for Active; 'I' for Inactive)
REMARK    1  A    between atoms: N_5  and  C_1 
REMARK    2  A    between atoms: C_9  and  C_2 
REMARK       I    between atoms: C_6  and  N_5 
REMARK    3  A    between atoms: C_8  and  C_6 
REMARK    4  A    between atoms: O_14  and  C_9 
REMARK    5  A    between atoms: C_16  and  O_14 
ROOT
ATOM      1  C   UNL d   1      33.046  21.750 -20.984  0.00  0.00     0.114 A 
ATOM      2  C   UNL d   1      33.077  21.327 -22.254  0.00  0.00     0.094 A 
ATOM      3  S   UNL d   1      33.236  21.956 -21.765  0.00  0.00    -0.062 SA
ATOM      4  C   UNL d   1      32.779  20.715 -21.748  0.00  0.00     0.013 A 
ATOM      5  C   UNL d   1      32.766  20.977 -21.004  0.00  0.00     0.027 A 
ATOM      6  C   UNL d   1      32.537  19.956 -21.992  0.00  0.00     0.001 C 
ENDROOT
BRANCH   1   7
ATOM      7  N   UNL d   1      33.124  22.244 -20.278  0.00  0.00    -0.201 NA
ATOM      8  C   UNL d   1      32.478  22.685 -20.017  0.00  0.00     0.280 C 
ATOM      9  O   UNL d   1      31.758  22.662 -20.421  0.00  0.00    -0.265 OA
BRANCH   8  10
ATOM     10  C   UNL d   1      32.551  23.153 -19.346  0.00  0.00     0.058 A 
ATOM     11  C   UNL d   1      32.257  23.488 -18.652  0.00  0.00     0.005 A 
ATOM     12  C   UNL d   1      32.990  23.691 -18.796  0.00  0.00     0.005 A 
ENDBRANCH   8  10
ENDBRANCH   1   7
BRANCH   2  13
ATOM     13  C   UNL d   1      33.184  21.287 -23.085  0.00  0.00     0.306 C 
ATOM     14  O   UNL d   1      33.239  20.544 -23.435  0.00  0.00    -0.258 OA
BRANCH  13  15
ATOM     15  O   UNL d   1      33.233  21.965 -23.550  0.00  0.00    -0.271 OA
BRANCH  15  16
ATOM     16  C   UNL d   1      32.966  21.960 -24.333  0.00  0.00     0.126 C 
ATOM     17  C   UNL d   1      33.045  22.653 -24.789  0.00  0.00     0.029 C 
ENDBRANCH  15  16
ENDBRANCH  13  15
ENDBRANCH   2  13
TORSDOF 5
ENDMDL
MODEL 8
REMARK VINA RESULT:      -0.5      5.532      7.616
REMARK  5 active torsions:
REMARK  status: ('A' for Active; 'I' for Inactive)
REMARK    1  A    between atoms: N_5  and  C_1 
REMARK    2  A    between atoms: C_9  and  C_2 
REMARK       I    between atoms: C_6  and  N_5 
REMARK    3  A    between atoms: C_8  and  C_6 
REMARK    4  A    between atoms: O_14  and  C_9 
REMARK    5  A    between atoms: C_16  and  O_14 
ROOT
ATOM      1  C   UNL d   1      31.994  17.260 -24.069  0.00  0.00     0.114 A 
ATOM      2  C   UNL d   1      30.895  16.541 -24.327  0.00  0.00     0.094 A 
ATOM      3  S   UNL d   1      31.173  17.213 -23.965  0.00  0.00    -0.062 SA
ATOM      4  C   UNL d   1      31.577  16.165 -24.664  0.00  0.00     0.013 A 
ATOM      5  C   UNL d   1      32.217  16.599 -24.505  0.00  0.00     0.027 A 
ATOM      6  C   UNL d   1      31.577  15.453 -25.096  0.00  0.00     0.001 C 
ENDROOT
BRANCH   1   7
ATOM      7  N   UNL d   1      32.525  17.879 -23.780  0.00  0.00    -0.201 NA
ATOM      8  C   UNL d   1      32.263  18.400 -23.197  0.00  0.00     0.280 C 
ATOM      9  O   UNL d   1      31.501  18.340 -22.886  0.00  0.00    -0.265 OA
BRANCH   8  10
ATOM     10  C   UNL d   1      32.768  18.988 -22.923  0.00  0.00     0.058 A 
ATOM     11  C   UNL d   1      33.231  19.340 -22.337  0.00  0.00     0.005 A 
ATOM     12  C   UNL d   1      33.241  19.732 -23.005  0.00  0.00     0.005 A 
ENDBRANCH   8  10
ENDBRANCH   1   7
BRANCH   2  13
ATOM     13  C   UNL d   1      30.101  16.270 -24.363  0.00  0.00     0.306 C 
ATOM     14  O   UNL d   1      29.671  16.416 -25.048  0.00  0.00    -0.258 OA
BRANCH  13  15
ATOM     15  O   UNL d   1      29.752  15.868 -23.734  0.00  0.00    -0.271 OA
BRANCH  15  16
ATOM     16  C   UNL d   1      28.936  15.915 -23.606  0.00  0.00     0.126 C 
ATOM     17  C   UNL d   1      28.620  15.598 -22.904  0.00  0.00     0.029 C 
ENDBRANCH  15  16
ENDBRANCH  13  15
ENDBRANCH   2  13
TORSDOF 5
ENDMDL
MODEL 9
REMARK VINA RESULT:      -0.2      7.943      8.913
REMARK  5 active torsions:
REMARK  status: ('A' for Active; 'I' for Inactive)
REMARK    1  A    between atoms: N_5  and  C_1 
REMARK    2  A    between atoms: C_9  and  C_2 
REMARK       I    between atoms: C_6  and  N_5 
REMARK    3  A    between atoms: C_8  and  C_6 
REMARK    4  A    between atoms: O_14  and  C_9 
REMARK    5  A    between atoms: C_16  and  O_14 
ROOT
ATOM      1  C   UNL d   1      30.339  16.623 -24.667  0.00  0.00     0.114 A 
ATOM      2  C   UNL d   1      29.053  16.283 -24.517  0.00  0.00     0.094 A 
ATOM      3  S   UNL d   1      29.811  15.994 -24.548  0.00  0.00    -0.062 SA
ATOM      4  C   UNL d   1      29.124  17.122 -24.622  0.00  0.00     0.013 A 
ATOM      5  C   UNL d   1      29.886  17.309 -24.708  0.00  0.00     0.027 A 
ATOM      6  C   UNL d   1      28.494  17.667 -24.632  0.00  0.00     0.001 C 
ENDROOT
BRANCH   1   7
ATOM      7  N   UNL d   1      31.200  16.579 -24.735  0.00  0.00    -0.201 NA
ATOM      8  C   UNL d   1      31.663  16.590 -24.053  0.00  0.00     0.280 C 
ATOM      9  O   UNL d   1      31.316  16.642 -23.306  0.00  0.00    -0.265 OA
BRANCH   8  10
ATOM     10  C   UNL d   1      32.482  16.549 -24.118  0.00  0.00     0.058 A 
ATOM     11  C   UNL d   1      33.241  16.845 -23.991  0.00  0.00     0.005 A 
ATOM     12  C   UNL d   1      33.240  16.170 -24.370  0.00  0.00     0.005 A 
ENDBRANCH   8  10
ENDBRANCH   1   7
BRANCH   2  13
ATOM     13  C   UNL d   1      28.344  15.847 -24.406  0.00  0.00     0.306 C 
ATOM     14  O   UNL d   1      28.024  15.453 -25.052  0.00  0.00    -0.258 OA
BRANCH  13  15
ATOM     15  O   UNL d   1      27.969  15.809 -23.673  0.00  0.00    -0.271 OA
BRANCH  15  16
ATOM     16  C   UNL d   1      27.213  15.483 -23.604  0.00  0.00     0.126 C 
ATOM     17  C   UNL d   1      26.823  15.522 -22.868  0.00  0.00     0.029 C 
ENDBRANCH  15  16
ENDBRANCH  13  15
ENDBRANCH   2  13
TORSDOF 5
ENDMDL
