MODEL 1
REMARK VINA RESULT:      -5.5      0.000      0.000
REMARK  3 active torsions:
REMARK  status: ('A' for Active; 'I' for Inactive)
REMARK    1  A    between atoms: N_6  and  C_2 
REMARK    2  A    between atoms: C_8  and  C_5 
REMARK    3  A    between atoms: C_9  and  N_7 
ROOT
ATOM      1  N   UNL d   1     -41.642-123.074 -52.065  0.00  0.00    -0.281 N 
ATOM      2  N   UNL d   1     -41.729-123.099 -50.428  0.00  0.00    -0.301 N 
ATOM      3  C   UNL d   1     -41.571-122.369 -51.642  0.00  0.00     0.101 A 
ATOM      4  C   UNL d   1     -41.757-123.794 -51.665  0.00  0.00     0.101 A 
ATOM      5  C   UNL d   1     -41.798-123.794 -50.852  0.00  0.00     0.100 A 
ATOM      6  C   UNL d   1     -41.615-122.385 -50.830  0.00  0.00     0.100 A 
ENDROOT
BRANCH   1   7
ATOM      7  C   UNL d   1     -41.598-123.059 -52.891  0.00  0.00     0.183 A 
ATOM      8  N   UNL d   1     -41.292-123.646 -53.374  0.00  0.00    -0.183 NA
ATOM      9  C   UNL d   1     -41.360-123.399 -54.160  0.00  0.00     0.287 A 
ATOM     10  C   UNL d   1     -41.713-122.650 -54.154  0.00  0.00     0.090 A 
ATOM     11  O   UNL d   1     -41.123-123.817 -54.820  0.00  0.00    -0.265 OA
ATOM     12  S   UNL d   1     -41.861-122.437 -53.375  0.00  0.00    -0.045 SA
BRANCH  10  13
ATOM     13  C   UNL d   1     -41.884-122.198 -54.823  0.00  0.00     0.011 C 
ATOM     14  C   UNL d   1     -41.277-121.920 -55.310  0.00  0.00     0.001 C 
ATOM     15  C   UNL d   1     -42.668-122.022 -55.009  0.00  0.00     0.001 C 
ENDBRANCH  10  13
ENDBRANCH   1   7
BRANCH   2  16
ATOM     16  C   UNL d   1     -41.773-123.110 -49.601  0.00  0.00     0.064 A 
ATOM     17  C   UNL d   1     -42.433-122.789 -49.225  0.00  0.00     0.018 A 
ATOM     18  C   UNL d   1     -42.474-122.801 -48.398  0.00  0.00     0.002 A 
ATOM     19  C   UNL d   1     -41.863-123.130 -47.955  0.00  0.00     0.000 A 
ATOM     20  C   UNL d   1     -41.203-123.451 -48.342  0.00  0.00     0.002 A 
ATOM     21  C   UNL d   1     -41.905-123.142 -47.131  0.00  0.00     0.000 C 
ATOM     22  C   UNL d   1     -41.159-123.440 -49.169  0.00  0.00     0.018 A 
ENDBRANCH   2  16
TORSDOF 3
ENDMDL
MODEL 2
REMARK VINA RESULT:      -4.1      1.816      5.086
REMARK  3 active torsions:
REMARK  status: ('A' for Active; 'I' for Inactive)
REMARK    1  A    between atoms: N_6  and  C_2 
REMARK    2  A    between atoms: C_8  and  C_5 
REMARK    3  A    between atoms: C_9  and  N_7 
ROOT
ATOM      1  N   UNL d   1     -41.765-123.159 -50.702  0.00  0.00    -0.281 N 
ATOM      2  N   UNL d   1     -41.644-122.908 -52.318  0.00  0.00    -0.301 N 
ATOM      3  C   UNL d   1     -41.526-122.421 -50.983  0.00  0.00     0.101 A 
ATOM      4  C   UNL d   1     -41.944-123.772 -51.234  0.00  0.00     0.101 A 
ATOM      5  C   UNL d   1     -41.880-123.636 -52.034  0.00  0.00     0.100 A 
ATOM      6  C   UNL d   1     -41.467-122.299 -51.785  0.00  0.00     0.100 A 
ENDROOT
BRANCH   1   7
ATOM      7  C   UNL d   1     -41.826-123.284 -49.887  0.00  0.00     0.183 A 
ATOM      8  N   UNL d   1     -41.226-123.529 -49.384  0.00  0.00    -0.183 NA
ATOM      9  C   UNL d   1     -41.533-123.581 -48.618  0.00  0.00     0.287 A 
ATOM     10  C   UNL d   1     -42.331-123.364 -48.656  0.00  0.00     0.090 A 
ATOM     11  O   UNL d   1     -41.123-123.805 -47.949  0.00  0.00    -0.265 OA
ATOM     12  S   UNL d   1     -42.516-123.180 -49.435  0.00  0.00    -0.045 SA
BRANCH  10  13
ATOM     13  C   UNL d   1     -42.848-123.338 -48.014  0.00  0.00     0.011 C 
ATOM     14  C   UNL d   1     -42.699-122.840 -47.372  0.00  0.00     0.001 C 
ATOM     15  C   UNL d   1     -43.522-123.815 -48.011  0.00  0.00     0.001 C 
ENDBRANCH  10  13
ENDBRANCH   1   7
BRANCH   2  16
ATOM     16  C   UNL d   1     -41.582-122.779 -53.134  0.00  0.00     0.064 A 
ATOM     17  C   UNL d   1     -41.896-122.090 -53.461  0.00  0.00     0.018 A 
ATOM     18  C   UNL d   1     -41.833-121.963 -54.276  0.00  0.00     0.002 A 
ATOM     19  C   UNL d   1     -41.461-122.519 -54.757  0.00  0.00     0.000 A 
ATOM     20  C   UNL d   1     -41.149-123.209 -54.419  0.00  0.00     0.002 A 
ATOM     21  C   UNL d   1     -41.399-122.392 -55.569  0.00  0.00     0.000 C 
ATOM     22  C   UNL d   1     -41.210-123.338 -53.603  0.00  0.00     0.018 A 
ENDBRANCH   2  16
TORSDOF 3
ENDMDL
