MODEL 1
REMARK VINA RESULT:      -7.3      0.000      0.000
REMARK  3 active torsions:
REMARK  status: ('A' for Active; 'I' for Inactive)
REMARK    1  A    between atoms: S_3  and  N_1 
REMARK    2  A    between atoms: C_5  and  C_4 
REMARK    3  A    between atoms: C_12  and  C_6 
ROOT
ATOM      1  N   UNL d   1      53.523  32.450  53.611  0.00  0.00    -0.155 N 
ATOM      2  N   UNL d   1      53.196  33.142  53.332  0.00  0.00    -0.153 NA
ATOM      3  C   UNL d   1      52.979  31.852  53.524  0.00  0.00     0.098 A 
ATOM      4  C   UNL d   1      52.434  32.969  53.066  0.00  0.00     0.126 A 
ATOM      5  C   UNL d   1      52.300  32.171  53.185  0.00  0.00     0.043 A 
ENDROOT
BRANCH   3   6
ATOM      6  C   UNL d   1      53.085  31.061  53.736  0.00  0.00     0.047 A 
ATOM      7  C   UNL d   1      53.139  30.481  53.154  0.00  0.00     0.140 A 
ATOM      8  N   UNL d   1      53.245  29.690  53.366  0.00  0.00    -0.234 NA
ATOM      9 CL   UNL d   1      53.088  30.691  52.357  0.00  0.00    -0.061 Cl
ATOM     10  C   UNL d   1      53.296  29.481  54.162  0.00  0.00     0.082 A 
ATOM     11  C   UNL d   1      53.242  30.061  54.745  0.00  0.00     0.018 A 
ATOM     12  C   UNL d   1      53.402  28.691  54.374  0.00  0.00     0.018 A 
ATOM     13  C   UNL d   1      53.137  30.851  54.533  0.00  0.00     0.005 A 
ATOM     14  C   UNL d   1      53.294  29.852  55.542  0.00  0.00     0.002 A 
ATOM     15  C   UNL d   1      53.396  29.080  55.735  0.00  0.00     0.000 A 
ATOM     16  C   UNL d   1      53.450  28.500  55.152  0.00  0.00     0.002 A 
ATOM     17  C   UNL d   1      53.456  28.111  53.791  0.00  0.00     0.002 C 
ENDBRANCH   3   6
BRANCH   1  18
ATOM     18  S   UNL d   1      54.224  32.814  53.811  0.00  0.00     0.266 S 
ATOM     19  O   UNL d   1      54.873  32.802  53.304  0.00  0.00    -0.203 OA
ATOM     20  O   UNL d   1      54.094  33.141  54.557  0.00  0.00    -0.203 OA
ATOM     21  C   UNL d   1      54.827  33.231  54.190  0.00  0.00     0.165 C 
ENDBRANCH   1  18
BRANCH   4  22
ATOM     22  C   UNL d   1      51.909  33.495  52.744  0.00  0.00     0.119 A 
ATOM     23  O   UNL d   1      51.926  33.828  52.005  0.00  0.00    -0.304 OA
ATOM     24  C   UNL d   1      51.285  34.328  51.914  0.00  0.00     0.123 A 
ATOM     25  C   UNL d   1      50.851  34.315  52.604  0.00  0.00     0.029 A 
ATOM     26  C   UNL d   1      51.228  33.799  53.133  0.00  0.00     0.028 A 
ENDBRANCH   4  22
TORSDOF 3
ENDMDL
MODEL 2
REMARK VINA RESULT:      -7.2      1.986      5.034
REMARK  3 active torsions:
REMARK  status: ('A' for Active; 'I' for Inactive)
REMARK    1  A    between atoms: S_3  and  N_1 
REMARK    2  A    between atoms: C_5  and  C_4 
REMARK    3  A    between atoms: C_12  and  C_6 
ROOT
ATOM      1  N   UNL d   1      52.135  34.183  53.327  0.00  0.00    -0.155 N 
ATOM      2  N   UNL d   1      52.702  33.617  53.484  0.00  0.00    -0.153 NA
ATOM      3  C   UNL d   1      51.477  33.815  53.024  0.00  0.00     0.098 A 
ATOM      4  C   UNL d   1      52.387  32.884  53.273  0.00  0.00     0.126 A 
ATOM      5  C   UNL d   1      51.630  33.006  52.989  0.00  0.00     0.043 A 
ENDROOT
BRANCH   3   6
ATOM      6  C   UNL d   1      50.775  34.182  52.791  0.00  0.00     0.047 A 
ATOM      7  C   UNL d   1      50.556  34.186  51.997  0.00  0.00     0.140 A 
ATOM      8  N   UNL d   1      49.854  34.554  51.764  0.00  0.00    -0.234 NA
ATOM      9 CL   UNL d   1      51.038  33.822  51.434  0.00  0.00    -0.061 Cl
ATOM     10  C   UNL d   1      49.374  34.918  52.327  0.00  0.00     0.082 A 
ATOM     11  C   UNL d   1      49.593  34.914  53.121  0.00  0.00     0.018 A 
ATOM     12  C   UNL d   1      48.673  35.285  52.094  0.00  0.00     0.018 A 
ATOM     13  C   UNL d   1      50.294  34.547  53.355  0.00  0.00     0.005 A 
ATOM     14  C   UNL d   1      49.112  35.278  53.684  0.00  0.00     0.002 A 
ATOM     15  C   UNL d   1      48.433  35.632  53.445  0.00  0.00     0.000 A 
ATOM     16  C   UNL d   1      48.214  35.636  52.651  0.00  0.00     0.002 A 
ATOM     17  C   UNL d   1      48.453  35.289  51.299  0.00  0.00     0.002 C 
ENDBRANCH   3   6
BRANCH   1  18
ATOM     18  S   UNL d   1      52.612  34.791  53.587  0.00  0.00     0.266 S 
ATOM     19  O   UNL d   1      53.044  35.252  53.058  0.00  0.00    -0.203 OA
ATOM     20  O   UNL d   1      52.534  34.792  54.407  0.00  0.00    -0.203 OA
ATOM     21  C   UNL d   1      53.025  35.344  54.038  0.00  0.00     0.165 C 
ENDBRANCH   1  18
BRANCH   4  22
ATOM     22  C   UNL d   1      52.760  32.168  53.336  0.00  0.00     0.119 A 
ATOM     23  O   UNL d   1      53.425  31.987  53.762  0.00  0.00    -0.304 OA
ATOM     24  C   UNL d   1      53.607  31.195  53.666  0.00  0.00     0.123 A 
ATOM     25  C   UNL d   1      53.051  30.865  53.170  0.00  0.00     0.029 A 
ATOM     26  C   UNL d   1      52.514  31.459  52.954  0.00  0.00     0.028 A 
ENDBRANCH   4  22
TORSDOF 3
ENDMDL
MODEL 3
REMARK VINA RESULT:      -7.2      2.040      4.711
REMARK  3 active torsions:
REMARK  status: ('A' for Active; 'I' for Inactive)
REMARK    1  A    between atoms: S_3  and  N_1 
REMARK    2  A    between atoms: C_5  and  C_4 
REMARK    3  A    between atoms: C_12  and  C_6 
ROOT
ATOM      1  N   UNL d   1      52.659  32.584  53.206  0.00  0.00    -0.155 N 
ATOM      2  N   UNL d   1      53.389  32.496  53.560  0.00  0.00    -0.153 NA
ATOM      3  C   UNL d   1      52.409  33.349  53.313  0.00  0.00     0.098 A 
ATOM      4  C   UNL d   1      53.593  33.223  53.893  0.00  0.00     0.126 A 
ATOM      5  C   UNL d   1      52.988  33.750  53.741  0.00  0.00     0.043 A 
ENDROOT
BRANCH   3   6
ATOM      6  C   UNL d   1      51.699  33.673  53.043  0.00  0.00     0.047 A 
ATOM      7  C   UNL d   1      51.127  33.921  53.582  0.00  0.00     0.140 A 
ATOM      8  N   UNL d   1      50.417  34.245  53.312  0.00  0.00    -0.234 NA
ATOM      9 CL   UNL d   1      51.264  33.845  54.393  0.00  0.00    -0.061 Cl
ATOM     10  C   UNL d   1      50.281  34.320  52.502  0.00  0.00     0.082 A 
ATOM     11  C   UNL d   1      50.853  34.072  51.963  0.00  0.00     0.018 A 
ATOM     12  C   UNL d   1      49.572  34.644  52.233  0.00  0.00     0.018 A 
ATOM     13  C   UNL d   1      51.562  33.749  52.232  0.00  0.00     0.005 A 
ATOM     14  C   UNL d   1      50.717  34.148  51.153  0.00  0.00     0.002 A 
ATOM     15  C   UNL d   1      50.023  34.464  50.903  0.00  0.00     0.000 A 
ATOM     16  C   UNL d   1      49.451  34.712  51.442  0.00  0.00     0.002 A 
ATOM     17  C   UNL d   1      48.999  34.892  52.772  0.00  0.00     0.002 C 
ENDBRANCH   3   6
BRANCH   1  18
ATOM     18  S   UNL d   1      52.642  31.808  52.955  0.00  0.00     0.266 S 
ATOM     19  O   UNL d   1      52.907  31.594  52.205  0.00  0.00    -0.203 OA
ATOM     20  O   UNL d   1      52.329  31.382  53.588  0.00  0.00    -0.203 OA
ATOM     21  C   UNL d   1      52.544  30.991  52.894  0.00  0.00     0.165 C 
ENDBRANCH   1  18
BRANCH   4  22
ATOM     22  C   UNL d   1      54.274  33.387  54.301  0.00  0.00     0.119 A 
ATOM     23  O   UNL d   1      55.021  33.485  54.004  0.00  0.00    -0.304 OA
ATOM     24  C   UNL d   1      55.542  33.644  54.615  0.00  0.00     0.123 A 
ATOM     25  C   UNL d   1      55.121  33.648  55.313  0.00  0.00     0.029 A 
ATOM     26  C   UNL d   1      54.327  33.489  55.134  0.00  0.00     0.028 A 
ENDBRANCH   4  22
TORSDOF 3
ENDMDL
MODEL 4
REMARK VINA RESULT:      -7.0      1.853      2.681
REMARK  3 active torsions:
REMARK  status: ('A' for Active; 'I' for Inactive)
REMARK    1  A    between atoms: S_3  and  N_1 
REMARK    2  A    between atoms: C_5  and  C_4 
REMARK    3  A    between atoms: C_12  and  C_6 
ROOT
ATOM      1  N   UNL d   1      52.280  33.814  53.005  0.00  0.00    -0.155 N 
ATOM      2  N   UNL d   1      52.263  34.595  53.238  0.00  0.00    -0.153 NA
ATOM      3  C   UNL d   1      52.803  33.412  53.479  0.00  0.00     0.098 A 
ATOM      4  C   UNL d   1      52.787  34.677  53.871  0.00  0.00     0.126 A 
ATOM      5  C   UNL d   1      53.120  33.946  54.020  0.00  0.00     0.043 A 
ENDROOT
BRANCH   3   6
ATOM      6  C   UNL d   1      52.987  32.608  53.432  0.00  0.00     0.047 A 
ATOM      7  C   UNL d   1      53.771  32.369  53.352  0.00  0.00     0.140 A 
ATOM      8  N   UNL d   1      53.955  31.565  53.304  0.00  0.00    -0.234 NA
ATOM      9 CL   UNL d   1      54.374  32.933  53.319  0.00  0.00    -0.061 Cl
ATOM     10  C   UNL d   1      53.353  31.003  53.337  0.00  0.00     0.082 A 
ATOM     11  C   UNL d   1      52.569  31.242  53.417  0.00  0.00     0.018 A 
ATOM     12  C   UNL d   1      53.537  30.200  53.289  0.00  0.00     0.018 A 
ATOM     13  C   UNL d   1      52.384  32.044  53.465  0.00  0.00     0.005 A 
ATOM     14  C   UNL d   1      51.967  30.679  53.450  0.00  0.00     0.002 A 
ATOM     15  C   UNL d   1      52.158  29.901  53.402  0.00  0.00     0.000 A 
ATOM     16  C   UNL d   1      52.943  29.662  53.322  0.00  0.00     0.002 A 
ATOM     17  C   UNL d   1      54.323  29.960  53.209  0.00  0.00     0.002 C 
ENDBRANCH   3   6
BRANCH   1  18
ATOM     18  S   UNL d   1      51.734  33.937  52.412  0.00  0.00     0.266 S 
ATOM     19  O   UNL d   1      51.967  34.047  51.630  0.00  0.00    -0.203 OA
ATOM     20  O   UNL d   1      51.000  33.919  52.787  0.00  0.00    -0.203 OA
ATOM     21  C   UNL d   1      51.044  34.044  51.972  0.00  0.00     0.165 C 
ENDBRANCH   1  18
BRANCH   4  22
ATOM     22  C   UNL d   1      52.944  35.361  54.276  0.00  0.00     0.119 A 
ATOM     23  O   UNL d   1      53.419  35.977  54.048  0.00  0.00    -0.304 OA
ATOM     24  C   UNL d   1      53.418  36.555  54.628  0.00  0.00     0.123 A 
ATOM     25  C   UNL d   1      52.935  36.305  55.235  0.00  0.00     0.029 A 
ATOM     26  C   UNL d   1      52.631  35.560  55.031  0.00  0.00     0.028 A 
ENDBRANCH   4  22
TORSDOF 3
ENDMDL
MODEL 5
REMARK VINA RESULT:      -6.8      1.101      4.227
REMARK  3 active torsions:
REMARK  status: ('A' for Active; 'I' for Inactive)
REMARK    1  A    between atoms: S_3  and  N_1 
REMARK    2  A    between atoms: C_5  and  C_4 
REMARK    3  A    between atoms: C_12  and  C_6 
ROOT
ATOM      1  N   UNL d   1      53.452  32.223  54.144  0.00  0.00    -0.155 N 
ATOM      2  N   UNL d   1      53.753  31.521  54.428  0.00  0.00    -0.153 NA
ATOM      3  C   UNL d   1      52.788  32.064  53.704  0.00  0.00     0.098 A 
ATOM      4  C   UNL d   1      53.264  30.913  54.157  0.00  0.00     0.126 A 
ATOM      5  C   UNL d   1      52.667  31.248  53.710  0.00  0.00     0.043 A 
ENDROOT
BRANCH   3   6
ATOM      6  C   UNL d   1      52.314  32.618  53.317  0.00  0.00     0.047 A 
ATOM      7  C   UNL d   1      52.404  32.743  52.508  0.00  0.00     0.140 A 
ATOM      8  N   UNL d   1      51.929  33.297  52.121  0.00  0.00    -0.234 NA
ATOM      9 CL   UNL d   1      52.968  32.316  52.083  0.00  0.00    -0.061 Cl
ATOM     10  C   UNL d   1      51.365  33.725  52.545  0.00  0.00     0.082 A 
ATOM     11  C   UNL d   1      51.275  33.599  53.354  0.00  0.00     0.018 A 
ATOM     12  C   UNL d   1      50.892  34.278  52.158  0.00  0.00     0.018 A 
ATOM     13  C   UNL d   1      51.749  33.045  53.741  0.00  0.00     0.005 A 
ATOM     14  C   UNL d   1      50.712  34.026  53.778  0.00  0.00     0.002 A 
ATOM     15  C   UNL d   1      50.257  34.561  53.391  0.00  0.00     0.000 A 
ATOM     16  C   UNL d   1      50.347  34.687  52.581  0.00  0.00     0.002 A 
ATOM     17  C   UNL d   1      50.982  34.404  51.347  0.00  0.00     0.002 C 
ENDBRANCH   3   6
BRANCH   1  18
ATOM     18  S   UNL d   1      54.039  32.665  54.500  0.00  0.00     0.266 S 
ATOM     19  O   UNL d   1      54.714  32.892  54.086  0.00  0.00    -0.203 OA
ATOM     20  O   UNL d   1      53.780  32.787  55.273  0.00  0.00    -0.203 OA
ATOM     21  C   UNL d   1      54.503  33.098  55.026  0.00  0.00     0.165 C 
ENDBRANCH   1  18
BRANCH   4  22
ATOM     22  C   UNL d   1      53.356  30.122  54.307  0.00  0.00     0.119 A 
ATOM     23  O   UNL d   1      53.184  29.721  54.989  0.00  0.00    -0.304 OA
ATOM     24  C   UNL d   1      53.365  28.928  54.896  0.00  0.00     0.123 A 
ATOM     25  C   UNL d   1      53.658  28.821  54.142  0.00  0.00     0.029 A 
ATOM     26  C   UNL d   1      53.659  29.558  53.761  0.00  0.00     0.028 A 
ENDBRANCH   4  22
TORSDOF 3
ENDMDL
MODEL 6
REMARK VINA RESULT:      -6.7      1.476      1.801
REMARK  3 active torsions:
REMARK  status: ('A' for Active; 'I' for Inactive)
REMARK    1  A    between atoms: S_3  and  N_1 
REMARK    2  A    between atoms: C_5  and  C_4 
REMARK    3  A    between atoms: C_12  and  C_6 
ROOT
ATOM      1  N   UNL d   1      54.260  33.078  53.857  0.00  0.00    -0.155 N 
ATOM      2  N   UNL d   1      54.202  33.865  54.062  0.00  0.00    -0.153 NA
ATOM      3  C   UNL d   1      53.524  32.738  53.915  0.00  0.00     0.098 A 
ATOM      4  C   UNL d   1      53.412  34.015  54.252  0.00  0.00     0.126 A 
ATOM      5  C   UNL d   1      52.993  33.318  54.161  0.00  0.00     0.043 A 
ENDROOT
BRANCH   3   6
ATOM      6  C   UNL d   1      53.336  31.950  53.757  0.00  0.00     0.047 A 
ATOM      7  C   UNL d   1      52.925  31.754  53.070  0.00  0.00     0.140 A 
ATOM      8  N   UNL d   1      52.737  30.965  52.912  0.00  0.00    -0.234 NA
ATOM      9 CL   UNL d   1      52.701  32.346  52.540  0.00  0.00    -0.061 Cl
ATOM     10  C   UNL d   1      52.961  30.374  53.442  0.00  0.00     0.082 A 
ATOM     11  C   UNL d   1      53.372  30.570  54.129  0.00  0.00     0.018 A 
ATOM     12  C   UNL d   1      52.773  29.587  53.284  0.00  0.00     0.018 A 
ATOM     13  C   UNL d   1      53.560  31.358  54.287  0.00  0.00     0.005 A 
ATOM     14  C   UNL d   1      53.596  29.979  54.659  0.00  0.00     0.002 A 
ATOM     15  C   UNL d   1      53.407  29.217  54.494  0.00  0.00     0.000 A 
ATOM     16  C   UNL d   1      52.996  29.021  53.807  0.00  0.00     0.002 A 
ATOM     17  C   UNL d   1      52.361  29.391  52.596  0.00  0.00     0.002 C 
ENDBRANCH   3   6
BRANCH   1  18
ATOM     18  S   UNL d   1      55.061  33.132  53.715  0.00  0.00     0.266 S 
ATOM     19  O   UNL d   1      55.368  33.050  52.955  0.00  0.00    -0.203 OA
ATOM     20  O   UNL d   1      55.403  33.271  54.452  0.00  0.00    -0.203 OA
ATOM     21  C   UNL d   1      55.879  33.218  53.780  0.00  0.00     0.165 C 
ENDBRANCH   1  18
BRANCH   4  22
ATOM     22  C   UNL d   1      53.104  34.726  54.487  0.00  0.00     0.119 A 
ATOM     23  O   UNL d   1      53.136  35.065  55.222  0.00  0.00    -0.304 OA
ATOM     24  C   UNL d   1      52.751  35.787  55.210  0.00  0.00     0.123 A 
ATOM     25  C   UNL d   1      52.469  35.911  54.456  0.00  0.00     0.029 A 
ATOM     26  C   UNL d   1      52.680  35.258  53.991  0.00  0.00     0.028 A 
ENDBRANCH   4  22
TORSDOF 3
ENDMDL
MODEL 7
REMARK VINA RESULT:      -6.4      1.671      2.448
REMARK  3 active torsions:
REMARK  status: ('A' for Active; 'I' for Inactive)
REMARK    1  A    between atoms: S_3  and  N_1 
REMARK    2  A    between atoms: C_5  and  C_4 
REMARK    3  A    between atoms: C_12  and  C_6 
ROOT
ATOM      1  N   UNL d   1      51.907  34.039  53.413  0.00  0.00    -0.155 N 
ATOM      2  N   UNL d   1      51.338  34.597  53.242  0.00  0.00    -0.153 NA
ATOM      3  C   UNL d   1      51.660  33.319  53.128  0.00  0.00     0.098 A 
ATOM      4  C   UNL d   1      50.725  34.214  52.842  0.00  0.00     0.126 A 
ATOM      5  C   UNL d   1      50.924  33.424  52.772  0.00  0.00     0.043 A 
ENDROOT
BRANCH   3   6
ATOM      6  C   UNL d   1      52.071  32.605  53.184  0.00  0.00     0.047 A 
ATOM      7  C   UNL d   1      51.660  31.903  53.315  0.00  0.00     0.140 A 
ATOM      8  N   UNL d   1      52.071  31.188  53.370  0.00  0.00    -0.234 NA
ATOM      9 CL   UNL d   1      50.838  31.913  53.390  0.00  0.00    -0.061 Cl
ATOM     10  C   UNL d   1      52.892  31.179  53.294  0.00  0.00     0.082 A 
ATOM     11  C   UNL d   1      53.303  31.881  53.164  0.00  0.00     0.018 A 
ATOM     12  C   UNL d   1      53.302  30.465  53.350  0.00  0.00     0.018 A 
ATOM     13  C   UNL d   1      52.893  32.595  53.108  0.00  0.00     0.005 A 
ATOM     14  C   UNL d   1      54.124  31.872  53.088  0.00  0.00     0.002 A 
ATOM     15  C   UNL d   1      54.511  31.171  53.144  0.00  0.00     0.000 A 
ATOM     16  C   UNL d   1      54.101  30.469  53.275  0.00  0.00     0.002 A 
ATOM     17  C   UNL d   1      52.891  29.762  53.481  0.00  0.00     0.002 C 
ENDBRANCH   3   6
BRANCH   1  18
ATOM     18  S   UNL d   1      52.389  34.585  53.781  0.00  0.00     0.266 S 
ATOM     19  O   UNL d   1      52.431  34.635  54.602  0.00  0.00    -0.203 OA
ATOM     20  O   UNL d   1      52.756  34.997  53.169  0.00  0.00    -0.203 OA
ATOM     21  C   UNL d   1      52.924  35.189  53.953  0.00  0.00     0.165 C 
ENDBRANCH   1  18
BRANCH   4  22
ATOM     22  C   UNL d   1      50.046  34.558  52.567  0.00  0.00     0.119 A 
ATOM     23  O   UNL d   1      49.504  34.994  52.983  0.00  0.00    -0.304 OA
ATOM     24  C   UNL d   1      48.901  35.233  52.483  0.00  0.00     0.123 A 
ATOM     25  C   UNL d   1      49.060  34.945  51.737  0.00  0.00     0.029 A 
ATOM     26  C   UNL d   1      49.772  34.521  51.772  0.00  0.00     0.028 A 
ENDBRANCH   4  22
TORSDOF 3
ENDMDL
MODEL 8
REMARK VINA RESULT:      -5.9      2.465      3.471
REMARK  3 active torsions:
REMARK  status: ('A' for Active; 'I' for Inactive)
REMARK    1  A    between atoms: S_3  and  N_1 
REMARK    2  A    between atoms: C_5  and  C_4 
REMARK    3  A    between atoms: C_12  and  C_6 
ROOT
ATOM      1  N   UNL d   1      52.007  32.894  53.112  0.00  0.00    -0.155 N 
ATOM      2  N   UNL d   1      51.284  33.013  52.756  0.00  0.00    -0.153 NA
ATOM      3  C   UNL d   1      52.255  33.595  53.440  0.00  0.00     0.098 A 
ATOM      4  C   UNL d   1      51.079  33.806  52.866  0.00  0.00     0.126 A 
ATOM      5  C   UNL d   1      51.679  34.166  53.289  0.00  0.00     0.043 A 
ENDROOT
BRANCH   3   6
ATOM      6  C   UNL d   1      52.959  33.720  53.853  0.00  0.00     0.047 A 
ATOM      7  C   UNL d   1      53.475  34.317  53.617  0.00  0.00     0.140 A 
ATOM      8  N   UNL d   1      54.179  34.442  54.030  0.00  0.00    -0.234 NA
ATOM      9 CL   UNL d   1      53.288  34.792  52.968  0.00  0.00    -0.061 Cl
ATOM     10  C   UNL d   1      54.365  33.968  54.679  0.00  0.00     0.082 A 
ATOM     11  C   UNL d   1      53.849  33.370  54.915  0.00  0.00     0.018 A 
ATOM     12  C   UNL d   1      55.068  34.092  55.091  0.00  0.00     0.018 A 
ATOM     13  C   UNL d   1      53.145  33.246  54.503  0.00  0.00     0.005 A 
ATOM     14  C   UNL d   1      54.035  32.896  55.564  0.00  0.00     0.002 A 
ATOM     15  C   UNL d   1      54.722  33.027  55.957  0.00  0.00     0.000 A 
ATOM     16  C   UNL d   1      55.238  33.625  55.721  0.00  0.00     0.002 A 
ATOM     17  C   UNL d   1      55.585  34.691  54.855  0.00  0.00     0.002 C 
ENDBRANCH   3   6
BRANCH   1  18
ATOM     18  S   UNL d   1      52.026  32.106  52.903  0.00  0.00     0.266 S 
ATOM     19  O   UNL d   1      51.592  31.543  53.318  0.00  0.00    -0.203 OA
ATOM     20  O   UNL d   1      52.533  32.066  52.254  0.00  0.00    -0.203 OA
ATOM     21  C   UNL d   1      52.176  31.380  52.543  0.00  0.00     0.165 C 
ENDBRANCH   1  18
BRANCH   4  22
ATOM     22  C   UNL d   1      50.403  34.166  52.603  0.00  0.00     0.119 A 
ATOM     23  O   UNL d   1      50.096  34.162  51.853  0.00  0.00    -0.304 OA
ATOM     24  C   UNL d   1      49.403  34.598  51.837  0.00  0.00     0.123 A 
ATOM     25  C   UNL d   1      49.266  34.885  52.588  0.00  0.00     0.029 A 
ATOM     26  C   UNL d   1      49.882  34.624  53.078  0.00  0.00     0.028 A 
ENDBRANCH   4  22
TORSDOF 3
ENDMDL
MODEL 9
REMARK VINA RESULT:      -5.2      2.912      4.344
REMARK  3 active torsions:
REMARK  status: ('A' for Active; 'I' for Inactive)
REMARK    1  A    between atoms: S_3  and  N_1 
REMARK    2  A    between atoms: C_5  and  C_4 
REMARK    3  A    between atoms: C_12  and  C_6 
ROOT
ATOM      1  N   UNL d   1      49.985  34.448  52.166  0.00  0.00    -0.155 N 
ATOM      2  N   UNL d   1      49.331  34.921  52.282  0.00  0.00    -0.153 NA
ATOM      3  C   UNL d   1      50.397  34.398  52.865  0.00  0.00     0.098 A 
ATOM      4  C   UNL d   1      49.339  35.169  53.069  0.00  0.00     0.126 A 
ATOM      5  C   UNL d   1      49.998  34.846  53.430  0.00  0.00     0.043 A 
ENDROOT
BRANCH   3   6
ATOM      6  C   UNL d   1      51.094  33.975  52.992  0.00  0.00     0.047 A 
ATOM      7  C   UNL d   1      51.783  34.371  53.209  0.00  0.00     0.140 A 
ATOM      8  N   UNL d   1      52.481  33.947  53.335  0.00  0.00    -0.234 NA
ATOM      9 CL   UNL d   1      51.777  35.191  53.300  0.00  0.00    -0.061 Cl
ATOM     10  C   UNL d   1      52.486  33.127  53.244  0.00  0.00     0.082 A 
ATOM     11  C   UNL d   1      51.797  32.731  53.027  0.00  0.00     0.018 A 
ATOM     12  C   UNL d   1      53.183  32.704  53.371  0.00  0.00     0.018 A 
ATOM     13  C   UNL d   1      51.100  33.154  52.901  0.00  0.00     0.005 A 
ATOM     14  C   UNL d   1      51.803  31.911  52.937  0.00  0.00     0.002 A 
ATOM     15  C   UNL d   1      52.487  31.511  53.063  0.00  0.00     0.000 A 
ATOM     16  C   UNL d   1      53.176  31.907  53.280  0.00  0.00     0.002 A 
ATOM     17  C   UNL d   1      53.873  33.100  53.589  0.00  0.00     0.002 C 
ENDBRANCH   3   6
BRANCH   1  18
ATOM     18  S   UNL d   1      49.803  34.318  51.382  0.00  0.00     0.266 S 
ATOM     19  O   UNL d   1      50.329  34.516  50.781  0.00  0.00    -0.203 OA
ATOM     20  O   UNL d   1      49.050  33.982  51.388  0.00  0.00    -0.203 OA
ATOM     21  C   UNL d   1      49.439  34.111  50.672  0.00  0.00     0.165 C 
ENDBRANCH   1  18
BRANCH   4  22
ATOM     22  C   UNL d   1      48.791  35.649  53.425  0.00  0.00     0.119 A 
ATOM     23  O   UNL d   1      48.738  36.456  53.391  0.00  0.00    -0.304 OA
ATOM     24  C   UNL d   1      48.098  36.709  53.834  0.00  0.00     0.123 A 
ATOM     25  C   UNL d   1      47.737  36.054  54.156  0.00  0.00     0.029 A 
ATOM     26  C   UNL d   1      48.157  35.382  53.910  0.00  0.00     0.028 A 
ENDBRANCH   4  22
TORSDOF 3
ENDMDL
