MODEL 1
REMARK VINA RESULT:      -5.0      0.000      0.000
REMARK  3 active torsions:
REMARK  status: ('A' for Active; 'I' for Inactive)
REMARK    1  A    between atoms: N_5  and  C_1 
REMARK    2  A    between atoms: C_8  and  C_2 
REMARK       I    between atoms: C_7  and  N_5 
REMARK       I    between atoms: N_9  and  C_7 
REMARK    3  A    between atoms: C_13  and  N_9 
ROOT
ATOM      1  C   UNL d   1      58.552  -0.834  29.661  0.00  0.00     0.120 A 
ATOM      2  C   UNL d   1      59.226  -0.591  29.251  0.00  0.00     0.084 A 
ATOM      3  S   UNL d   1      58.512  -1.640  29.562  0.00  0.00    -0.068 SA
ATOM      4  C   UNL d   1      59.563  -1.239  28.926  0.00  0.00     0.013 A 
ATOM      5  C   UNL d   1      59.135  -1.874  29.111  0.00  0.00     0.031 A 
ATOM      6  C   UNL d   1      60.267  -1.250  28.455  0.00  0.00     0.001 C 
ATOM      7  C   UNL d   1      59.320  -2.653  28.867  0.00  0.00     0.007 C 
ENDROOT
BRANCH   1   8
ATOM      8  N   UNL d   1      57.677  -0.009  30.372  0.00  0.00    -0.184 NA
ATOM      9  C   UNL d   1      57.323  -0.267  31.053  0.00  0.00     0.369 C 
ATOM     10  N   UNL d   1      56.802   0.211  31.486  0.00  0.00    -0.191 NA
ATOM     11  O   UNL d   1      57.488  -1.030  31.323  0.00  0.00    -0.242 OA
BRANCH  10  12
ATOM     12  C   UNL d   1      56.455  -0.062  32.167  0.00  0.00     0.086 A 
ATOM     13  C   UNL d   1      56.360   0.444  32.818  0.00  0.00     0.019 A 
ATOM     14  C   UNL d   1      56.017   0.185  33.499  0.00  0.00     0.002 A 
ATOM     15  C   UNL d   1      55.753  -0.597  33.556  0.00  0.00     0.000 A 
ATOM     16  C   UNL d   1      55.844  -1.116  32.906  0.00  0.00     0.002 A 
ATOM     17  C   UNL d   1      56.198  -0.824  32.221  0.00  0.00     0.019 A 
ENDBRANCH  10  12
ENDBRANCH   1   8
BRANCH   2  18
ATOM     18  C   UNL d   1      59.498   0.191  29.191  0.00  0.00     0.299 C 
ATOM     19  O   UNL d   1      60.024   0.499  29.757  0.00  0.00    -0.264 OA
ATOM     20  N   UNL d   1      59.252   0.682  28.566  0.00  0.00    -0.102 N 
ENDBRANCH   2  18
TORSDOF 3
ENDMDL
MODEL 2
REMARK VINA RESULT:      -5.0      1.277      1.603
REMARK  3 active torsions:
REMARK  status: ('A' for Active; 'I' for Inactive)
REMARK    1  A    between atoms: N_5  and  C_1 
REMARK    2  A    between atoms: C_8  and  C_2 
REMARK       I    between atoms: C_7  and  N_5 
REMARK       I    between atoms: N_9  and  C_7 
REMARK    3  A    between atoms: C_13  and  N_9 
ROOT
ATOM      1  C   UNL d   1      59.047   0.496  30.316  0.00  0.00     0.120 A 
ATOM      2  C   UNL d   1      59.391   0.268  29.602  0.00  0.00     0.084 A 
ATOM      3  S   UNL d   1      59.665   0.677  30.812  0.00  0.00    -0.068 SA
ATOM      4  C   UNL d   1      60.185   0.317  29.685  0.00  0.00     0.013 A 
ATOM      5  C   UNL d   1      60.354   0.564  30.414  0.00  0.00     0.031 A 
ATOM      6  C   UNL d   1      60.759   0.135  29.090  0.00  0.00     0.001 C 
ATOM      7  C   UNL d   1      61.131   0.680  30.701  0.00  0.00     0.007 C 
ENDROOT
BRANCH   1   8
ATOM      8  N   UNL d   1      57.678   0.551  30.592  0.00  0.00    -0.184 NA
ATOM      9  C   UNL d   1      57.380   0.249  31.282  0.00  0.00     0.369 C 
ATOM     10  N   UNL d   1      56.571   0.275  31.459  0.00  0.00    -0.191 NA
ATOM     11  O   UNL d   1      57.900  -0.093  31.824  0.00  0.00    -0.242 OA
BRANCH  10  12
ATOM     12  C   UNL d   1      56.287  -0.032  32.154  0.00  0.00     0.086 A 
ATOM     13  C   UNL d   1      56.051   0.474  32.768  0.00  0.00     0.019 A 
ATOM     14  C   UNL d   1      55.767   0.182  33.463  0.00  0.00     0.002 A 
ATOM     15  C   UNL d   1      55.709  -0.636  33.572  0.00  0.00     0.000 A 
ATOM     16  C   UNL d   1      55.944  -1.156  32.961  0.00  0.00     0.002 A 
ATOM     17  C   UNL d   1      56.231  -0.829  32.259  0.00  0.00     0.019 A 
ENDBRANCH  10  12
ENDBRANCH   1   8
BRANCH   2  18
ATOM     18  C   UNL d   1      58.978   0.031  28.921  0.00  0.00     0.299 C 
ATOM     19  O   UNL d   1      59.003  -0.760  28.667  0.00  0.00    -0.264 OA
ATOM     20  N   UNL d   1      58.532   0.579  28.481  0.00  0.00    -0.102 N 
ENDBRANCH   2  18
TORSDOF 3
ENDMDL
MODEL 3
REMARK VINA RESULT:      -3.6      1.646      4.957
REMARK  3 active torsions:
REMARK  status: ('A' for Active; 'I' for Inactive)
REMARK    1  A    between atoms: N_5  and  C_1 
REMARK    2  A    between atoms: C_8  and  C_2 
REMARK       I    between atoms: C_7  and  N_5 
REMARK       I    between atoms: N_9  and  C_7 
REMARK    3  A    between atoms: C_13  and  N_9 
ROOT
ATOM      1  C   UNL d   1      56.835   0.474  32.882  0.00  0.00     0.120 A 
ATOM      2  C   UNL d   1      56.205   0.294  33.384  0.00  0.00     0.084 A 
ATOM      3  S   UNL d   1      57.465   0.638  33.369  0.00  0.00    -0.068 SA
ATOM      4  C   UNL d   1      56.465   0.352  34.137  0.00  0.00     0.013 A 
ATOM      5  C   UNL d   1      57.226   0.560  34.133  0.00  0.00     0.031 A 
ATOM      6  C   UNL d   1      56.005   0.216  34.834  0.00  0.00     0.001 C 
ATOM      7  C   UNL d   1      57.685   0.673  34.822  0.00  0.00     0.007 C 
ENDROOT
BRANCH   1   8
ATOM      8  N   UNL d   1      56.800   0.488  31.486  0.00  0.00    -0.184 NA
ATOM      9  C   UNL d   1      57.455   0.292  31.051  0.00  0.00     0.369 C 
ATOM     10  N   UNL d   1      57.449   0.295  30.222  0.00  0.00    -0.191 NA
ATOM     11  O   UNL d   1      58.148   0.082  31.448  0.00  0.00    -0.242 OA
BRANCH  10  12
ATOM     12  C   UNL d   1      58.113   0.096  29.800  0.00  0.00     0.086 A 
ATOM     13  C   UNL d   1      58.273  -0.699  29.624  0.00  0.00     0.019 A 
ATOM     14  C   UNL d   1      58.928  -0.909  29.206  0.00  0.00     0.002 A 
ATOM     15  C   UNL d   1      59.454  -0.326  28.945  0.00  0.00     0.000 A 
ATOM     16  C   UNL d   1      59.304   0.479  29.117  0.00  0.00     0.002 A 
ATOM     17  C   UNL d   1      58.625   0.665  29.547  0.00  0.00     0.019 A 
ENDBRANCH  10  12
ENDBRANCH   1   8
BRANCH   2  18
ATOM     18  C   UNL d   1      55.437   0.089  33.140  0.00  0.00     0.299 C 
ATOM     19  O   UNL d   1      54.843   0.667  33.088  0.00  0.00    -0.264 OA
ATOM     20  N   UNL d   1      55.249  -0.697  32.943  0.00  0.00    -0.102 N 
ENDBRANCH   2  18
TORSDOF 3
ENDMDL
