MODEL 1
REMARK VINA RESULT:      -5.9      0.000      0.000
REMARK  5 active torsions:
REMARK  status: ('A' for Active; 'I' for Inactive)
REMARK    1  A    between atoms: C_9  and  N_1 
REMARK    2  A    between atoms: C_2  and  C_9 
REMARK    3  A    between atoms: S_14  and  C_5 
REMARK    4  A    between atoms: C_12  and  C_16 
REMARK       I    between atoms: N_13  and  C_12 
REMARK    5  A    between atoms: C_16  and  S_14 
ROOT
ATOM      1  C   UNL d   1     -47.721  13.727  22.311  0.00  0.00     0.189 A 
ATOM      2  N   UNL d   1     -47.131  13.311  21.922  0.00  0.00    -0.265 N 
ATOM      3  C   UNL d   1     -46.441  13.369  22.370  0.00  0.00     0.202 A 
ATOM      4  N   UNL d   1     -47.399  14.042  22.998  0.00  0.00    -0.126 NA
ATOM      5  N   UNL d   1     -46.607  13.822  23.036  0.00  0.00    -0.121 NA
ATOM      6  C   UNL d   1     -47.200  12.902  21.207  0.00  0.00     0.103 C 
ENDROOT
BRANCH   1   7
ATOM      7  C   UNL d   1     -48.472  13.765  21.992  0.00  0.00     0.123 C 
BRANCH   7   8
ATOM      8  N   UNL d   1     -49.111  14.013  22.454  0.00  0.00    -0.265 N 
ATOM      9  C   UNL d   1     -49.292  14.796  22.656  0.00  0.00     0.296 A 
ATOM     10  S   UNL d   1     -49.972  14.782  23.121  0.00  0.00    -0.025 SA
ATOM     11  O   UNL d   1     -48.867  15.464  22.430  0.00  0.00    -0.259 OA
ATOM     12  C   UNL d   1     -50.207  13.985  23.203  0.00  0.00     0.050 A 
ATOM     13  C   UNL d   1     -49.671  13.516  22.790  0.00  0.00     0.074 A 
ATOM     14  C   UNL d   1     -50.843  13.638  23.605  0.00  0.00     0.008 A 
ATOM     15  C   UNL d   1     -49.770  12.691  22.777  0.00  0.00     0.018 A 
ATOM     16  C   UNL d   1     -50.403  12.340  23.176  0.00  0.00     0.002 A 
ATOM     17  C   UNL d   1     -50.938  12.824  23.591  0.00  0.00     0.001 A 
ENDBRANCH   7   8
ENDBRANCH   1   7
BRANCH   3  18
ATOM     18  S   UNL d   1     -45.711  13.033  22.184  0.00  0.00    -0.043 SA
BRANCH  18  19
ATOM     19  C   UNL d   1     -45.447  12.356  22.577  0.00  0.00     0.099 C 
BRANCH  19  20
ATOM     20  C   UNL d   1     -44.648  12.143  22.554  0.00  0.00     0.271 C 
ATOM     21  N   UNL d   1     -44.401  11.430  22.882  0.00  0.00    -0.272 N 
ATOM     22  C   UNL d   1     -43.591  11.326  22.800  0.00  0.00     0.083 A 
ATOM     23  C   UNL d   1     -44.951  10.925  23.236  0.00  0.00     0.083 A 
ATOM     24  C   UNL d   1     -43.123  10.694  23.050  0.00  0.00     0.019 A 
ATOM     25  C   UNL d   1     -43.350  10.013  23.442  0.00  0.00     0.002 A 
ATOM     26  C   UNL d   1     -44.127   9.794  23.686  0.00  0.00     0.002 A 
ATOM     27  C   UNL d   1     -44.828  10.187  23.599  0.00  0.00     0.019 A 
ATOM     28  O   UNL d   1     -44.103  12.643  22.203  0.00  0.00    -0.266 OA
ENDBRANCH  19  20
ENDBRANCH  18  19
ENDBRANCH   3  18
TORSDOF 5
ENDMDL
MODEL 2
REMARK VINA RESULT:      -5.8      1.445      2.080
REMARK  5 active torsions:
REMARK  status: ('A' for Active; 'I' for Inactive)
REMARK    1  A    between atoms: C_9  and  N_1 
REMARK    2  A    between atoms: C_2  and  C_9 
REMARK    3  A    between atoms: S_14  and  C_5 
REMARK    4  A    between atoms: C_12  and  C_16 
REMARK       I    between atoms: N_13  and  C_12 
REMARK    5  A    between atoms: C_16  and  S_14 
ROOT
ATOM      1  C   UNL d   1     -48.575  12.900  22.779  0.00  0.00     0.189 A 
ATOM      2  N   UNL d   1     -48.035  12.407  23.150  0.00  0.00    -0.265 N 
ATOM      3  C   UNL d   1     -47.281  12.606  22.880  0.00  0.00     0.202 A 
ATOM      4  N   UNL d   1     -48.159  13.404  22.282  0.00  0.00    -0.126 NA
ATOM      5  N   UNL d   1     -47.358  13.224  22.342  0.00  0.00    -0.121 NA
ATOM      6  C   UNL d   1     -48.200  11.811  23.698  0.00  0.00     0.103 C 
ENDROOT
BRANCH   1   7
ATOM      7  C   UNL d   1     -49.372  12.828  22.942  0.00  0.00     0.123 C 
BRANCH   7   8
ATOM      8  N   UNL d   1     -49.920  13.326  22.575  0.00  0.00    -0.265 N 
ATOM      9  C   UNL d   1     -50.310  13.178  21.858  0.00  0.00     0.296 A 
ATOM     10  S   UNL d   1     -50.803  13.820  21.706  0.00  0.00    -0.025 SA
ATOM     11  O   UNL d   1     -50.218  12.508  21.387  0.00  0.00    -0.259 OA
ATOM     12  C   UNL d   1     -50.713  14.363  22.333  0.00  0.00     0.050 A 
ATOM     13  C   UNL d   1     -50.168  14.052  22.865  0.00  0.00     0.074 A 
ATOM     14  C   UNL d   1     -51.064  15.100  22.477  0.00  0.00     0.008 A 
ATOM     15  C   UNL d   1     -49.969  14.480  23.549  0.00  0.00     0.018 A 
ATOM     16  C   UNL d   1     -50.317  15.216  23.698  0.00  0.00     0.002 A 
ATOM     17  C   UNL d   1     -50.867  15.520  23.153  0.00  0.00     0.001 A 
ENDBRANCH   7   8
ENDBRANCH   1   7
BRANCH   3  18
ATOM     18  S   UNL d   1     -46.574  12.250  23.109  0.00  0.00    -0.043 SA
BRANCH  18  19
ATOM     19  C   UNL d   1     -45.849  12.548  22.846  0.00  0.00     0.099 C 
BRANCH  19  20
ATOM     20  C   UNL d   1     -45.165  12.085  22.891  0.00  0.00     0.271 C 
ATOM     21  N   UNL d   1     -44.505  12.276  22.438  0.00  0.00    -0.272 N 
ATOM     22  C   UNL d   1     -43.890  11.748  22.564  0.00  0.00     0.083 A 
ATOM     23  C   UNL d   1     -44.526  12.932  21.935  0.00  0.00     0.083 A 
ATOM     24  C   UNL d   1     -43.138  11.739  22.224  0.00  0.00     0.019 A 
ATOM     25  C   UNL d   1     -42.819  12.255  21.675  0.00  0.00     0.002 A 
ATOM     26  C   UNL d   1     -43.189  12.926  21.323  0.00  0.00     0.002 A 
ATOM     27  C   UNL d   1     -43.932  13.226  21.433  0.00  0.00     0.019 A 
ATOM     28  O   UNL d   1     -45.145  11.434  23.388  0.00  0.00    -0.266 OA
ENDBRANCH  19  20
ENDBRANCH  18  19
ENDBRANCH   3  18
TORSDOF 5
ENDMDL
MODEL 3
REMARK VINA RESULT:      -5.0      1.372      1.907
REMARK  5 active torsions:
REMARK  status: ('A' for Active; 'I' for Inactive)
REMARK    1  A    between atoms: C_9  and  N_1 
REMARK    2  A    between atoms: C_2  and  C_9 
REMARK    3  A    between atoms: S_14  and  C_5 
REMARK    4  A    between atoms: C_12  and  C_16 
REMARK       I    between atoms: N_13  and  C_12 
REMARK    5  A    between atoms: C_16  and  S_14 
ROOT
ATOM      1  C   UNL d   1     -48.190  13.476  23.004  0.00  0.00     0.189 A 
ATOM      2  N   UNL d   1     -47.675  12.867  23.195  0.00  0.00    -0.265 N 
ATOM      3  C   UNL d   1     -46.924  13.074  22.926  0.00  0.00     0.202 A 
ATOM      4  N   UNL d   1     -47.760  14.060  22.618  0.00  0.00    -0.126 NA
ATOM      5  N   UNL d   1     -46.976  13.813  22.568  0.00  0.00    -0.121 NA
ATOM      6  C   UNL d   1     -47.861  12.164  23.588  0.00  0.00     0.103 C 
ENDROOT
BRANCH   1   7
ATOM      7  C   UNL d   1     -48.979  13.422  23.205  0.00  0.00     0.123 C 
BRANCH   7   8
ATOM      8  N   UNL d   1     -49.538  13.912  22.843  0.00  0.00    -0.265 N 
ATOM      9  C   UNL d   1     -49.724  14.688  23.068  0.00  0.00     0.296 A 
ATOM     10  S   UNL d   1     -50.308  14.962  22.556  0.00  0.00    -0.025 SA
ATOM     11  O   UNL d   1     -49.385  15.105  23.693  0.00  0.00    -0.259 OA
ATOM     12  C   UNL d   1     -50.479  14.351  22.014  0.00  0.00     0.050 A 
ATOM     13  C   UNL d   1     -50.000  13.706  22.197  0.00  0.00     0.074 A 
ATOM     14  C   UNL d   1     -51.011  14.309  21.381  0.00  0.00     0.008 A 
ATOM     15  C   UNL d   1     -50.053  13.011  21.744  0.00  0.00     0.018 A 
ATOM     16  C   UNL d   1     -50.583  12.965  21.111  0.00  0.00     0.002 A 
ATOM     17  C   UNL d   1     -51.061  13.623  20.935  0.00  0.00     0.001 A 
ENDBRANCH   7   8
ENDBRANCH   1   7
BRANCH   3  18
ATOM     18  S   UNL d   1     -46.239  12.622  23.002  0.00  0.00    -0.043 SA
BRANCH  18  19
ATOM     19  C   UNL d   1     -45.589  12.757  22.509  0.00  0.00     0.099 C 
BRANCH  19  20
ATOM     20  C   UNL d   1     -44.907  12.294  22.579  0.00  0.00     0.271 C 
ATOM     21  N   UNL d   1     -44.234  12.480  22.144  0.00  0.00    -0.272 N 
ATOM     22  C   UNL d   1     -43.623  11.953  22.294  0.00  0.00     0.083 A 
ATOM     23  C   UNL d   1     -44.238  13.132  21.636  0.00  0.00     0.083 A 
ATOM     24  C   UNL d   1     -42.861  11.940  21.977  0.00  0.00     0.019 A 
ATOM     25  C   UNL d   1     -42.525  12.452  21.433  0.00  0.00     0.002 A 
ATOM     26  C   UNL d   1     -42.884  13.120  21.064  0.00  0.00     0.002 A 
ATOM     27  C   UNL d   1     -43.629  13.421  21.149  0.00  0.00     0.019 A 
ATOM     28  O   UNL d   1     -44.903  11.648  23.082  0.00  0.00    -0.266 OA
ENDBRANCH  19  20
ENDBRANCH  18  19
ENDBRANCH   3  18
TORSDOF 5
ENDMDL
MODEL 4
REMARK VINA RESULT:      -4.4      1.247      5.701
REMARK  5 active torsions:
REMARK  status: ('A' for Active; 'I' for Inactive)
REMARK    1  A    between atoms: C_9  and  N_1 
REMARK    2  A    between atoms: C_2  and  C_9 
REMARK    3  A    between atoms: S_14  and  C_5 
REMARK    4  A    between atoms: C_12  and  C_16 
REMARK       I    between atoms: N_13  and  C_12 
REMARK    5  A    between atoms: C_16  and  S_14 
ROOT
ATOM      1  C   UNL d   1     -45.908  12.557  22.831  0.00  0.00     0.189 A 
ATOM      2  N   UNL d   1     -46.398  13.058  22.406  0.00  0.00    -0.265 N 
ATOM      3  C   UNL d   1     -46.659  13.651  22.915  0.00  0.00     0.202 A 
ATOM      4  N   UNL d   1     -45.864  12.837  23.601  0.00  0.00    -0.126 NA
ATOM      5  N   UNL d   1     -46.328  13.515  23.656  0.00  0.00    -0.121 NA
ATOM      6  C   UNL d   1     -46.604  12.992  21.608  0.00  0.00     0.103 C 
ENDROOT
BRANCH   1   7
ATOM      7  C   UNL d   1     -45.566  11.912  22.464  0.00  0.00     0.123 C 
BRANCH   7   8
ATOM      8  N   UNL d   1     -45.279  11.279  22.911  0.00  0.00    -0.265 N 
ATOM      9  C   UNL d   1     -45.739  10.732  23.332  0.00  0.00     0.296 A 
ATOM     10  S   UNL d   1     -45.223  10.201  23.695  0.00  0.00    -0.025 SA
ATOM     11  O   UNL d   1     -46.561  10.725  23.377  0.00  0.00    -0.259 OA
ATOM     12  C   UNL d   1     -44.445  10.426  23.494  0.00  0.00     0.050 A 
ATOM     13  C   UNL d   1     -44.487  11.091  23.011  0.00  0.00     0.074 A 
ATOM     14  C   UNL d   1     -43.709  10.102  23.695  0.00  0.00     0.008 A 
ATOM     15  C   UNL d   1     -43.788  11.438  22.725  0.00  0.00     0.018 A 
ATOM     16  C   UNL d   1     -43.051  11.118  22.923  0.00  0.00     0.002 A 
ATOM     17  C   UNL d   1     -43.021  10.445  23.412  0.00  0.00     0.001 A 
ENDBRANCH   7   8
ENDBRANCH   1   7
BRANCH   3  18
ATOM     18  S   UNL d   1     -47.163  14.273  22.719  0.00  0.00    -0.043 SA
BRANCH  18  19
ATOM     19  C   UNL d   1     -47.897  14.354  23.091  0.00  0.00     0.099 C 
BRANCH  19  20
ATOM     20  C   UNL d   1     -48.425  14.944  22.852  0.00  0.00     0.271 C 
ATOM     21  N   UNL d   1     -49.234  14.845  22.963  0.00  0.00    -0.272 N 
ATOM     22  C   UNL d   1     -49.657  15.492  22.688  0.00  0.00     0.083 A 
ATOM     23  C   UNL d   1     -49.521  14.153  23.315  0.00  0.00     0.083 A 
ATOM     24  C   UNL d   1     -50.473  15.616  22.694  0.00  0.00     0.019 A 
ATOM     25  C   UNL d   1     -51.064  15.124  22.975  0.00  0.00     0.002 A 
ATOM     26  C   UNL d   1     -50.976  14.364  23.329  0.00  0.00     0.002 A 
ATOM     27  C   UNL d   1     -50.307  13.936  23.480  0.00  0.00     0.019 A 
ATOM     28  O   UNL d   1     -48.141  15.628  22.503  0.00  0.00    -0.266 OA
ENDBRANCH  19  20
ENDBRANCH  18  19
ENDBRANCH   3  18
TORSDOF 5
ENDMDL
MODEL 5
REMARK VINA RESULT:      -4.1      1.970      2.600
REMARK  5 active torsions:
REMARK  status: ('A' for Active; 'I' for Inactive)
REMARK    1  A    between atoms: C_9  and  N_1 
REMARK    2  A    between atoms: C_2  and  C_9 
REMARK    3  A    between atoms: S_14  and  C_5 
REMARK    4  A    between atoms: C_12  and  C_16 
REMARK       I    between atoms: N_13  and  C_12 
REMARK    5  A    between atoms: C_16  and  S_14 
ROOT
ATOM      1  C   UNL d   1     -46.773  13.228  22.562  0.00  0.00     0.189 A 
ATOM      2  N   UNL d   1     -46.090  12.797  22.709  0.00  0.00    -0.265 N 
ATOM      3  C   UNL d   1     -45.521  13.028  22.160  0.00  0.00     0.202 A 
ATOM      4  N   UNL d   1     -46.628  13.724  21.924  0.00  0.00    -0.126 NA
ATOM      5  N   UNL d   1     -45.854  13.602  21.673  0.00  0.00    -0.121 NA
ATOM      6  C   UNL d   1     -45.978  12.230  23.299  0.00  0.00     0.103 C 
ENDROOT
BRANCH   1   7
ATOM      7  C   UNL d   1     -47.435  13.114  23.026  0.00  0.00     0.123 C 
BRANCH   7   8
ATOM      8  N   UNL d   1     -48.164  13.430  22.800  0.00  0.00    -0.265 N 
ATOM      9  C   UNL d   1     -48.390  14.226  22.859  0.00  0.00     0.296 A 
ATOM     10  S   UNL d   1     -49.159  14.289  22.570  0.00  0.00    -0.025 SA
ATOM     11  O   UNL d   1     -47.926  14.839  23.155  0.00  0.00    -0.259 OA
ATOM     12  C   UNL d   1     -49.404  13.527  22.333  0.00  0.00     0.050 A 
ATOM     13  C   UNL d   1     -48.786  13.003  22.477  0.00  0.00     0.074 A 
ATOM     14  C   UNL d   1     -50.114  13.255  22.004  0.00  0.00     0.008 A 
ATOM     15  C   UNL d   1     -48.877  12.198  22.292  0.00  0.00     0.018 A 
ATOM     16  C   UNL d   1     -49.584  11.921  21.964  0.00  0.00     0.002 A 
ATOM     17  C   UNL d   1     -50.201  12.461  21.823  0.00  0.00     0.001 A 
ENDBRANCH   7   8
ENDBRANCH   1   7
BRANCH   3  18
ATOM     18  S   UNL d   1     -44.752  12.736  22.105  0.00  0.00    -0.043 SA
BRANCH  18  19
ATOM     19  C   UNL d   1     -44.174  13.149  21.682  0.00  0.00     0.099 C 
BRANCH  19  20
ATOM     20  C   UNL d   1     -43.411  12.838  21.602  0.00  0.00     0.271 C 
ATOM     21  N   UNL d   1     -42.787  13.325  21.379  0.00  0.00    -0.272 N 
ATOM     22  C   UNL d   1     -42.082  12.909  21.333  0.00  0.00     0.083 A 
ATOM     23  C   UNL d   1     -42.922  14.128  21.233  0.00  0.00     0.083 A 
ATOM     24  C   UNL d   1     -41.331  13.185  21.130  0.00  0.00     0.019 A 
ATOM     25  C   UNL d   1     -41.103  13.944  20.924  0.00  0.00     0.002 A 
ATOM     26  C   UNL d   1     -41.589  14.630  20.870  0.00  0.00     0.002 A 
ATOM     27  C   UNL d   1     -42.382  14.717  21.003  0.00  0.00     0.019 A 
ATOM     28  O   UNL d   1     -43.278  12.043  21.747  0.00  0.00    -0.266 OA
ENDBRANCH  19  20
ENDBRANCH  18  19
ENDBRANCH   3  18
TORSDOF 5
ENDMDL
