MODEL 1
REMARK VINA RESULT:      35.6      0.000      0.000
REMARK  2 active torsions:
REMARK  status: ('A' for Active; 'I' for Inactive)
REMARK    1  A    between atoms: C_8  and  C_1 
REMARK    2  A    between atoms: N_5  and  C_8 
ROOT
ATOM      1  C   UNL d   1      13.046  12.242  -3.448  0.00  0.00     0.059 A 
ATOM      2  C   UNL d   1      13.258  13.481  -4.111  0.00  0.00     0.121 A 
ATOM      3  C   UNL d   1      13.028  13.063  -3.453  0.00  0.00     0.214 A 
ATOM      4  C   UNL d   1      13.517  13.075  -4.788  0.00  0.00     0.032 A 
ATOM      5  C   UNL d   1      13.540  12.258  -4.795  0.00  0.00     0.059 A 
ATOM      6  C   UNL d   1      13.301  11.842  -4.116  0.00  0.00     0.016 A 
ATOM      7  N   UNL d   1      13.239  14.298  -4.114  0.00  0.00    -0.241 NA
ATOM      8 CL   UNL d   1      13.796  11.856  -5.465  0.00  0.00    -0.082 Cl
ATOM      9  O   UNL d   1      12.769  13.469  -2.775  0.00  0.00    -0.285 OA
ATOM     10  C   UNL d   1      13.747  13.500  -5.445  0.00  0.00     0.004 A 
ATOM     11  C   UNL d   1      13.471  14.725  -4.775  0.00  0.00     0.099 A 
ATOM     12  C   UNL d   1      13.726  14.325  -5.443  0.00  0.00     0.021 A 
ENDROOT
BRANCH   1  13
ATOM     13  C   UNL d   1      12.809  11.815  -2.772  0.00  0.00     0.084 C 
BRANCH  13  14
ATOM     14  N   UNL d   1      13.289  11.813  -2.094  0.00  0.00    -0.302 N 
ATOM     15  C   UNL d   1      14.098  11.844  -2.172  0.00  0.00     0.080 A 
ATOM     16  C   UNL d   1      14.579  11.843  -1.493  0.00  0.00     0.018 A 
ATOM     17  C   UNL d   1      15.399  11.874  -1.569  0.00  0.00     0.002 A 
ATOM     18  C   UNL d   1      14.229  11.809  -0.743  0.00  0.00     0.003 A 
ATOM     19  C   UNL d   1      15.882  11.872  -0.887  0.00  0.00     0.000 A 
ATOM     20  C   UNL d   1      15.536  11.839  -0.139  0.00  0.00     0.000 A 
ATOM     21  C   UNL d   1      14.721  11.808  -0.067  0.00  0.00     0.000 A 
ATOM     22  C   UNL d   1      13.422  11.779  -0.676  0.00  0.00     0.019 A 
ATOM     23  C   UNL d   1      12.932  11.780  -1.348  0.00  0.00     0.080 A 
ENDBRANCH  13  14
ENDBRANCH   1  13
TORSDOF 2
ENDMDL
