MODEL 1
REMARK VINA RESULT:      47.5      0.000      0.000
REMARK  4 active torsions:
REMARK  status: ('A' for Active; 'I' for Inactive)
REMARK    1  A    between atoms: C_2  and  C_1 
REMARK       I    between atoms: N_7  and  C_2 
REMARK    2  A    between atoms: C_12  and  N_7 
REMARK    3  A    between atoms: C_13  and  N_7 
REMARK    4  A    between atoms: O_14  and  C_11 
ROOT
ATOM      1  C   UNL d   1      13.582  12.296  -2.979  0.00  0.00     0.120 A 
ATOM      2  C   UNL d   1      14.392  12.147  -2.941  0.00  0.00     0.305 A 
ATOM      3  O   UNL d   1      14.749  12.025  -2.202  0.00  0.00    -0.271 OA
ATOM      4  C   UNL d   1      13.129  12.324  -2.286  0.00  0.00     0.012 A 
ATOM      5  C   UNL d   1      14.302  12.051  -1.510  0.00  0.00     0.125 A 
ATOM      6  C   UNL d   1      13.485  12.202  -1.554  0.00  0.00     0.025 A 
ATOM      7  O   UNL d   1      14.840  12.121  -3.634  0.00  0.00    -0.259 OA
ATOM      8  C   UNL d   1      14.655  11.930  -0.782  0.00  0.00     0.117 A 
ATOM      9  C   UNL d   1      13.035  12.229  -0.866  0.00  0.00     0.002 A 
ATOM     10  C   UNL d   1      13.390  12.108  -0.134  0.00  0.00     0.002 A 
ATOM     11  C   UNL d   1      14.208  11.957  -0.090  0.00  0.00     0.026 A 
ENDROOT
BRANCH   1  12
ATOM     12  C   UNL d   1      13.222  12.419  -3.713  0.00  0.00     0.270 C 
ATOM     13  N   UNL d   1      13.191  13.184  -4.031  0.00  0.00    -0.273 N 
ATOM     14  O   UNL d   1      12.896  11.784  -4.128  0.00  0.00    -0.266 OA
BRANCH  13  15
ATOM     15  C   UNL d   1      13.518  13.819  -3.613  0.00  0.00     0.067 A 
ATOM     16  C   UNL d   1      14.306  14.020  -3.730  0.00  0.00     0.018 A 
ATOM     17  C   UNL d   1      14.630  14.653  -3.312  0.00  0.00     0.002 A 
ATOM     18  C   UNL d   1      14.168  15.085  -2.778  0.00  0.00     0.000 A 
ATOM     19  C   UNL d   1      13.370  14.877  -2.665  0.00  0.00     0.002 A 
ATOM     20  C   UNL d   1      13.044  14.246  -3.080  0.00  0.00     0.018 A 
ENDBRANCH  13  15
BRANCH  13  21
ATOM     21  C   UNL d   1      12.832  13.315  -4.766  0.00  0.00     0.083 C 
ATOM     22  C   UNL d   1      12.775  12.699  -5.311  0.00  0.00     0.021 C 
ENDBRANCH  13  21
ENDBRANCH   1  12
BRANCH   8  23
ATOM     23  O   UNL d   1      15.473  11.779  -0.738  0.00  0.00    -0.326 OA
ATOM     24  C   UNL d   1      15.960  12.285  -0.303  0.00  0.00     0.181 C 
ENDBRANCH   8  23
TORSDOF 4
ENDMDL
