MODEL 1
REMARK VINA RESULT:      -7.3      0.000      0.000
REMARK  4 active torsions:
REMARK  status: ('A' for Active; 'I' for Inactive)
REMARK    1  A    between atoms: N_7  and  C_6 
REMARK       I    between atoms: C_8  and  N_7 
REMARK    2  A    between atoms: C_14  and  C_8 
REMARK    3  A    between atoms: C_16  and  C_14 
REMARK    4  A    between atoms: C_17  and  C_16 
ROOT
ATOM      1  C   UNL d   1     -48.615  14.159  22.862  0.00  0.00     0.269 A 
ATOM      2  N   UNL d   1     -49.240  14.704  22.762  0.00  0.00    -0.239 N 
ATOM      3  C   UNL d   1     -48.962  13.424  23.009  0.00  0.00     0.079 A 
ATOM      4  C   UNL d   1     -49.940  14.307  22.845  0.00  0.00     0.267 A 
ATOM      5  C   UNL d   1     -49.782  13.515  22.999  0.00  0.00     0.063 A 
ATOM      6  C   UNL d   1     -48.631  12.685  23.150  0.00  0.00     0.089 A 
ATOM      7  O   UNL d   1     -47.809  14.318  22.824  0.00  0.00    -0.267 OA
ATOM      8  O   UNL d   1     -50.705  14.650  22.785  0.00  0.00    -0.267 OA
ATOM      9  C   UNL d   1     -49.153  15.509  22.604  0.00  0.00     0.105 C 
ATOM     10  C   UNL d   1     -50.270  12.868  23.129  0.00  0.00     0.005 A 
ATOM     11  C   UNL d   1     -49.121  12.034  23.282  0.00  0.00     0.019 A 
ATOM     12  C   UNL d   1     -49.940  12.125  23.271  0.00  0.00     0.002 A 
ENDROOT
BRANCH   6  13
ATOM     13  N   UNL d   1     -47.811  12.594  23.161  0.00  0.00    -0.208 NA
ATOM     14  C   UNL d   1     -47.483  11.873  23.386  0.00  0.00     0.279 C 
ATOM     15  O   UNL d   1     -47.967  11.242  23.600  0.00  0.00    -0.265 OA
BRANCH  14  16
ATOM     16  C   UNL d   1     -46.664  11.782  23.396  0.00  0.00     0.062 C 
BRANCH  16  17
ATOM     17  C   UNL d   1     -46.334  11.033  23.504  0.00  0.00     0.005 C 
BRANCH  17  18
ATOM     18  C   UNL d   1     -45.520  10.925  23.418  0.00  0.00     0.000 A 
ATOM     19  C   UNL d   1     -45.063  11.512  23.043  0.00  0.00     0.000 A 
ATOM     20  C   UNL d   1     -44.250  11.404  22.958  0.00  0.00     0.000 A 
ATOM     21  C   UNL d   1     -43.894  10.709  23.248  0.00  0.00     0.000 A 
ATOM     22  C   UNL d   1     -44.348  10.141  23.613  0.00  0.00     0.000 A 
ATOM     23  C   UNL d   1     -45.162  10.249  23.698  0.00  0.00     0.000 A 
ENDBRANCH  17  18
ENDBRANCH  16  17
ENDBRANCH  14  16
ENDBRANCH   6  13
TORSDOF 4
ENDMDL
MODEL 2
REMARK VINA RESULT:      -7.3      1.127      1.810
REMARK  4 active torsions:
REMARK  status: ('A' for Active; 'I' for Inactive)
REMARK    1  A    between atoms: N_7  and  C_6 
REMARK       I    between atoms: C_8  and  N_7 
REMARK    2  A    between atoms: C_14  and  C_8 
REMARK    3  A    between atoms: C_16  and  C_14 
REMARK    4  A    between atoms: C_17  and  C_16 
ROOT
ATOM      1  C   UNL d   1     -48.963  12.720  22.132  0.00  0.00     0.269 A 
ATOM      2  N   UNL d   1     -49.680  13.023  21.828  0.00  0.00    -0.239 N 
ATOM      3  C   UNL d   1     -48.496  13.371  22.332  0.00  0.00     0.079 A 
ATOM      4  C   UNL d   1     -49.644  13.831  21.847  0.00  0.00     0.267 A 
ATOM      5  C   UNL d   1     -48.917  14.059  22.156  0.00  0.00     0.063 A 
ATOM      6  C   UNL d   1     -47.741  13.420  22.652  0.00  0.00     0.089 A 
ATOM      7  O   UNL d   1     -48.757  11.928  22.217  0.00  0.00    -0.267 OA
ATOM      8  O   UNL d   1     -50.251  14.352  21.591  0.00  0.00    -0.267 OA
ATOM      9  C   UNL d   1     -50.315  12.571  21.558  0.00  0.00     0.105 C 
ATOM     10  C   UNL d   1     -48.583  14.795  22.300  0.00  0.00     0.005 A 
ATOM     11  C   UNL d   1     -47.404  14.159  22.798  0.00  0.00     0.019 A 
ATOM     12  C   UNL d   1     -47.825  14.847  22.622  0.00  0.00     0.002 A 
ENDROOT
BRANCH   6  13
ATOM     13  N   UNL d   1     -47.320  12.733  22.829  0.00  0.00    -0.208 NA
ATOM     14  C   UNL d   1     -46.564  12.788  23.149  0.00  0.00     0.279 C 
ATOM     15  O   UNL d   1     -46.224  13.523  23.294  0.00  0.00    -0.265 OA
BRANCH  14  16
ATOM     16  C   UNL d   1     -46.143  12.101  23.325  0.00  0.00     0.062 C 
BRANCH  16  17
ATOM     17  C   UNL d   1     -45.423  11.951  22.951  0.00  0.00     0.005 C 
BRANCH  17  18
ATOM     18  C   UNL d   1     -44.977  11.290  23.165  0.00  0.00     0.000 A 
ATOM     19  C   UNL d   1     -44.152  11.295  23.051  0.00  0.00     0.000 A 
ATOM     20  C   UNL d   1     -43.706  10.634  23.265  0.00  0.00     0.000 A 
ATOM     21  C   UNL d   1     -44.086   9.969  23.591  0.00  0.00     0.000 A 
ATOM     22  C   UNL d   1     -44.893   9.974  23.698  0.00  0.00     0.000 A 
ATOM     23  C   UNL d   1     -45.339  10.635  23.485  0.00  0.00     0.000 A 
ENDBRANCH  17  18
ENDBRANCH  16  17
ENDBRANCH  14  16
ENDBRANCH   6  13
TORSDOF 4
ENDMDL
MODEL 3
REMARK VINA RESULT:      -7.1      1.510      5.206
REMARK  4 active torsions:
REMARK  status: ('A' for Active; 'I' for Inactive)
REMARK    1  A    between atoms: N_7  and  C_6 
REMARK       I    between atoms: C_8  and  N_7 
REMARK    2  A    between atoms: C_14  and  C_8 
REMARK    3  A    between atoms: C_16  and  C_14 
REMARK    4  A    between atoms: C_17  and  C_16 
ROOT
ATOM      1  C   UNL d   1     -46.101  11.669  23.294  0.00  0.00     0.269 A 
ATOM      2  N   UNL d   1     -45.443  11.154  23.310  0.00  0.00    -0.239 N 
ATOM      3  C   UNL d   1     -45.861  12.348  22.889  0.00  0.00     0.079 A 
ATOM      4  C   UNL d   1     -44.827  11.514  22.927  0.00  0.00     0.267 A 
ATOM      5  C   UNL d   1     -45.073  12.253  22.661  0.00  0.00     0.063 A 
ATOM      6  C   UNL d   1     -46.264  13.039  22.701  0.00  0.00     0.089 A 
ATOM      7  O   UNL d   1     -46.845  11.531  23.617  0.00  0.00    -0.267 OA
ATOM      8  O   UNL d   1     -44.063  11.186  22.818  0.00  0.00    -0.267 OA
ATOM      9  C   UNL d   1     -45.427  10.407  23.659  0.00  0.00     0.105 C 
ATOM     10  C   UNL d   1     -44.689  12.848  22.246  0.00  0.00     0.005 A 
ATOM     11  C   UNL d   1     -45.879  13.638  22.283  0.00  0.00     0.019 A 
ATOM     12  C   UNL d   1     -45.092  13.542  22.056  0.00  0.00     0.002 A 
ENDROOT
BRANCH   6  13
ATOM     13  N   UNL d   1     -47.051  13.134  22.928  0.00  0.00    -0.208 NA
ATOM     14  C   UNL d   1     -47.406  13.875  22.870  0.00  0.00     0.279 C 
ATOM     15  O   UNL d   1     -46.982  14.521  22.587  0.00  0.00    -0.265 OA
BRANCH  14  16
ATOM     16  C   UNL d   1     -48.193  13.970  23.097  0.00  0.00     0.062 C 
BRANCH  16  17
ATOM     17  C   UNL d   1     -48.619  14.628  22.840  0.00  0.00     0.005 C 
BRANCH  17  18
ATOM     18  C   UNL d   1     -49.414  14.711  23.046  0.00  0.00     0.000 A 
ATOM     19  C   UNL d   1     -49.700  15.452  23.300  0.00  0.00     0.000 A 
ATOM     20  C   UNL d   1     -50.494  15.534  23.506  0.00  0.00     0.000 A 
ATOM     21  C   UNL d   1     -51.003  14.876  23.459  0.00  0.00     0.000 A 
ATOM     22  C   UNL d   1     -50.714  14.157  23.210  0.00  0.00     0.000 A 
ATOM     23  C   UNL d   1     -49.920  14.074  23.003  0.00  0.00     0.000 A 
ENDBRANCH  17  18
ENDBRANCH  16  17
ENDBRANCH  14  16
ENDBRANCH   6  13
TORSDOF 4
ENDMDL
MODEL 4
REMARK VINA RESULT:      -6.1      8.739      9.898
REMARK  4 active torsions:
REMARK  status: ('A' for Active; 'I' for Inactive)
REMARK    1  A    between atoms: N_7  and  C_6 
REMARK       I    between atoms: C_8  and  N_7 
REMARK    2  A    between atoms: C_14  and  C_8 
REMARK    3  A    between atoms: C_16  and  C_14 
REMARK    4  A    between atoms: C_17  and  C_16 
ROOT
ATOM      1  C   UNL d   1     -38.801  13.804  17.793  0.00  0.00     0.269 A 
ATOM      2  N   UNL d   1     -38.582  13.809  16.986  0.00  0.00    -0.239 N 
ATOM      3  C   UNL d   1     -39.472  14.280  17.859  0.00  0.00     0.079 A 
ATOM      4  C   UNL d   1     -39.107  14.274  16.583  0.00  0.00     0.267 A 
ATOM      5  C   UNL d   1     -39.662  14.571  17.111  0.00  0.00     0.063 A 
ATOM      6  C   UNL d   1     -39.932  14.483  18.510  0.00  0.00     0.089 A 
ATOM      7  O   UNL d   1     -38.424  13.404  18.405  0.00  0.00    -0.267 OA
ATOM      8  O   UNL d   1     -39.086  14.428  15.757  0.00  0.00    -0.267 OA
ATOM      9  C   UNL d   1     -37.940  13.406  16.662  0.00  0.00     0.105 C 
ATOM     10  C   UNL d   1     -40.311  15.065  17.013  0.00  0.00     0.005 A 
ATOM     11  C   UNL d   1     -40.584  14.979  18.413  0.00  0.00     0.019 A 
ATOM     12  C   UNL d   1     -40.774  15.270  17.664  0.00  0.00     0.002 A 
ENDROOT
BRANCH   6  13
ATOM     13  N   UNL d   1     -39.742  14.192  19.258  0.00  0.00    -0.208 NA
ATOM     14  C   UNL d   1     -40.057  14.552  19.928  0.00  0.00     0.279 C 
ATOM     15  O   UNL d   1     -40.559  15.201  19.857  0.00  0.00    -0.265 OA
BRANCH  14  16
ATOM     16  C   UNL d   1     -39.867  14.261  20.676  0.00  0.00     0.062 C 
BRANCH  16  17
ATOM     17  C   UNL d   1     -39.705  14.785  21.293  0.00  0.00     0.005 C 
BRANCH  17  18
ATOM     18  C   UNL d   1     -39.324  14.515  21.973  0.00  0.00     0.000 A 
ATOM     19  C   UNL d   1     -38.981  15.063  22.499  0.00  0.00     0.000 A 
ATOM     20  C   UNL d   1     -38.600  14.793  23.180  0.00  0.00     0.000 A 
ATOM     21  C   UNL d   1     -38.562  13.975  23.333  0.00  0.00     0.000 A 
ATOM     22  C   UNL d   1     -38.900  13.447  22.813  0.00  0.00     0.000 A 
ATOM     23  C   UNL d   1     -39.281  13.717  22.133  0.00  0.00     0.000 A 
ENDBRANCH  17  18
ENDBRANCH  16  17
ENDBRANCH  14  16
ENDBRANCH   6  13
TORSDOF 4
ENDMDL
MODEL 5
REMARK VINA RESULT:      -5.8      1.276      2.210
REMARK  4 active torsions:
REMARK  status: ('A' for Active; 'I' for Inactive)
REMARK    1  A    between atoms: N_7  and  C_6 
REMARK       I    between atoms: C_8  and  N_7 
REMARK    2  A    between atoms: C_14  and  C_8 
REMARK    3  A    between atoms: C_16  and  C_14 
REMARK    4  A    between atoms: C_17  and  C_16 
ROOT
ATOM      1  C   UNL d   1     -49.154  12.800  23.166  0.00  0.00     0.269 A 
ATOM      2  N   UNL d   1     -49.982  12.796  23.273  0.00  0.00    -0.239 N 
ATOM      3  C   UNL d   1     -48.944  13.577  22.973  0.00  0.00     0.079 A 
ATOM      4  C   UNL d   1     -50.260  13.545  23.148  0.00  0.00     0.267 A 
ATOM      5  C   UNL d   1     -49.629  14.037  22.962  0.00  0.00     0.063 A 
ATOM      6  C   UNL d   1     -48.215  13.916  22.807  0.00  0.00     0.089 A 
ATOM      7  O   UNL d   1     -48.642  12.161  23.236  0.00  0.00    -0.267 OA
ATOM      8  O   UNL d   1     -51.065  13.781  23.201  0.00  0.00    -0.267 OA
ATOM      9  C   UNL d   1     -50.436  12.136  23.472  0.00  0.00     0.105 C 
ATOM     10  C   UNL d   1     -49.584  14.838  22.786  0.00  0.00     0.005 A 
ATOM     11  C   UNL d   1     -48.168  14.721  22.629  0.00  0.00     0.019 A 
ATOM     12  C   UNL d   1     -48.853  15.182  22.618  0.00  0.00     0.002 A 
ENDROOT
BRANCH   6  13
ATOM     13  N   UNL d   1     -47.531  13.455  22.818  0.00  0.00    -0.208 NA
ATOM     14  C   UNL d   1     -46.797  13.812  22.708  0.00  0.00     0.279 C 
ATOM     15  O   UNL d   1     -46.740  14.625  22.588  0.00  0.00    -0.265 OA
BRANCH  14  16
ATOM     16  C   UNL d   1     -46.113  13.352  22.718  0.00  0.00     0.062 C 
BRANCH  16  17
ATOM     17  C   UNL d   1     -45.602  13.357  22.070  0.00  0.00     0.005 C 
BRANCH  17  18
ATOM     18  C   UNL d   1     -44.910  12.908  22.087  0.00  0.00     0.000 A 
ATOM     19  C   UNL d   1     -44.265  13.125  21.606  0.00  0.00     0.000 A 
ATOM     20  C   UNL d   1     -43.574  12.676  21.622  0.00  0.00     0.000 A 
ATOM     21  C   UNL d   1     -43.527  12.010  22.120  0.00  0.00     0.000 A 
ATOM     22  C   UNL d   1     -44.162  11.806  22.587  0.00  0.00     0.000 A 
ATOM     23  C   UNL d   1     -44.854  12.255  22.570  0.00  0.00     0.000 A 
ENDBRANCH  17  18
ENDBRANCH  16  17
ENDBRANCH  14  16
ENDBRANCH   6  13
TORSDOF 4
ENDMDL
MODEL 6
REMARK VINA RESULT:      -4.7      1.945      2.646
REMARK  4 active torsions:
REMARK  status: ('A' for Active; 'I' for Inactive)
REMARK    1  A    between atoms: N_7  and  C_6 
REMARK       I    between atoms: C_8  and  N_7 
REMARK    2  A    between atoms: C_14  and  C_8 
REMARK    3  A    between atoms: C_16  and  C_14 
REMARK    4  A    between atoms: C_17  and  C_16 
ROOT
ATOM      1  C   UNL d   1     -47.468  14.047  22.745  0.00  0.00     0.269 A 
ATOM      2  N   UNL d   1     -48.280  14.181  22.891  0.00  0.00    -0.239 N 
ATOM      3  C   UNL d   1     -47.298  13.290  23.031  0.00  0.00     0.079 A 
ATOM      4  C   UNL d   1     -48.586  13.525  23.253  0.00  0.00     0.267 A 
ATOM      5  C   UNL d   1     -47.989  12.967  23.345  0.00  0.00     0.063 A 
ATOM      6  C   UNL d   1     -46.598  12.859  23.042  0.00  0.00     0.089 A 
ATOM      7  O   UNL d   1     -46.938  14.563  22.386  0.00  0.00    -0.267 OA
ATOM      8  O   UNL d   1     -49.384  13.430  23.495  0.00  0.00    -0.267 OA
ATOM      9  C   UNL d   1     -48.695  14.867  22.696  0.00  0.00     0.105 C 
ATOM     10  C   UNL d   1     -47.980  12.214  23.671  0.00  0.00     0.005 A 
ATOM     11  C   UNL d   1     -46.588  12.101  23.370  0.00  0.00     0.019 A 
ATOM     12  C   UNL d   1     -47.280  11.779  23.684  0.00  0.00     0.002 A 
ENDROOT
BRANCH   6  13
ATOM     13  N   UNL d   1     -45.907  13.182  22.728  0.00  0.00    -0.208 NA
ATOM     14  C   UNL d   1     -45.277  12.688  22.535  0.00  0.00     0.279 C 
ATOM     15  O   UNL d   1     -45.331  11.875  22.652  0.00  0.00    -0.265 OA
BRANCH  14  16
ATOM     16  C   UNL d   1     -44.586  13.011  22.220  0.00  0.00     0.062 C 
BRANCH  16  17
ATOM     17  C   UNL d   1     -44.090  12.546  21.753  0.00  0.00     0.005 C 
BRANCH  17  18
ATOM     18  C   UNL d   1     -43.349  12.831  21.530  0.00  0.00     0.000 A 
ATOM     19  C   UNL d   1     -43.294  13.449  20.973  0.00  0.00     0.000 A 
ATOM     20  C   UNL d   1     -42.552  13.734  20.750  0.00  0.00     0.000 A 
ATOM     21  C   UNL d   1     -41.865  13.400  21.084  0.00  0.00     0.000 A 
ATOM     22  C   UNL d   1     -41.929  12.797  21.627  0.00  0.00     0.000 A 
ATOM     23  C   UNL d   1     -42.671  12.512  21.849  0.00  0.00     0.000 A 
ENDBRANCH  17  18
ENDBRANCH  16  17
ENDBRANCH  14  16
ENDBRANCH   6  13
TORSDOF 4
ENDMDL
