MODEL 1
REMARK VINA RESULT:      16.9      0.000      0.000
REMARK  5 active torsions:
REMARK  status: ('A' for Active; 'I' for Inactive)
REMARK    1  A    between atoms: C_7  and  C_1 
REMARK       I    between atoms: C_3  and  N_8 
REMARK       I    between atoms: N_10  and  C_3 
REMARK    2  A    between atoms: N_8  and  C_6 
REMARK    3  A    between atoms: O_14  and  C_7 
REMARK    4  A    between atoms: C_13  and  N_10 
REMARK    5  A    between atoms: C_23  and  O_14 
ROOT
ATOM      1  C   UNL d   1      46.471 -18.952  42.550  0.00  0.00     0.083 A 
ATOM      2  N   UNL d   1      46.278 -19.918  43.578  0.00  0.00    -0.244 NA
ATOM      3  C   UNL d   1      46.342 -19.728  42.783  0.00  0.00     0.087 A 
ATOM      4  C   UNL d   1      46.536 -18.361  43.109  0.00  0.00     0.028 A 
ATOM      5  C   UNL d   1      46.472 -18.542  43.914  0.00  0.00     0.104 A 
ATOM      6  C   UNL d   1      46.343 -19.317  44.148  0.00  0.00     0.099 A 
ATOM      7  C   UNL d   1      46.277 -20.328  42.213  0.00  0.00     0.021 C 
ATOM      8  C   UNL d   1      46.279 -19.503  44.955  0.00  0.00     0.022 C 
ENDROOT
BRANCH   5   9
ATOM      9  N   UNL d   1      46.537 -17.941  44.484  0.00  0.00    -0.189 NA
ATOM     10  C   UNL d   1      46.171 -17.218  44.368  0.00  0.00     0.369 C 
ATOM     11  N   UNL d   1      46.230 -16.616  44.928  0.00  0.00    -0.191 NA
ATOM     12  O   UNL d   1      45.730 -17.082  43.676  0.00  0.00    -0.242 OA
BRANCH  11  13
ATOM     13  C   UNL d   1      45.866 -15.898  44.810  0.00  0.00     0.086 A 
ATOM     14  C   UNL d   1      45.044 -15.841  44.866  0.00  0.00     0.020 A 
ATOM     15  C   UNL d   1      44.676 -15.106  44.745  0.00  0.00     0.008 A 
ATOM     16  C   UNL d   1      45.129 -14.439  44.569  0.00  0.00     0.035 A 
ATOM     17  C   UNL d   1      45.950 -14.498  44.513  0.00  0.00     0.008 A 
ATOM     18 BR   UNL d   1      44.764 -13.722  44.451  0.00  0.00    -0.049 Br
ATOM     19  C   UNL d   1      46.323 -15.226  44.633  0.00  0.00     0.020 A 
ENDBRANCH  11  13
ENDBRANCH   5   9
BRANCH   1  20
ATOM     20  C   UNL d   1      46.535 -18.770  41.751  0.00  0.00     0.302 C 
ATOM     21  O   UNL d   1      46.646 -19.363  41.207  0.00  0.00    -0.259 OA
BRANCH  20  22
ATOM     22  O   UNL d   1      46.486 -17.996  41.510  0.00  0.00    -0.271 OA
BRANCH  22  23
ATOM     23  C   UNL d   1      46.610 -17.812  40.725  0.00  0.00     0.126 C 
ATOM     24  C   UNL d   1      46.031 -17.985  40.166  0.00  0.00     0.029 C 
ENDBRANCH  22  23
ENDBRANCH  20  22
ENDBRANCH   1  20
TORSDOF 5
ENDMDL
MODEL 2
REMARK VINA RESULT:      17.0      2.091      4.794
REMARK  5 active torsions:
REMARK  status: ('A' for Active; 'I' for Inactive)
REMARK    1  A    between atoms: C_7  and  C_1 
REMARK       I    between atoms: C_3  and  N_8 
REMARK       I    between atoms: N_10  and  C_3 
REMARK    2  A    between atoms: N_8  and  C_6 
REMARK    3  A    between atoms: O_14  and  C_7 
REMARK    4  A    between atoms: C_13  and  N_10 
REMARK    5  A    between atoms: C_23  and  O_14 
ROOT
ATOM      1  C   UNL d   1      45.456 -14.332  44.494  0.00  0.00     0.083 A 
ATOM      2  N   UNL d   1      44.353 -15.184  44.785  0.00  0.00    -0.244 NA
ATOM      3  C   UNL d   1      44.655 -14.438  44.633  0.00  0.00     0.087 A 
ATOM      4  C   UNL d   1      45.962 -14.973  44.506  0.00  0.00     0.028 A 
ATOM      5  C   UNL d   1      45.668 -15.731  44.659  0.00  0.00     0.104 A 
ATOM      6  C   UNL d   1      44.867 -15.837  44.798  0.00  0.00     0.099 A 
ATOM      7  C   UNL d   1      44.141 -13.785  44.620  0.00  0.00     0.021 C 
ATOM      8  C   UNL d   1      44.568 -16.596  44.951  0.00  0.00     0.022 C 
ENDROOT
BRANCH   5   9
ATOM      9  N   UNL d   1      46.182 -16.384  44.671  0.00  0.00    -0.189 NA
ATOM     10  C   UNL d   1      46.141 -16.955  44.086  0.00  0.00     0.369 C 
ATOM     11  N   UNL d   1      46.647 -17.606  44.090  0.00  0.00    -0.191 NA
ATOM     12  O   UNL d   1      45.582 -16.883  43.473  0.00  0.00    -0.242 OA
BRANCH  11  13
ATOM     13  C   UNL d   1      46.604 -18.172  43.506  0.00  0.00     0.086 A 
ATOM     14  C   UNL d   1      46.630 -17.946  42.713  0.00  0.00     0.020 A 
ATOM     15  C   UNL d   1      46.585 -18.528  42.121  0.00  0.00     0.008 A 
ATOM     16  C   UNL d   1      46.516 -19.324  42.326  0.00  0.00     0.035 A 
ATOM     17  C   UNL d   1      46.490 -19.548  43.119  0.00  0.00     0.008 A 
ATOM     18 BR   UNL d   1      46.473 -19.889  41.743  0.00  0.00    -0.049 Br
ATOM     19  C   UNL d   1      46.534 -18.974  43.714  0.00  0.00     0.020 A 
ENDBRANCH  11  13
ENDBRANCH   5   9
BRANCH   1  20
ATOM     20  C   UNL d   1      45.750 -13.580  44.342  0.00  0.00     0.302 C 
ATOM     21  O   UNL d   1      46.130 -13.167  44.930  0.00  0.00    -0.259 OA
BRANCH  20  22
ATOM     22  O   UNL d   1      45.659 -13.254  43.605  0.00  0.00    -0.271 OA
BRANCH  22  23
ATOM     23  C   UNL d   1      45.505 -12.456  43.535  0.00  0.00     0.126 C 
ATOM     24  C   UNL d   1      45.282 -12.143  42.807  0.00  0.00     0.029 C 
ENDBRANCH  22  23
ENDBRANCH  20  22
ENDBRANCH   1  20
TORSDOF 5
ENDMDL
