MODEL 1
REMARK VINA RESULT:      -2.9      0.000      0.000
REMARK  3 active torsions:
REMARK  status: ('A' for Active; 'I' for Inactive)
REMARK    1  A    between atoms: C_5  and  N_1 
REMARK    2  A    between atoms: C_4  and  C_5 
REMARK       I    between atoms: N_6  and  C_4 
REMARK    3  A    between atoms: C_12  and  N_6 
ROOT
ATOM      1  C   UNL d   1      30.724  16.583 -23.992  0.00  0.00     0.297 C 
ATOM      2  N   UNL d   1      31.556  16.657 -24.011  0.00  0.00    -0.207 NA
ATOM      3  O   UNL d   1      30.306  17.301 -23.961  0.00  0.00    -0.264 OA
ENDROOT
BRANCH   1   4
ATOM      4  C   UNL d   1      30.304  15.854 -24.001  0.00  0.00     0.148 C 
BRANCH   4   5
ATOM      5  N   UNL d   1      29.525  15.822 -23.805  0.00  0.00    -0.236 N 
ATOM      6  C   UNL d   1      29.175  15.640 -23.049  0.00  0.00     0.267 A 
ATOM      7  C   UNL d   1      28.387  15.683 -23.153  0.00  0.00     0.066 A 
ATOM      8  O   UNL d   1      29.670  15.453 -22.350  0.00  0.00    -0.267 OA
ATOM      9  C   UNL d   1      28.213  15.878 -23.914  0.00  0.00     0.066 A 
ATOM     10  C   UNL d   1      28.891  15.965 -24.318  0.00  0.00     0.267 A 
ATOM     11  O   UNL d   1      29.019  16.158 -25.096  0.00  0.00    -0.267 OA
ENDBRANCH   4   5
ENDBRANCH   1   4
BRANCH   2  12
ATOM     12  C   UNL d   1      31.953  17.337 -24.002  0.00  0.00     0.085 A 
ATOM     13  C   UNL d   1      32.000  17.877 -24.638  0.00  0.00     0.020 A 
ATOM     14  C   UNL d   1      32.396  18.558 -24.630  0.00  0.00     0.008 A 
ATOM     15  C   UNL d   1      32.805  18.772 -23.946  0.00  0.00     0.035 A 
ATOM     16  C   UNL d   1      32.798  18.282 -23.284  0.00  0.00     0.008 A 
ATOM     17 BR   UNL d   1      33.241  19.502 -23.912  0.00  0.00    -0.049 Br
ATOM     18  C   UNL d   1      32.367  17.562 -23.318  0.00  0.00     0.020 A 
ENDBRANCH   2  12
TORSDOF 3
ENDMDL
MODEL 2
REMARK VINA RESULT:      -2.7      1.932      4.001
REMARK  3 active torsions:
REMARK  status: ('A' for Active; 'I' for Inactive)
REMARK    1  A    between atoms: C_5  and  N_1 
REMARK    2  A    between atoms: C_4  and  C_5 
REMARK       I    between atoms: N_6  and  C_4 
REMARK    3  A    between atoms: C_12  and  N_6 
ROOT
ATOM      1  C   UNL d   1      31.422  17.077 -24.244  0.00  0.00     0.297 C 
ATOM      2  N   UNL d   1      31.093  16.310 -24.299  0.00  0.00    -0.207 NA
ATOM      3  O   UNL d   1      30.894  17.672 -24.007  0.00  0.00    -0.264 OA
ENDROOT
BRANCH   1   4
ATOM      4  C   UNL d   1      32.225  17.270 -24.408  0.00  0.00     0.148 C 
BRANCH   4   5
ATOM      5  N   UNL d   1      32.580  17.900 -24.058  0.00  0.00    -0.236 N 
ATOM      6  C   UNL d   1      32.976  17.933 -23.304  0.00  0.00     0.267 A 
ATOM      7  C   UNL d   1      33.228  18.684 -23.219  0.00  0.00     0.066 A 
ATOM      8  O   UNL d   1      33.044  17.226 -22.791  0.00  0.00    -0.267 OA
ATOM      9  C   UNL d   1      33.022  19.125 -23.859  0.00  0.00     0.066 A 
ATOM     10  C   UNL d   1      32.629  18.664 -24.373  0.00  0.00     0.267 A 
ATOM     11  O   UNL d   1      32.306  18.839 -25.097  0.00  0.00    -0.267 OA
ENDBRANCH   4   5
ENDBRANCH   1   4
BRANCH   2  12
ATOM     12  C   UNL d   1      30.343  16.126 -24.146  0.00  0.00     0.085 A 
ATOM     13  C   UNL d   1      29.703  16.228 -24.673  0.00  0.00     0.020 A 
ATOM     14  C   UNL d   1      28.953  16.044 -24.520  0.00  0.00     0.008 A 
ATOM     15  C   UNL d   1      28.764  15.722 -23.785  0.00  0.00     0.035 A 
ATOM     16  C   UNL d   1      29.350  15.596 -23.220  0.00  0.00     0.008 A 
ATOM     17 BR   UNL d   1      27.960  15.514 -23.595  0.00  0.00    -0.049 Br
ATOM     18  C   UNL d   1      30.143  15.801 -23.407  0.00  0.00     0.020 A 
ENDBRANCH   2  12
TORSDOF 3
ENDMDL
MODEL 3
REMARK VINA RESULT:      -2.5      2.062      4.301
REMARK  3 active torsions:
REMARK  status: ('A' for Active; 'I' for Inactive)
REMARK    1  A    between atoms: C_5  and  N_1 
REMARK    2  A    between atoms: C_4  and  C_5 
REMARK       I    between atoms: N_6  and  C_4 
REMARK    3  A    between atoms: C_12  and  N_6 
ROOT
ATOM      1  C   UNL d   1      32.099  17.447 -23.833  0.00  0.00     0.297 C 
ATOM      2  N   UNL d   1      31.904  16.676 -24.092  0.00  0.00    -0.207 NA
ATOM      3  O   UNL d   1      31.451  17.922 -23.622  0.00  0.00    -0.264 OA
ENDROOT
BRANCH   1   4
ATOM      4  C   UNL d   1      32.880  17.754 -23.777  0.00  0.00     0.148 C 
BRANCH   4   5
ATOM      5  N   UNL d   1      33.010  18.531 -23.613  0.00  0.00    -0.236 N 
ATOM      6  C   UNL d   1      33.047  19.188 -24.155  0.00  0.00     0.267 A 
ATOM      7  C   UNL d   1      33.188  19.834 -23.711  0.00  0.00     0.066 A 
ATOM      8  O   UNL d   1      32.940  19.076 -25.018  0.00  0.00    -0.267 OA
ATOM      9  C   UNL d   1      33.241  19.635 -22.933  0.00  0.00     0.066 A 
ATOM     10  C   UNL d   1      33.135  18.851 -22.861  0.00  0.00     0.267 A 
ATOM     11  O   UNL d   1      33.137  18.378 -22.200  0.00  0.00    -0.267 OA
ENDBRANCH   4   5
ENDBRANCH   1   4
BRANCH   2  12
ATOM     12  C   UNL d   1      31.175  16.385 -24.146  0.00  0.00     0.085 A 
ATOM     13  C   UNL d   1      30.739  16.054 -23.515  0.00  0.00     0.020 A 
ATOM     14  C   UNL d   1      30.009  15.763 -23.567  0.00  0.00     0.008 A 
ATOM     15  C   UNL d   1      29.627  15.777 -24.299  0.00  0.00     0.035 A 
ATOM     16  C   UNL d   1      30.003  16.091 -24.961  0.00  0.00     0.008 A 
ATOM     17 BR   UNL d   1      28.838  15.469 -24.382  0.00  0.00    -0.049 Br
ATOM     18  C   UNL d   1      30.782  16.396 -24.878  0.00  0.00     0.020 A 
ENDBRANCH   2  12
TORSDOF 3
ENDMDL
MODEL 4
REMARK VINA RESULT:      -2.4      3.064      4.510
REMARK  3 active torsions:
REMARK  status: ('A' for Active; 'I' for Inactive)
REMARK    1  A    between atoms: C_5  and  N_1 
REMARK    2  A    between atoms: C_4  and  C_5 
REMARK       I    between atoms: N_6  and  C_4 
REMARK    3  A    between atoms: C_12  and  N_6 
ROOT
ATOM      1  C   UNL d   1      32.841  19.637 -22.557  0.00  0.00     0.297 C 
ATOM      2  N   UNL d   1      33.241  20.125 -22.008  0.00  0.00    -0.207 NA
ATOM      3  O   UNL d   1      32.067  19.874 -22.741  0.00  0.00    -0.264 OA
ENDROOT
BRANCH   1   4
ATOM      4  C   UNL d   1      33.166  18.950 -22.917  0.00  0.00     0.148 C 
BRANCH   4   5
ATOM      5  N   UNL d   1      32.810  18.606 -23.551  0.00  0.00    -0.236 N 
ATOM      6  C   UNL d   1      32.806  18.868 -24.363  0.00  0.00     0.267 A 
ATOM      7  C   UNL d   1      32.375  18.332 -24.766  0.00  0.00     0.066 A 
ATOM      8  O   UNL d   1      33.224  19.597 -24.610  0.00  0.00    -0.267 OA
ATOM      9  C   UNL d   1      32.108  17.756 -24.272  0.00  0.00     0.066 A 
ATOM     10  C   UNL d   1      32.364  17.910 -23.535  0.00  0.00     0.267 A 
ATOM     11  O   UNL d   1      32.248  17.502 -22.842  0.00  0.00    -0.267 OA
ENDBRANCH   4   5
ENDBRANCH   1   4
BRANCH   2  12
ATOM     12  C   UNL d   1      32.941  20.768 -21.669  0.00  0.00     0.085 A 
ATOM     13  C   UNL d   1      32.429  20.773 -21.009  0.00  0.00     0.020 A 
ATOM     14  C   UNL d   1      32.129  21.416 -20.668  0.00  0.00     0.008 A 
ATOM     15  C   UNL d   1      32.323  22.157 -20.976  0.00  0.00     0.035 A 
ATOM     16  C   UNL d   1      32.823  22.221 -21.627  0.00  0.00     0.008 A 
ATOM     17 BR   UNL d   1      32.011  22.868 -20.627  0.00  0.00    -0.049 Br
ATOM     18  C   UNL d   1      33.131  21.519 -21.971  0.00  0.00     0.020 A 
ENDBRANCH   2  12
TORSDOF 3
ENDMDL
MODEL 5
REMARK VINA RESULT:      -2.3      1.887      2.655
REMARK  3 active torsions:
REMARK  status: ('A' for Active; 'I' for Inactive)
REMARK    1  A    between atoms: C_5  and  N_1 
REMARK    2  A    between atoms: C_4  and  C_5 
REMARK       I    between atoms: N_6  and  C_4 
REMARK    3  A    between atoms: C_12  and  N_6 
ROOT
ATOM      1  C   UNL d   1      32.551  18.101 -23.751  0.00  0.00     0.297 C 
ATOM      2  N   UNL d   1      33.228  18.451 -23.409  0.00  0.00    -0.207 NA
ATOM      3  O   UNL d   1      31.827  18.448 -23.536  0.00  0.00    -0.264 OA
ENDROOT
BRANCH   1   4
ATOM      4  C   UNL d   1      32.561  17.444 -24.278  0.00  0.00     0.148 C 
BRANCH   4   5
ATOM      5  N   UNL d   1      32.002  16.868 -24.233  0.00  0.00    -0.236 N 
ATOM      6  C   UNL d   1      32.044  16.120 -23.825  0.00  0.00     0.267 A 
ATOM      7  C   UNL d   1      31.346  15.758 -23.954  0.00  0.00     0.066 A 
ATOM      8  O   UNL d   1      32.759  15.883 -23.377  0.00  0.00    -0.267 OA
ATOM      9  C   UNL d   1      30.870  16.218 -24.410  0.00  0.00     0.066 A 
ATOM     10  C   UNL d   1      31.254  16.892 -24.585  0.00  0.00     0.267 A 
ATOM     11  O   UNL d   1      31.019  17.533 -25.025  0.00  0.00    -0.267 OA
ENDBRANCH   4   5
ENDBRANCH   1   4
BRANCH   2  12
ATOM     12  C   UNL d   1      33.223  19.064 -22.916  0.00  0.00     0.085 A 
ATOM     13  C   UNL d   1      33.200  19.867 -23.144  0.00  0.00     0.020 A 
ATOM     14  C   UNL d   1      33.195  20.482 -22.652  0.00  0.00     0.008 A 
ATOM     15  C   UNL d   1      33.213  20.340 -21.839  0.00  0.00     0.035 A 
ATOM     16  C   UNL d   1      33.236  19.570 -21.549  0.00  0.00     0.008 A 
ATOM     17 BR   UNL d   1      33.208  20.987 -21.286  0.00  0.00    -0.049 Br
ATOM     18  C   UNL d   1      33.241  18.932 -22.096  0.00  0.00     0.020 A 
ENDBRANCH   2  12
TORSDOF 3
ENDMDL
