MODEL 1
REMARK VINA RESULT:      81.2      0.000      0.000
REMARK  3 active torsions:
REMARK  status: ('A' for Active; 'I' for Inactive)
REMARK    1  A    between atoms: N_3  and  S_1 
REMARK    2  A    between atoms: C_5  and  S_1 
REMARK       I    between atoms: C_2  and  N_4 
REMARK       I    between atoms: N_6  and  C_2 
REMARK    3  A    between atoms: C_13  and  N_6 
ROOT
ATOM      1  C   UNL d   1     -49.741  26.990  34.237  0.00  0.00     0.339 C 
ATOM      2  N   UNL d   1     -48.644  29.198  34.570  0.00  0.00    -0.226 N 
ATOM      3  N   UNL d   1     -49.377  27.722  34.347  0.00  0.00    -0.254 N 
ATOM      4  N   UNL d   1     -50.377  26.915  33.716  0.00  0.00    -0.257 N 
ATOM      5  C   UNL d   1     -49.284  29.130  34.045  0.00  0.00     0.111 A 
ATOM      6  C   UNL d   1     -48.375  28.533  34.979  0.00  0.00     0.111 A 
ATOM      7  O   UNL d   1     -49.459  26.331  34.655  0.00  0.00    -0.245 OA
ATOM      8  C   UNL d   1     -49.649  28.394  33.933  0.00  0.00     0.104 A 
ATOM      9  C   UNL d   1     -48.739  27.800  34.869  0.00  0.00     0.104 A 
ATOM     10  C   UNL d   1     -50.651  27.569  33.306  0.00  0.00     0.104 C 
ENDROOT
BRANCH   2  11
ATOM     11  S   UNL d   1     -48.282  29.926  34.680  0.00  0.00     0.271 S 
ATOM     12  O   UNL d   1     -47.706  29.560  35.143  0.00  0.00    -0.200 OA
ATOM     13  O   UNL d   1     -48.866  30.277  34.215  0.00  0.00    -0.200 OA
BRANCH  11  14
ATOM     14  C   UNL d   1     -47.919  30.658  34.791  0.00  0.00     0.104 A 
ATOM     15  C   UNL d   1     -48.054  31.262  34.255  0.00  0.00     0.013 A 
ATOM     16  C   UNL d   1     -47.696  31.983  34.364  0.00  0.00     0.001 A 
ATOM     17  C   UNL d   1     -47.828  32.595  33.828  0.00  0.00     0.000 C 
ATOM     18  C   UNL d   1     -47.205  32.108  34.999  0.00  0.00     0.000 A 
ATOM     19  C   UNL d   1     -47.073  31.497  35.534  0.00  0.00     0.001 A 
ATOM     20  C   UNL d   1     -46.841  32.841  35.110  0.00  0.00     0.000 C 
ATOM     21  C   UNL d   1     -47.431  30.776  35.425  0.00  0.00     0.013 A 
ENDBRANCH  11  14
ENDBRANCH   2  11
BRANCH   4  22
ATOM     22  C   UNL d   1     -50.737  26.170  33.613  0.00  0.00     0.068 A 
ATOM     23  C   UNL d   1     -50.278  25.489  33.516  0.00  0.00     0.018 A 
ATOM     24  C   UNL d   1     -50.648  24.759  33.414  0.00  0.00     0.002 A 
ATOM     25  C   UNL d   1     -51.470  24.707  33.408  0.00  0.00     0.000 A 
ATOM     26  C   UNL d   1     -51.928  25.397  33.507  0.00  0.00     0.002 A 
ATOM     27  C   UNL d   1     -51.837  23.975  33.306  0.00  0.00     0.000 C 
ATOM     28  C   UNL d   1     -51.554  26.125  33.608  0.00  0.00     0.018 A 
ENDBRANCH   4  22
TORSDOF 3
ENDMDL
MODEL 2
REMARK VINA RESULT:      83.7      1.163      6.106
REMARK  3 active torsions:
REMARK  status: ('A' for Active; 'I' for Inactive)
REMARK    1  A    between atoms: N_3  and  S_1 
REMARK    2  A    between atoms: C_5  and  S_1 
REMARK       I    between atoms: C_2  and  N_4 
REMARK       I    between atoms: N_6  and  C_2 
REMARK    3  A    between atoms: C_13  and  N_6 
ROOT
ATOM      1  C   UNL d   1     -48.599  28.886  34.343  0.00  0.00     0.339 C 
ATOM      2  N   UNL d   1     -49.841  26.765  33.955  0.00  0.00    -0.226 N 
ATOM      3  N   UNL d   1     -49.011  28.183  34.214  0.00  0.00    -0.254 N 
ATOM      4  N   UNL d   1     -48.432  29.137  35.111  0.00  0.00    -0.257 N 
ATOM      5  C   UNL d   1     -49.676  27.011  34.731  0.00  0.00     0.111 A 
ATOM      6  C   UNL d   1     -49.592  27.225  33.316  0.00  0.00     0.111 A 
ATOM      7  O   UNL d   1     -48.357  29.337  33.690  0.00  0.00    -0.245 OA
ATOM      8  C   UNL d   1     -49.262  27.718  34.861  0.00  0.00     0.104 A 
ATOM      9  C   UNL d   1     -49.181  27.929  33.445  0.00  0.00     0.104 A 
ATOM     10  C   UNL d   1     -48.674  28.686  35.752  0.00  0.00     0.104 C 
ENDROOT
BRANCH   2  11
ATOM     11  S   UNL d   1     -50.250  26.065  33.827  0.00  0.00     0.271 S 
ATOM     12  O   UNL d   1     -49.632  25.649  34.181  0.00  0.00    -0.200 OA
ATOM     13  O   UNL d   1     -50.860  26.496  33.476  0.00  0.00    -0.200 OA
BRANCH  11  14
ATOM     14  C   UNL d   1     -50.662  25.363  33.699  0.00  0.00     0.104 A 
ATOM     15  C   UNL d   1     -51.481  25.367  33.696  0.00  0.00     0.013 A 
ATOM     16  C   UNL d   1     -51.886  24.675  33.569  0.00  0.00     0.001 A 
ATOM     17  C   UNL d   1     -52.710  24.674  33.565  0.00  0.00     0.000 C 
ATOM     18  C   UNL d   1     -51.485  23.979  33.446  0.00  0.00     0.000 A 
ATOM     19  C   UNL d   1     -50.662  23.981  33.450  0.00  0.00     0.001 A 
ATOM     20  C   UNL d   1     -51.897  23.276  33.317  0.00  0.00     0.000 C 
ATOM     21  C   UNL d   1     -50.257  24.673  33.577  0.00  0.00     0.013 A 
ENDBRANCH  11  14
ENDBRANCH   2  11
BRANCH   4  22
ATOM     22  C   UNL d   1     -48.016  29.849  35.229  0.00  0.00     0.068 A 
ATOM     23  C   UNL d   1     -47.327  29.864  35.686  0.00  0.00     0.018 A 
ATOM     24  C   UNL d   1     -46.925  30.577  35.794  0.00  0.00     0.002 A 
ATOM     25  C   UNL d   1     -47.207  31.270  35.449  0.00  0.00     0.000 A 
ATOM     26  C   UNL d   1     -47.903  31.248  34.989  0.00  0.00     0.002 A 
ATOM     27  C   UNL d   1     -46.803  31.981  35.559  0.00  0.00     0.000 C 
ATOM     28  C   UNL d   1     -48.301  30.534  34.884  0.00  0.00     0.018 A 
ENDBRANCH   4  22
TORSDOF 3
ENDMDL
