MODEL 1
REMARK VINA RESULT:      77.1      0.000      0.000
REMARK  5 active torsions:
REMARK  status: ('A' for Active; 'I' for Inactive)
REMARK    1  A    between atoms: N_5  and  S_1 
REMARK    2  A    between atoms: C_10  and  S_1 
REMARK    3  A    between atoms: C_2  and  N_6 
REMARK    4  A    between atoms: C_20  and  N_5 
REMARK    5  A    between atoms: C_7  and  C_14 
REMARK       I    between atoms: N_8  and  C_7 
ROOT
ATOM      1  C   UNL d   1      13.572  12.898  -3.170  0.00  0.00     0.104 A 
ATOM      2  C   UNL d   1      13.609  13.539  -4.670  0.00  0.00     0.057 A 
ATOM      3  C   UNL d   1      13.493  12.426  -3.853  0.00  0.00     0.013 A 
ATOM      4  C   UNL d   1      13.670  13.698  -3.253  0.00  0.00     0.013 A 
ATOM      5  C   UNL d   1      13.514  12.763  -4.598  0.00  0.00     0.005 A 
ATOM      6  C   UNL d   1      13.690  14.027  -4.001  0.00  0.00     0.005 A 
ENDROOT
BRANCH   2   7
ATOM      7  C   UNL d   1      13.628  13.867  -5.426  0.00  0.00     0.265 C 
ATOM      8  N   UNL d   1      13.691  14.685  -5.529  0.00  0.00    -0.269 N 
ATOM      9  C   UNL d   1      13.715  15.071  -6.285  0.00  0.00     0.102 A 
ATOM     10  C   UNL d   1      13.735  15.175  -4.875  0.00  0.00     0.102 A 
ATOM     11  C   UNL d   1      13.776  15.862  -6.389  0.00  0.00     0.101 A 
ATOM     12  N   UNL d   1      13.818  16.335  -5.716  0.00  0.00    -0.281 N 
ATOM     13  C   UNL d   1      13.801  16.041  -4.976  0.00  0.00     0.101 A 
ATOM     14  O   UNL d   1      13.584  13.360  -6.083  0.00  0.00    -0.267 OA
BRANCH  12  15
ATOM     15  C   UNL d   1      13.880  17.140  -5.794  0.00  0.00     0.179 A 
ATOM     16  N   UNL d   1      14.531  17.632  -5.551  0.00  0.00    -0.222 NA
ATOM     17  C   UNL d   1      14.305  18.398  -5.760  0.00  0.00     0.089 A 
ATOM     18  C   UNL d   1      14.682  19.124  -5.678  0.00  0.00     0.020 A 
ATOM     19  C   UNL d   1      13.562  18.335  -6.102  0.00  0.00     0.050 A 
ATOM     20  C   UNL d   1      14.317  19.850  -5.947  0.00  0.00     0.002 A 
ATOM     21  C   UNL d   1      13.549  19.769  -6.299  0.00  0.00     0.001 A 
ATOM     22  C   UNL d   1      13.174  19.026  -6.377  0.00  0.00     0.008 A 
ATOM     23  S   UNL d   1      13.325  17.551  -6.110  0.00  0.00    -0.048 SA
ENDBRANCH  12  15
ENDBRANCH   2   7
BRANCH   1  24
ATOM     24  S   UNL d   1      13.548  12.535  -2.422  0.00  0.00     0.271 S 
ATOM     25  O   UNL d   1      13.622  13.292  -2.065  0.00  0.00    -0.200 OA
ATOM     26  O   UNL d   1      13.474  11.779  -2.772  0.00  0.00    -0.200 OA
BRANCH  24  27
ATOM     27  N   UNL d   1      13.526  12.190  -1.668  0.00  0.00    -0.229 N 
ATOM     28  C   UNL d   1      12.832  11.807  -1.406  0.00  0.00     0.111 C 
BRANCH  27  29
ATOM     29  C   UNL d   1      14.188  12.226  -1.180  0.00  0.00     0.075 A 
ATOM     30  C   UNL d   1      14.869  11.797  -1.370  0.00  0.00     0.018 A 
ATOM     31  C   UNL d   1      15.530  11.832  -0.883  0.00  0.00     0.002 A 
ATOM     32  C   UNL d   1      15.524  12.297  -0.196  0.00  0.00     0.000 A 
ATOM     33  C   UNL d   1      14.834  12.724  -0.014  0.00  0.00     0.002 A 
ATOM     34  C   UNL d   1      14.172  12.688  -0.502  0.00  0.00     0.018 A 
ENDBRANCH  27  29
ENDBRANCH  24  27
ENDBRANCH   1  24
TORSDOF 5
ENDMDL
