MODEL 1
REMARK VINA RESULT:      35.9      0.000      0.000
REMARK  3 active torsions:
REMARK  status: ('A' for Active; 'I' for Inactive)
REMARK    1  A    between atoms: C_6  and  C_2 
REMARK    2  A    between atoms: C_7  and  C_6 
REMARK    3  A    between atoms: C_8  and  C_7 
ROOT
ATOM      1  N   UNL d   1     -52.176  25.548  33.310  0.00  0.00    -0.225 NA
ATOM      2  C   UNL d   1     -51.335  25.438  33.308  0.00  0.00     0.163 A 
ATOM      3  N   UNL d   1     -51.190  24.628  33.307  0.00  0.00    -0.225 NA
ATOM      4  C   UNL d   1     -52.517  24.814  33.310  0.00  0.00     0.101 A 
ATOM      5  C   UNL d   1     -51.913  24.212  33.308  0.00  0.00     0.101 A 
ATOM      6  C   UNL d   1     -53.326  24.552  33.312  0.00  0.00     0.021 A 
ATOM      7  C   UNL d   1     -52.100  23.408  33.308  0.00  0.00     0.021 A 
ATOM      8  C   UNL d   1     -52.868  23.188  33.309  0.00  0.00     0.002 A 
ATOM      9  C   UNL d   1     -53.472  23.752  33.311  0.00  0.00     0.002 A 
ENDROOT
BRANCH   2  10
ATOM     10  C   UNL d   1     -50.953  26.170  33.308  0.00  0.00     0.039 C 
BRANCH  10  11
ATOM     11  C   UNL d   1     -50.137  26.200  33.321  0.00  0.00     0.003 C 
BRANCH  11  12
ATOM     12  C   UNL d   1     -49.756  26.840  33.683  0.00  0.00     0.000 A 
ATOM     13  C   UNL d   1     -49.975  27.617  33.509  0.00  0.00     0.001 A 
ATOM     14  C   UNL d   1     -49.581  28.232  33.883  0.00  0.00     0.011 A 
ATOM     15  C   UNL d   1     -48.985  28.092  34.417  0.00  0.00     0.058 A 
ATOM     16  C   UNL d   1     -48.768  27.315  34.590  0.00  0.00     0.011 A 
ATOM     17 CL   UNL d   1     -48.603  28.734  34.782  0.00  0.00    -0.082 Cl
ATOM     18  C   UNL d   1     -49.158  26.697  34.220  0.00  0.00     0.001 A 
ENDBRANCH  11  12
ENDBRANCH  10  11
ENDBRANCH   2  10
TORSDOF 3
ENDMDL
