MODEL 1
REMARK VINA RESULT:      -9.6      0.000      0.000
REMARK  1 active torsions:
REMARK  status: ('A' for Active; 'I' for Inactive)
REMARK    1  A    between atoms: C_24  and  N_4 
ROOT
ATOM      1  C   UNL d   1     -46.206  13.467  22.624  0.00  0.00     0.111 A 
ATOM      2  C   UNL d   1     -46.202  12.136  23.088  0.00  0.00     0.062 A 
ATOM      3  C   UNL d   1     -46.590  12.811  22.917  0.00  0.00     0.018 A 
ATOM      4  N   UNL d   1     -50.278  13.098  23.429  0.00  0.00    -0.305 N 
ATOM      5  C   UNL d   1     -45.383  13.427  22.501  0.00  0.00     0.213 A 
ATOM      6  C   UNL d   1     -45.379  12.096  22.965  0.00  0.00     0.101 A 
ATOM      7  C   UNL d   1     -49.093  13.579  23.064  0.00  0.00     0.018 A 
ATOM      8  C   UNL d   1     -49.481  12.914  23.361  0.00  0.00     0.064 A 
ATOM      9  O   UNL d   1     -44.965  12.732  22.674  0.00  0.00    -0.288 OA
ATOM     10  C   UNL d   1     -46.585  11.473  23.383  0.00  0.00     0.194 A 
ATOM     11  C   UNL d   1     -50.380  13.859  23.180  0.00  0.00     0.064 A 
ATOM     12  C   UNL d   1     -47.851  12.873  23.105  0.00  0.00     0.001 A 
ATOM     13  C   UNL d   1     -49.653  14.168  22.952  0.00  0.00     0.018 A 
ATOM     14  C   UNL d   1     -48.269  13.556  22.935  0.00  0.00     0.002 A 
ATOM     15  C   UNL d   1     -46.617  14.166  22.448  0.00  0.00     0.105 C 
ATOM     16  N   UNL d   1     -47.039  14.890  22.265  0.00  0.00    -0.191 NA
ATOM     17  C   UNL d   1     -49.037  12.237  23.523  0.00  0.00     0.018 A 
ATOM     18  C   UNL d   1     -44.960  11.394  23.141  0.00  0.00     0.002 A 
ATOM     19  C   UNL d   1     -45.374  10.742  23.437  0.00  0.00     0.042 A 
ATOM     20  C   UNL d   1     -46.197  10.782  23.560  0.00  0.00     0.019 A 
ATOM     21  C   UNL d   1     -48.228  12.224  23.394  0.00  0.00     0.002 A 
ATOM     22  O   UNL d   1     -47.418  11.514  23.507  0.00  0.00    -0.287 OA
ATOM     23  N   UNL d   1     -44.969  14.085  22.203  0.00  0.00    -0.120 N 
ATOM     24  C   UNL d   1     -51.057  14.348  23.122  0.00  0.00     0.018 A 
ATOM     25  C   UNL d   1     -49.597  14.959  22.666  0.00  0.00     0.002 A 
ATOM     26  C   UNL d   1     -45.371   9.994  23.698  0.00  0.00     0.009 C 
ATOM     27  C   UNL d   1     -44.597  10.548  23.376  0.00  0.00     0.009 C 
ATOM     28  C   UNL d   1     -50.270  15.431  22.613  0.00  0.00     0.000 A 
ATOM     29  C   UNL d   1     -51.003  15.117  22.844  0.00  0.00     0.002 A 
ENDROOT
BRANCH   4  30
ATOM     30  C   UNL d   1     -50.880  12.618  23.696  0.00  0.00     0.080 C 
ATOM     31  C   UNL d   1     -51.062  11.909  23.311  0.00  0.00     0.021 C 
ENDBRANCH   4  30
TORSDOF 1
ENDMDL
MODEL 2
REMARK VINA RESULT:      -8.5      1.182      5.208
REMARK  1 active torsions:
REMARK  status: ('A' for Active; 'I' for Inactive)
REMARK    1  A    between atoms: C_24  and  N_4 
ROOT
ATOM      1  C   UNL d   1     -49.386  12.110  23.353  0.00  0.00     0.111 A 
ATOM      2  C   UNL d   1     -49.416  13.457  22.941  0.00  0.00     0.062 A 
ATOM      3  C   UNL d   1     -49.012  12.789  23.105  0.00  0.00     0.018 A 
ATOM      4  N   UNL d   1     -45.296  12.647  22.759  0.00  0.00    -0.305 N 
ATOM      5  C   UNL d   1     -50.215  12.118  23.438  0.00  0.00     0.213 A 
ATOM      6  C   UNL d   1     -50.245  13.464  23.025  0.00  0.00     0.101 A 
ATOM      7  C   UNL d   1     -46.480  12.113  23.048  0.00  0.00     0.018 A 
ATOM      8  C   UNL d   1     -46.102  12.801  22.796  0.00  0.00     0.064 A 
ATOM      9  O   UNL d   1     -50.649  12.804  23.271  0.00  0.00    -0.288 OA
ATOM     10  C   UNL d   1     -49.043  14.144  22.689  0.00  0.00     0.194 A 
ATOM     11  C   UNL d   1     -45.180  11.880  22.984  0.00  0.00     0.064 A 
ATOM     12  C   UNL d   1     -47.743  12.778  22.975  0.00  0.00     0.001 A 
ATOM     13  C   UNL d   1     -45.905  11.539  23.165  0.00  0.00     0.018 A 
ATOM     14  C   UNL d   1     -47.309  12.103  23.138  0.00  0.00     0.002 A 
ATOM     15  C   UNL d   1     -48.959  11.419  23.522  0.00  0.00     0.105 C 
ATOM     16  N   UNL d   1     -48.521  10.702  23.698  0.00  0.00    -0.191 NA
ATOM     17  C   UNL d   1     -46.562  13.469  22.638  0.00  0.00     0.018 A 
ATOM     18  C   UNL d   1     -50.679  14.158  22.856  0.00  0.00     0.002 A 
ATOM     19  C   UNL d   1     -50.275  14.835  22.605  0.00  0.00     0.042 A 
ATOM     20  C   UNL d   1     -49.447  14.828  22.520  0.00  0.00     0.019 A 
ATOM     21  C   UNL d   1     -47.376  13.449  22.729  0.00  0.00     0.002 A 
ATOM     22  O   UNL d   1     -48.204  14.136  22.604  0.00  0.00    -0.287 OA
ATOM     23  N   UNL d   1     -50.618  11.434  23.691  0.00  0.00    -0.120 N 
ATOM     24  C   UNL d   1     -44.489  11.413  23.056  0.00  0.00     0.018 A 
ATOM     25  C   UNL d   1     -45.946  10.736  23.418  0.00  0.00     0.002 A 
ATOM     26  C   UNL d   1     -50.292  15.592  22.373  0.00  0.00     0.009 C 
ATOM     27  C   UNL d   1     -51.061  15.001  22.636  0.00  0.00     0.009 C 
ATOM     28  C   UNL d   1     -45.260  10.285  23.485  0.00  0.00     0.000 A 
ATOM     29  C   UNL d   1     -44.528  10.632  23.301  0.00  0.00     0.002 A 
ENDROOT
BRANCH   4  30
ATOM     30  C   UNL d   1     -44.700  13.157  22.539  0.00  0.00     0.080 C 
ATOM     31  C   UNL d   1     -44.487  13.244  21.745  0.00  0.00     0.021 C 
ENDBRANCH   4  30
TORSDOF 1
ENDMDL
MODEL 3
REMARK VINA RESULT:      -7.3      1.353      2.505
REMARK  1 active torsions:
REMARK  status: ('A' for Active; 'I' for Inactive)
REMARK    1  A    between atoms: C_24  and  N_4 
ROOT
ATOM      1  C   UNL d   1     -46.333  11.518  23.095  0.00  0.00     0.111 A 
ATOM      2  C   UNL d   1     -45.555  12.511  22.467  0.00  0.00     0.062 A 
ATOM      3  C   UNL d   1     -46.253  12.252  22.753  0.00  0.00     0.018 A 
ATOM      4  N   UNL d   1     -49.318  14.379  22.575  0.00  0.00    -0.305 N 
ATOM      5  C   UNL d   1     -45.663  11.025  23.147  0.00  0.00     0.213 A 
ATOM      6  C   UNL d   1     -44.885  12.018  22.518  0.00  0.00     0.101 A 
ATOM      7  C   UNL d   1     -48.666  13.266  22.903  0.00  0.00     0.018 A 
ATOM      8  C   UNL d   1     -48.584  14.010  22.555  0.00  0.00     0.064 A 
ATOM      9  O   UNL d   1     -44.930  11.280  22.854  0.00  0.00    -0.288 OA
ATOM     10  C   UNL d   1     -45.471  13.250  22.121  0.00  0.00     0.194 A 
ATOM     11  C   UNL d   1     -49.841  13.873  22.926  0.00  0.00     0.064 A 
ATOM     12  C   UNL d   1     -47.279  13.006  22.675  0.00  0.00     0.001 A 
ATOM     13  C   UNL d   1     -49.449  13.181  23.133  0.00  0.00     0.018 A 
ATOM     14  C   UNL d   1     -48.005  12.761  22.962  0.00  0.00     0.002 A 
ATOM     15  C   UNL d   1     -47.063  11.256  23.391  0.00  0.00     0.105 C 
ATOM     16  N   UNL d   1     -47.815  10.981  23.697  0.00  0.00    -0.191 NA
ATOM     17  C   UNL d   1     -47.842  14.235  22.273  0.00  0.00     0.018 A 
ATOM     18  C   UNL d   1     -44.148  12.278  22.222  0.00  0.00     0.002 A 
ATOM     19  C   UNL d   1     -44.094  13.028  21.879  0.00  0.00     0.042 A 
ATOM     20  C   UNL d   1     -44.763  13.521  21.828  0.00  0.00     0.019 A 
ATOM     21  C   UNL d   1     -47.198  13.731  22.336  0.00  0.00     0.002 A 
ATOM     22  O   UNL d   1     -46.149  13.749  22.069  0.00  0.00    -0.287 OA
ATOM     23  N   UNL d   1     -45.721  10.270  23.493  0.00  0.00    -0.120 N 
ATOM     24  C   UNL d   1     -50.657  13.937  23.099  0.00  0.00     0.018 A 
ATOM     25  C   UNL d   1     -49.866  12.554  23.512  0.00  0.00     0.002 A 
ATOM     26  C   UNL d   1     -43.656  13.586  21.526  0.00  0.00     0.009 C 
ATOM     27  C   UNL d   1     -43.370  12.681  21.853  0.00  0.00     0.009 C 
ATOM     28  C   UNL d   1     -50.669  12.628  23.678  0.00  0.00     0.000 A 
ATOM     29  C   UNL d   1     -51.063  13.328  23.467  0.00  0.00     0.002 A 
ENDROOT
BRANCH   4  30
ATOM     30  C   UNL d   1     -49.512  15.120  22.297  0.00  0.00     0.080 C 
ATOM     31  C   UNL d   1     -49.391  15.793  22.761  0.00  0.00     0.021 C 
ENDBRANCH   4  30
TORSDOF 1
ENDMDL
