MODEL 1
REMARK VINA RESULT:      -7.4      0.000      0.000
REMARK  4 active torsions:
REMARK  status: ('A' for Active; 'I' for Inactive)
REMARK    1  A    between atoms: C_2  and  S_1 
REMARK    2  A    between atoms: N_7  and  S_1 
REMARK    3  A    between atoms: C_3  and  C_12 
REMARK    4  A    between atoms: C_15  and  N_7 
ROOT
ATOM      1  C   UNL d   1     -46.188  13.433  22.629  0.00  0.00     0.024 A 
ATOM      2  C   UNL d   1     -47.681  13.983  23.096  0.00  0.00     0.094 A 
ATOM      3  C   UNL d   1     -46.692  12.962  23.078  0.00  0.00     0.004 A 
ATOM      4  C   UNL d   1     -46.432  14.193  22.409  0.00  0.00     0.004 A 
ATOM      5  C   UNL d   1     -47.428  13.232  23.308  0.00  0.00     0.020 A 
ATOM      6  C   UNL d   1     -47.170  14.468  22.638  0.00  0.00     0.020 A 
ENDROOT
BRANCH   2   7
ATOM      7  N   UNL d   1     -48.416  14.257  23.324  0.00  0.00    -0.158 NA
BRANCH   7   8
ATOM      8  S   UNL d   1     -49.081  14.094  22.856  0.00  0.00     0.287 S 
ATOM      9  O   UNL d   1     -48.855  14.681  22.323  0.00  0.00    -0.198 OA
ATOM     10  O   UNL d   1     -49.308  13.507  23.387  0.00  0.00    -0.198 OA
BRANCH   8  11
ATOM     11  C   UNL d   1     -49.739  13.936  22.387  0.00  0.00     0.135 A 
ATOM     12  C   UNL d   1     -49.799  13.237  21.963  0.00  0.00     0.045 A 
ATOM     13  C   UNL d   1     -50.454  13.083  21.498  0.00  0.00     0.141 A 
ATOM     14  F   UNL d   1     -50.508  12.379  21.074  0.00  0.00    -0.204 F 
ATOM     15  C   UNL d   1     -51.063  13.638  21.455  0.00  0.00     0.032 A 
ATOM     16  C   UNL d   1     -51.017  14.347  21.877  0.00  0.00     0.033 A 
ATOM     17  C   UNL d   1     -50.348  14.491  22.344  0.00  0.00     0.152 A 
ATOM     18  F   UNL d   1     -50.299  15.203  22.770  0.00  0.00    -0.203 F 
ENDBRANCH   8  11
ENDBRANCH   7   8
ENDBRANCH   2   7
BRANCH   1  19
ATOM     19  C   UNL d   1     -45.445  13.160  22.397  0.00  0.00     0.112 A 
ATOM     20  S   UNL d   1     -45.118  12.436  22.603  0.00  0.00    -0.047 SA
ATOM     21  C   UNL d   1     -44.359  12.382  22.250  0.00  0.00     0.130 A 
ATOM     22  N   UNL d   1     -43.783  11.794  22.262  0.00  0.00    -0.236 NA
ATOM     23  C   UNL d   1     -44.232  13.089  21.827  0.00  0.00     0.106 A 
ATOM     24  C   UNL d   1     -43.075  11.911  21.848  0.00  0.00     0.100 A 
ATOM     25  C   UNL d   1     -42.945  12.612  21.426  0.00  0.00     0.022 A 
ATOM     26  C   UNL d   1     -43.522  13.197  21.417  0.00  0.00     0.023 A 
ATOM     27  N   UNL d   1     -44.907  13.570  21.919  0.00  0.00    -0.237 NA
ENDBRANCH   1  19
TORSDOF 4
ENDMDL
MODEL 2
REMARK VINA RESULT:      -6.2      8.406      9.716
REMARK  4 active torsions:
REMARK  status: ('A' for Active; 'I' for Inactive)
REMARK    1  A    between atoms: C_2  and  S_1 
REMARK    2  A    between atoms: N_7  and  S_1 
REMARK    3  A    between atoms: C_3  and  C_12 
REMARK    4  A    between atoms: C_15  and  N_7 
ROOT
ATOM      1  C   UNL d   1     -39.122  14.842  18.224  0.00  0.00     0.024 A 
ATOM      2  C   UNL d   1     -39.667  15.100  19.770  0.00  0.00     0.094 A 
ATOM      3  C   UNL d   1     -39.741  14.397  18.536  0.00  0.00     0.004 A 
ATOM      4  C   UNL d   1     -38.769  15.427  18.691  0.00  0.00     0.004 A 
ATOM      5  C   UNL d   1     -40.009  14.523  19.297  0.00  0.00     0.020 A 
ATOM      6  C   UNL d   1     -39.035  15.557  19.456  0.00  0.00     0.020 A 
ENDROOT
BRANCH   2   7
ATOM      7  N   UNL d   1     -39.932  15.229  20.531  0.00  0.00    -0.158 NA
BRANCH   7   8
ATOM      8  S   UNL d   1     -39.564  14.845  21.167  0.00  0.00     0.287 S 
ATOM      9  O   UNL d   1     -40.187  14.307  21.207  0.00  0.00    -0.198 OA
ATOM     10  O   UNL d   1     -38.941  15.381  21.128  0.00  0.00    -0.198 OA
BRANCH   8  11
ATOM     11  C   UNL d   1     -39.204  14.459  21.799  0.00  0.00     0.135 A 
ATOM     12  C   UNL d   1     -38.872  13.715  21.707  0.00  0.00     0.045 A 
ATOM     13  C   UNL d   1     -38.514  13.334  22.337  0.00  0.00     0.141 A 
ATOM     14  F   UNL d   1     -38.183  12.586  22.237  0.00  0.00    -0.204 F 
ATOM     15  C   UNL d   1     -38.487  13.703  23.074  0.00  0.00     0.032 A 
ATOM     16  C   UNL d   1     -38.818  14.453  23.182  0.00  0.00     0.033 A 
ATOM     17  C   UNL d   1     -39.176  14.828  22.536  0.00  0.00     0.152 A 
ATOM     18  F   UNL d   1     -39.509  15.582  22.642  0.00  0.00    -0.203 F 
ENDBRANCH   8  11
ENDBRANCH   7   8
ENDBRANCH   2   7
BRANCH   1  19
ATOM     19  C   UNL d   1     -38.851  14.714  17.455  0.00  0.00     0.112 A 
ATOM     20  S   UNL d   1     -38.655  15.301  16.916  0.00  0.00    -0.047 SA
ATOM     21  C   UNL d   1     -38.407  14.929  16.206  0.00  0.00     0.130 A 
ATOM     22  N   UNL d   1     -38.149  15.231  15.484  0.00  0.00    -0.236 NA
ATOM     23  C   UNL d   1     -38.457  14.107  16.326  0.00  0.00     0.106 A 
ATOM     24  C   UNL d   1     -37.940  14.707  14.878  0.00  0.00     0.100 A 
ATOM     25  C   UNL d   1     -37.988  13.888  14.993  0.00  0.00     0.022 A 
ATOM     26  C   UNL d   1     -38.246  13.591  15.715  0.00  0.00     0.023 A 
ATOM     27  N   UNL d   1     -38.733  13.975  17.102  0.00  0.00    -0.237 NA
ENDBRANCH   1  19
TORSDOF 4
ENDMDL
MODEL 3
REMARK VINA RESULT:      -6.2      2.497      5.528
REMARK  4 active torsions:
REMARK  status: ('A' for Active; 'I' for Inactive)
REMARK    1  A    between atoms: C_2  and  S_1 
REMARK    2  A    between atoms: N_7  and  S_1 
REMARK    3  A    between atoms: C_3  and  C_12 
REMARK    4  A    between atoms: C_15  and  N_7 
ROOT
ATOM      1  C   UNL d   1     -47.593  13.790  22.601  0.00  0.00     0.024 A 
ATOM      2  C   UNL d   1     -46.013  13.350  22.352  0.00  0.00     0.094 A 
ATOM      3  C   UNL d   1     -47.399  13.177  22.086  0.00  0.00     0.004 A 
ATOM      4  C   UNL d   1     -46.989  14.191  23.000  0.00  0.00     0.004 A 
ATOM      5  C   UNL d   1     -46.621  12.961  21.963  0.00  0.00     0.020 A 
ATOM      6  C   UNL d   1     -46.206  13.976  22.879  0.00  0.00     0.020 A 
ENDROOT
BRANCH   2   7
ATOM      7  N   UNL d   1     -45.235  13.137  22.232  0.00  0.00    -0.158 NA
BRANCH   7   8
ATOM      8  S   UNL d   1     -44.960  12.404  22.509  0.00  0.00     0.287 S 
ATOM      9  O   UNL d   1     -44.926  12.702  23.276  0.00  0.00    -0.198 OA
ATOM     10  O   UNL d   1     -44.994  12.105  21.742  0.00  0.00    -0.198 OA
BRANCH   8  11
ATOM     11  C   UNL d   1     -44.687  11.680  22.788  0.00  0.00     0.135 A 
ATOM     12  C   UNL d   1     -45.204  11.127  23.104  0.00  0.00     0.045 A 
ATOM     13  C   UNL d   1     -44.930  10.407  23.382  0.00  0.00     0.141 A 
ATOM     14  F   UNL d   1     -45.454   9.856  23.697  0.00  0.00    -0.204 F 
ATOM     15  C   UNL d   1     -44.124  10.235  23.343  0.00  0.00     0.032 A 
ATOM     16  C   UNL d   1     -43.592  10.784  23.027  0.00  0.00     0.033 A 
ATOM     17  C   UNL d   1     -43.881  11.508  22.750  0.00  0.00     0.152 A 
ATOM     18  F   UNL d   1     -43.348  12.061  22.432  0.00  0.00    -0.203 F 
ENDBRANCH   8  11
ENDBRANCH   7   8
ENDBRANCH   2   7
BRANCH   1  19
ATOM     19  C   UNL d   1     -48.379  14.008  22.725  0.00  0.00     0.112 A 
ATOM     20  S   UNL d   1     -48.681  14.766  22.642  0.00  0.00    -0.047 SA
ATOM     21  C   UNL d   1     -49.501  14.742  22.820  0.00  0.00     0.130 A 
ATOM     22  N   UNL d   1     -50.083  15.324  22.830  0.00  0.00    -0.236 NA
ATOM     23  C   UNL d   1     -49.689  13.954  23.012  0.00  0.00     0.106 A 
ATOM     24  C   UNL d   1     -50.858  15.118  23.034  0.00  0.00     0.100 A 
ATOM     25  C   UNL d   1     -51.050  14.335  23.226  0.00  0.00     0.022 A 
ATOM     26  C   UNL d   1     -50.467  13.756  23.214  0.00  0.00     0.023 A 
ATOM     27  N   UNL d   1     -48.991  13.499  22.952  0.00  0.00    -0.237 NA
ENDBRANCH   1  19
TORSDOF 4
ENDMDL
