MODEL 1
REMARK VINA RESULT:      54.8      0.000      0.000
REMARK  4 active torsions:
REMARK  status: ('A' for Active; 'I' for Inactive)
REMARK       I    between atoms: C_6  and  N_7 
REMARK    1  A    between atoms: C_9  and  C_6 
REMARK    2  A    between atoms: N_7  and  C_15 
REMARK    3  A    between atoms: C_15  and  C_14 
REMARK    4  A    between atoms: O_22  and  C_18 
ROOT
ATOM      1  C   UNL d   1     -49.383  26.659  33.321  0.00  0.00     0.102 C 
ENDROOT
BRANCH   1   2
ATOM      2  N   UNL d   1     -49.202  27.311  33.777  0.00  0.00    -0.206 NA
ATOM      3  C   UNL d   1     -48.548  27.315  34.270  0.00  0.00     0.279 C 
ATOM      4  O   UNL d   1     -48.063  26.648  34.307  0.00  0.00    -0.265 OA
BRANCH   3   5
ATOM      5  C   UNL d   1     -48.364  27.974  34.732  0.00  0.00     0.058 A 
ATOM      6  C   UNL d   1     -47.707  28.440  34.551  0.00  0.00     0.007 A 
ATOM      7  C   UNL d   1     -47.536  29.096  35.021  0.00  0.00     0.024 A 
ATOM      8  C   UNL d   1     -48.000  29.292  35.657  0.00  0.00     0.094 A 
ATOM      9  C   UNL d   1     -48.669  28.818  35.842  0.00  0.00     0.024 A 
ATOM     10  C   UNL d   1     -48.853  28.158  35.380  0.00  0.00     0.007 A 
BRANCH   8  11
ATOM     11  O   UNL d   1     -47.836  29.942  36.129  0.00  0.00    -0.328 OA
ATOM     12  C   UNL d   1     -47.257  30.486  35.875  0.00  0.00     0.181 C 
ENDBRANCH   8  11
ENDBRANCH   3   5
ENDBRANCH   1   2
BRANCH   1  13
ATOM     13  C   UNL d   1     -50.136  26.328  33.343  0.00  0.00     0.019 A 
ATOM     14  C   UNL d   1     -50.807  26.820  33.387  0.00  0.00     0.003 A 
ATOM     15  C   UNL d   1     -51.563  26.487  33.410  0.00  0.00     0.018 A 
ATOM     16  C   UNL d   1     -51.652  25.669  33.389  0.00  0.00     0.064 A 
ATOM     17  N   UNL d   1     -52.319  25.187  33.403  0.00  0.00    -0.304 N 
ATOM     18  C   UNL d   1     -50.994  25.175  33.345  0.00  0.00     0.018 A 
ATOM     19  C   UNL d   1     -52.074  24.404  33.368  0.00  0.00     0.064 A 
ATOM     20  C   UNL d   1     -53.101  25.451  33.445  0.00  0.00     0.099 C 
ATOM     21  C   UNL d   1     -51.252  24.400  33.333  0.00  0.00     0.019 A 
ATOM     22  C   UNL d   1     -52.562  23.739  33.369  0.00  0.00     0.019 C 
ATOM     23  C   UNL d   1     -50.228  25.507  33.322  0.00  0.00     0.003 A 
ENDBRANCH   1  13
TORSDOF 4
ENDMDL
