MODEL 1
REMARK VINA RESULT:     122.5      0.000      0.000
REMARK  5 active torsions:
REMARK  status: ('A' for Active; 'I' for Inactive)
REMARK    1  A    between atoms: C_23  and  N_10 
REMARK    2  A    between atoms: C_14  and  N_13 
REMARK    3  A    between atoms: N_15  and  C_28 
REMARK    4  A    between atoms: C_27  and  C_23 
REMARK    5  A    between atoms: C_28  and  C_27 
ROOT
ATOM      1  C   UNL d   1      59.876  49.581  51.934  0.00  0.00     0.173 A 
ATOM      2  C   UNL d   1      59.727  49.611  51.142  0.00  0.00     0.191 A 
ATOM      3  C   UNL d   1      58.322  49.642  51.388  0.00  0.00     0.722 A 
ATOM      4  N   UNL d   1      58.464  49.611  52.204  0.00  0.00    -0.131 N 
ATOM      5  N   UNL d   1      58.953  49.642  50.857  0.00  0.00    -0.042 NA
ATOM      6  N   UNL d   1      60.346  49.612  50.603  0.00  0.00    -0.240 N 
ATOM      7  N   UNL d   1      61.267  49.549  51.737  0.00  0.00    -0.223 N 
ATOM      8  C   UNL d   1      61.121  49.581  50.899  0.00  0.00     0.343 A 
ATOM      9  C   UNL d   1      60.633  49.549  52.257  0.00  0.00     0.288 A 
ATOM     10  N   UNL d   1      57.548  49.673  51.103  0.00  0.00    -0.139 N 
ATOM     11  C   UNL d   1      57.046  49.642  52.451  0.00  0.00     0.116 A 
ATOM     12  C   UNL d   1      56.905  49.673  51.635  0.00  0.00     0.100 A 
ATOM     13  O   UNL d   1      61.756  49.583  50.321  0.00  0.00    -0.245 OA
ATOM     14  O   UNL d   1      60.775  49.518  53.072  0.00  0.00    -0.265 OA
ATOM     15  C   UNL d   1      60.204  49.643  49.787  0.00  0.00     0.105 C 
ATOM     16  C   UNL d   1      62.041  49.518  52.022  0.00  0.00     0.107 C 
ATOM     17  C   UNL d   1      56.138  49.704  51.326  0.00  0.00     0.021 C 
ENDROOT
BRANCH  10  18
ATOM     18  C   UNL d   1      57.399  49.704  50.289  0.00  0.00     0.100 C 
BRANCH  18  19
ATOM     19  C   UNL d   1      57.347  49.007  49.840  0.00  0.00     0.039 C 
BRANCH  19  20
ATOM     20  C   UNL d   1      56.679  48.538  49.885  0.00  0.00     0.082 C 
BRANCH  20  21
ATOM     21  N   UNL d   1      56.745  47.717  49.842  0.00  0.00    -0.300 N 
ATOM     22  C   UNL d   1      56.686  47.340  49.109  0.00  0.00     0.100 A 
ATOM     23  C   UNL d   1      56.753  46.515  49.072  0.00  0.00     0.100 A 
ATOM     24  N   UNL d   1      56.877  46.074  49.754  0.00  0.00    -0.301 N 
ATOM     25  C   UNL d   1      56.936  46.456  50.485  0.00  0.00     0.100 A 
ATOM     26  C   UNL d   1      56.871  47.272  50.529  0.00  0.00     0.100 A 
BRANCH  24  27
ATOM     27  C   UNL d   1      56.943  45.253  49.709  0.00  0.00     0.065 A 
ATOM     28  C   UNL d   1      57.004  44.809  50.393  0.00  0.00     0.029 A 
ATOM     29  C   UNL d   1      57.069  43.999  50.352  0.00  0.00     0.059 A 
ATOM     30 CL   UNL d   1      57.131  43.544  51.049  0.00  0.00    -0.082 Cl
ATOM     31  C   UNL d   1      57.073  43.621  49.613  0.00  0.00     0.011 A 
ATOM     32  C   UNL d   1      57.011  44.065  48.921  0.00  0.00     0.002 A 
ATOM     33  C   UNL d   1      56.946  44.886  48.966  0.00  0.00     0.018 A 
ENDBRANCH  24  27
ENDBRANCH  20  21
ENDBRANCH  19  20
ENDBRANCH  18  19
ENDBRANCH  10  18
TORSDOF 5
ENDMDL
