MODEL 1
REMARK VINA RESULT:      21.0      0.000      0.000
REMARK  0 active torsions:
REMARK  status: ('A' for Active; 'I' for Inactive)
ROOT
ATOM      1  C   UNL d   1     -51.090  25.267  33.342  0.00  0.00     0.166 A 
ATOM      2  C   UNL d   1     -51.897  25.448  33.327  0.00  0.00     0.117 A 
ATOM      3  N   UNL d   1     -51.004  24.440  33.352  0.00  0.00    -0.288 N 
ATOM      4  C   UNL d   1     -52.313  24.732  33.328  0.00  0.00     0.037 A 
ATOM      5  N   UNL d   1     -50.519  25.866  33.345  0.00  0.00    -0.225 NA
ATOM      6  C   UNL d   1     -51.760  24.127  33.343  0.00  0.00     0.067 A 
ATOM      7  N   UNL d   1     -52.133  26.231  33.315  0.00  0.00    -0.241 NA
ATOM      8  C   UNL d   1     -50.755  26.651  33.332  0.00  0.00     0.101 A 
ATOM      9  C   UNL d   1     -51.567  26.833  33.317  0.00  0.00     0.099 A 
ATOM     10  C   UNL d   1     -52.030  23.334  33.348  0.00  0.00     0.018 A 
ATOM     11  C   UNL d   1     -53.137  24.578  33.316  0.00  0.00     0.003 A 
ATOM     12  C   UNL d   1     -50.563  23.737  33.367  0.00  0.00     0.101 C 
ATOM     13  C   UNL d   1     -53.389  23.809  33.320  0.00  0.00     0.000 A 
ATOM     14  C   UNL d   1     -52.846  23.206  33.336  0.00  0.00     0.002 A 
ATOM     15  C   UNL d   1     -51.775  27.599  33.306  0.00  0.00     0.021 A 
ATOM     16  C   UNL d   1     -50.189  27.252  33.335  0.00  0.00     0.021 A 
ATOM     17  C   UNL d   1     -54.135  23.585  33.311  0.00  0.00     0.000 C 
ATOM     18  C   UNL d   1     -51.230  28.212  33.308  0.00  0.00     0.002 A 
ATOM     19  C   UNL d   1     -50.424  28.033  33.323  0.00  0.00     0.002 A 
ENDROOT
TORSDOF 0
ENDMDL
MODEL 2
REMARK VINA RESULT:      23.8      0.625      3.475
REMARK  0 active torsions:
REMARK  status: ('A' for Active; 'I' for Inactive)
ROOT
ATOM      1  C   UNL d   1     -51.287  24.922  33.343  0.00  0.00     0.166 A 
ATOM      2  C   UNL d   1     -51.766  25.597  33.356  0.00  0.00     0.117 A 
ATOM      3  N   UNL d   1     -50.492  25.163  33.336  0.00  0.00    -0.288 N 
ATOM      4  C   UNL d   1     -51.267  26.257  33.357  0.00  0.00     0.037 A 
ATOM      5  N   UNL d   1     -51.618  24.164  33.339  0.00  0.00    -0.225 NA
ATOM      6  C   UNL d   1     -50.495  25.981  33.344  0.00  0.00     0.067 A 
ATOM      7  N   UNL d   1     -52.580  25.512  33.365  0.00  0.00    -0.241 NA
ATOM      8  C   UNL d   1     -52.434  24.079  33.348  0.00  0.00     0.101 A 
ATOM      9  C   UNL d   1     -52.916  24.758  33.361  0.00  0.00     0.099 A 
ATOM     10  C   UNL d   1     -49.868  26.537  33.343  0.00  0.00     0.018 A 
ATOM     11  C   UNL d   1     -51.443  27.076  33.368  0.00  0.00     0.003 A 
ATOM     12  C   UNL d   1     -49.672  25.028  33.324  0.00  0.00     0.101 C 
ATOM     13  C   UNL d   1     -50.831  27.606  33.366  0.00  0.00     0.000 A 
ATOM     14  C   UNL d   1     -50.065  27.338  33.354  0.00  0.00     0.002 A 
ATOM     15  C   UNL d   1     -53.703  24.653  33.369  0.00  0.00     0.021 A 
ATOM     16  C   UNL d   1     -52.769  23.324  33.344  0.00  0.00     0.021 A 
ATOM     17  C   UNL d   1     -50.913  28.381  33.375  0.00  0.00     0.000 C 
ATOM     18  C   UNL d   1     -54.058  23.913  33.366  0.00  0.00     0.002 A 
ATOM     19  C   UNL d   1     -53.581  23.240  33.353  0.00  0.00     0.002 A 
ENDROOT
TORSDOF 0
ENDMDL
