MODEL 1
REMARK VINA RESULT:      -7.3      0.000      0.000
REMARK  3 active torsions:
REMARK  status: ('A' for Active; 'I' for Inactive)
REMARK    1  A    between atoms: S_8  and  C_2 
REMARK    2  A    between atoms: C_13  and  S_8 
REMARK    3  A    between atoms: C_15  and  C_13 
ROOT
ATOM      1  C   UNL d   1     -49.185  12.333  22.567  0.00  0.00     0.104 A 
ATOM      2  C   UNL d   1     -47.626  12.637  23.004  0.00  0.00     0.182 A 
ATOM      3  N   UNL d   1     -47.991  11.936  23.239  0.00  0.00    -0.251 N 
ATOM      4  C   UNL d   1     -48.780  11.787  23.016  0.00  0.00     0.274 A 
ATOM      5  C   UNL d   1     -48.819  13.033  22.331  0.00  0.00     0.095 A 
ATOM      6  N   UNL d   1     -48.048  13.189  22.544  0.00  0.00    -0.222 NA
ATOM      7  S   UNL d   1     -49.952  12.336  22.269  0.00  0.00    -0.081 SA
ATOM      8  C   UNL d   1     -49.360  13.469  21.888  0.00  0.00     0.026 A 
ATOM      9  O   UNL d   1     -49.146  11.087  23.252  0.00  0.00    -0.266 OA
ATOM     10  C   UNL d   1     -50.056  13.043  21.849  0.00  0.00     0.031 A 
ATOM     11  C   UNL d   1     -47.575  11.382  23.698  0.00  0.00     0.104 C 
ATOM     12  C   UNL d   1     -50.740  13.284  21.456  0.00  0.00     0.007 C 
ENDROOT
BRANCH   2  13
ATOM     13  S   UNL d   1     -46.837  12.796  23.222  0.00  0.00    -0.050 SA
BRANCH  13  14
ATOM     14  C   UNL d   1     -46.396  13.342  22.788  0.00  0.00     0.032 C 
ATOM     15  C   UNL d   1     -46.460  14.148  22.953  0.00  0.00     0.007 C 
BRANCH  14  16
ATOM     16  C   UNL d   1     -45.893  13.081  22.192  0.00  0.00     0.007 C 
ATOM     17  C   UNL d   1     -45.123  13.376  22.146  0.00  0.00     0.001 C 
ENDBRANCH  14  16
ENDBRANCH  13  14
ENDBRANCH   2  13
TORSDOF 3
ENDMDL
MODEL 2
REMARK VINA RESULT:      -7.1      1.780      2.265
REMARK  3 active torsions:
REMARK  status: ('A' for Active; 'I' for Inactive)
REMARK    1  A    between atoms: S_8  and  C_2 
REMARK    2  A    between atoms: C_13  and  S_8 
REMARK    3  A    between atoms: C_15  and  C_13 
ROOT
ATOM      1  C   UNL d   1     -49.733  14.407  22.438  0.00  0.00     0.104 A 
ATOM      2  C   UNL d   1     -48.328  13.557  22.301  0.00  0.00     0.182 A 
ATOM      3  N   UNL d   1     -48.946  13.423  21.771  0.00  0.00    -0.251 N 
ATOM      4  C   UNL d   1     -49.654  13.855  21.845  0.00  0.00     0.274 A 
ATOM      5  C   UNL d   1     -49.115  14.542  22.968  0.00  0.00     0.095 A 
ATOM      6  N   UNL d   1     -48.418  14.124  22.905  0.00  0.00    -0.222 NA
ATOM      7  S   UNL d   1     -50.353  14.907  22.643  0.00  0.00    -0.081 SA
ATOM      8  C   UNL d   1     -49.354  15.124  23.499  0.00  0.00     0.026 A 
ATOM      9  O   UNL d   1     -50.272  13.721  21.316  0.00  0.00    -0.266 OA
ATOM     10  C   UNL d   1     -50.114  15.349  23.301  0.00  0.00     0.031 A 
ATOM     11  C   UNL d   1     -48.862  12.858  21.167  0.00  0.00     0.104 C 
ATOM     12  C   UNL d   1     -50.559  15.921  23.696  0.00  0.00     0.007 C 
ENDROOT
BRANCH   2  13
ATOM     13  S   UNL d   1     -47.615  13.130  22.235  0.00  0.00    -0.050 SA
BRANCH  13  14
ATOM     14  C   UNL d   1     -47.092  13.109  22.874  0.00  0.00     0.032 C 
ATOM     15  C   UNL d   1     -46.544  13.716  22.978  0.00  0.00     0.007 C 
BRANCH  14  16
ATOM     16  C   UNL d   1     -47.120  12.482  23.405  0.00  0.00     0.007 C 
ATOM     17  C   UNL d   1     -46.427  12.077  23.599  0.00  0.00     0.001 C 
ENDBRANCH  14  16
ENDBRANCH  13  14
ENDBRANCH   2  13
TORSDOF 3
ENDMDL
MODEL 3
REMARK VINA RESULT:      -7.0      1.512      3.514
REMARK  3 active torsions:
REMARK  status: ('A' for Active; 'I' for Inactive)
REMARK    1  A    between atoms: S_8  and  C_2 
REMARK    2  A    between atoms: C_13  and  S_8 
REMARK    3  A    between atoms: C_15  and  C_13 
ROOT
ATOM      1  C   UNL d   1     -47.198  13.066  23.142  0.00  0.00     0.104 A 
ATOM      2  C   UNL d   1     -48.640  13.800  22.832  0.00  0.00     0.182 A 
ATOM      3  N   UNL d   1     -47.938  14.231  22.781  0.00  0.00    -0.251 N 
ATOM      4  C   UNL d   1     -47.212  13.854  22.939  0.00  0.00     0.274 A 
ATOM      5  C   UNL d   1     -47.900  12.636  23.193  0.00  0.00     0.095 A 
ATOM      6  N   UNL d   1     -48.616  12.994  23.041  0.00  0.00    -0.222 NA
ATOM      7  S   UNL d   1     -46.578  12.558  23.325  0.00  0.00    -0.081 SA
ATOM      8  C   UNL d   1     -47.713  11.862  23.407  0.00  0.00     0.026 A 
ATOM      9  O   UNL d   1     -46.509  14.284  22.888  0.00  0.00    -0.266 OA
ATOM     10  C   UNL d   1     -46.901  11.813  23.488  0.00  0.00     0.031 A 
ATOM     11  C   UNL d   1     -47.956  15.035  22.574  0.00  0.00     0.104 C 
ATOM     12  C   UNL d   1     -46.485  11.132  23.698  0.00  0.00     0.007 C 
ENDROOT
BRANCH   2  13
ATOM     13  S   UNL d   1     -49.372  14.168  22.676  0.00  0.00    -0.050 SA
BRANCH  13  14
ATOM     14  C   UNL d   1     -50.040  13.702  22.539  0.00  0.00     0.032 C 
ATOM     15  C   UNL d   1     -50.478  13.410  23.174  0.00  0.00     0.007 C 
BRANCH  14  16
ATOM     16  C   UNL d   1     -50.267  13.531  21.767  0.00  0.00     0.007 C 
ATOM     17  C   UNL d   1     -51.064  13.575  21.554  0.00  0.00     0.001 C 
ENDBRANCH  14  16
ENDBRANCH  13  14
ENDBRANCH   2  13
TORSDOF 3
ENDMDL
MODEL 4
REMARK VINA RESULT:      -6.9      1.423      3.208
REMARK  3 active torsions:
REMARK  status: ('A' for Active; 'I' for Inactive)
REMARK    1  A    between atoms: S_8  and  C_2 
REMARK    2  A    between atoms: C_13  and  S_8 
REMARK    3  A    between atoms: C_15  and  C_13 
ROOT
ATOM      1  C   UNL d   1     -47.679  12.772  23.104  0.00  0.00     0.104 A 
ATOM      2  C   UNL d   1     -49.170  13.452  23.269  0.00  0.00     0.182 A 
ATOM      3  N   UNL d   1     -49.064  12.649  23.422  0.00  0.00    -0.251 N 
ATOM      4  C   UNL d   1     -48.308  12.310  23.337  0.00  0.00     0.274 A 
ATOM      5  C   UNL d   1     -47.786  13.576  22.951  0.00  0.00     0.095 A 
ATOM      6  N   UNL d   1     -48.521  13.917  23.031  0.00  0.00    -0.222 NA
ATOM      7  S   UNL d   1     -46.886  12.594  22.977  0.00  0.00    -0.081 SA
ATOM      8  C   UNL d   1     -47.058  13.893  22.730  0.00  0.00     0.026 A 
ATOM      9  O   UNL d   1     -48.201  11.506  23.490  0.00  0.00    -0.266 OA
ATOM     10  C   UNL d   1     -46.505  13.292  22.745  0.00  0.00     0.031 A 
ATOM     11  C   UNL d   1     -49.708  12.180  23.659  0.00  0.00     0.104 C 
ATOM     12  C   UNL d   1     -45.706  13.377  22.559  0.00  0.00     0.007 C 
ENDROOT
BRANCH   2  13
ATOM     13  S   UNL d   1     -49.923  13.801  23.350  0.00  0.00    -0.050 SA
BRANCH  13  14
ATOM     14  C   UNL d   1     -50.037  14.585  23.115  0.00  0.00     0.032 C 
ATOM     15  C   UNL d   1     -50.184  14.760  22.323  0.00  0.00     0.007 C 
BRANCH  14  16
ATOM     16  C   UNL d   1     -50.003  15.188  23.672  0.00  0.00     0.007 C 
ATOM     17  C   UNL d   1     -50.579  15.780  23.673  0.00  0.00     0.001 C 
ENDBRANCH  14  16
ENDBRANCH  13  14
ENDBRANCH   2  13
TORSDOF 3
ENDMDL
MODEL 5
REMARK VINA RESULT:      -6.8      1.497      2.021
REMARK  3 active torsions:
REMARK  status: ('A' for Active; 'I' for Inactive)
REMARK    1  A    between atoms: S_8  and  C_2 
REMARK    2  A    between atoms: C_13  and  S_8 
REMARK    3  A    between atoms: C_15  and  C_13 
ROOT
ATOM      1  C   UNL d   1     -49.613  13.455  23.118  0.00  0.00     0.104 A 
ATOM      2  C   UNL d   1     -48.027  13.871  22.959  0.00  0.00     0.182 A 
ATOM      3  N   UNL d   1     -48.617  14.421  22.786  0.00  0.00    -0.251 N 
ATOM      4  C   UNL d   1     -49.417  14.205  22.868  0.00  0.00     0.274 A 
ATOM      5  C   UNL d   1     -49.022  12.906  23.292  0.00  0.00     0.095 A 
ATOM      6  N   UNL d   1     -48.236  13.106  23.215  0.00  0.00    -0.222 NA
ATOM      7  S   UNL d   1     -50.340  13.093  23.248  0.00  0.00    -0.081 SA
ATOM      8  C   UNL d   1     -49.385  12.205  23.528  0.00  0.00     0.026 A 
ATOM      9  O   UNL d   1     -50.008  14.754  22.695  0.00  0.00    -0.266 OA
ATOM     10  C   UNL d   1     -50.194  12.318  23.502  0.00  0.00     0.031 A 
ATOM     11  C   UNL d   1     -48.414  15.185  22.531  0.00  0.00     0.104 C 
ATOM     12  C   UNL d   1     -50.760  11.750  23.697  0.00  0.00     0.007 C 
ENDROOT
BRANCH   2  13
ATOM     13  S   UNL d   1     -47.222  14.077  22.880  0.00  0.00    -0.050 SA
BRANCH  13  14
ATOM     14  C   UNL d   1     -46.650  13.482  22.855  0.00  0.00     0.032 C 
ATOM     15  C   UNL d   1     -46.438  13.084  23.546  0.00  0.00     0.007 C 
BRANCH  14  16
ATOM     16  C   UNL d   1     -46.293  13.287  22.140  0.00  0.00     0.007 C 
ATOM     17  C   UNL d   1     -45.470  13.251  22.089  0.00  0.00     0.001 C 
ENDBRANCH  14  16
ENDBRANCH  13  14
ENDBRANCH   2  13
TORSDOF 3
ENDMDL
MODEL 6
REMARK VINA RESULT:      -5.3      8.584      9.367
REMARK  3 active torsions:
REMARK  status: ('A' for Active; 'I' for Inactive)
REMARK    1  A    between atoms: S_8  and  C_2 
REMARK    2  A    between atoms: C_13  and  S_8 
REMARK    3  A    between atoms: C_15  and  C_13 
ROOT
ATOM      1  C   UNL d   1     -40.201  14.840  17.718  0.00  0.00     0.104 A 
ATOM      2  C   UNL d   1     -39.723  14.829  19.295  0.00  0.00     0.182 A 
ATOM      3  N   UNL d   1     -39.394  14.294  18.760  0.00  0.00    -0.251 N 
ATOM      4  C   UNL d   1     -39.639  14.304  17.964  0.00  0.00     0.274 A 
ATOM      5  C   UNL d   1     -40.530  15.375  18.253  0.00  0.00     0.095 A 
ATOM      6  N   UNL d   1     -40.298  15.374  19.034  0.00  0.00    -0.222 NA
ATOM      7  S   UNL d   1     -40.543  14.976  16.983  0.00  0.00    -0.081 SA
ATOM      8  C   UNL d   1     -41.075  15.841  17.848  0.00  0.00     0.026 A 
ATOM      9  O   UNL d   1     -39.310  13.769  17.429  0.00  0.00    -0.266 OA
ATOM     10  C   UNL d   1     -41.085  15.597  17.068  0.00  0.00     0.031 A 
ATOM     11  C   UNL d   1     -38.821  13.749  19.015  0.00  0.00     0.104 C 
ATOM     12  C   UNL d   1     -41.557  15.922  16.474  0.00  0.00     0.007 C 
ENDROOT
BRANCH   2  13
ATOM     13  S   UNL d   1     -39.485  14.828  20.094  0.00  0.00    -0.050 SA
BRANCH  13  14
ATOM     14  C   UNL d   1     -39.996  15.122  20.672  0.00  0.00     0.032 C 
ATOM     15  C   UNL d   1     -40.655  14.683  20.902  0.00  0.00     0.007 C 
BRANCH  14  16
ATOM     16  C   UNL d   1     -39.845  15.853  21.018  0.00  0.00     0.007 C 
ATOM     17  C   UNL d   1     -39.823  15.921  21.840  0.00  0.00     0.001 C 
ENDBRANCH  14  16
ENDBRANCH  13  14
ENDBRANCH   2  13
TORSDOF 3
ENDMDL
MODEL 7
REMARK VINA RESULT:      -5.2      8.421      9.822
REMARK  3 active torsions:
REMARK  status: ('A' for Active; 'I' for Inactive)
REMARK    1  A    between atoms: S_8  and  C_2 
REMARK    2  A    between atoms: C_13  and  S_8 
REMARK    3  A    between atoms: C_15  and  C_13 
ROOT
ATOM      1  C   UNL d   1     -39.551  14.245  17.646  0.00  0.00     0.104 A 
ATOM      2  C   UNL d   1     -40.256  15.116  18.854  0.00  0.00     0.182 A 
ATOM      3  N   UNL d   1     -40.416  15.298  18.066  0.00  0.00    -0.251 N 
ATOM      4  C   UNL d   1     -40.057  14.855  17.459  0.00  0.00     0.274 A 
ATOM      5  C   UNL d   1     -39.391  14.063  18.434  0.00  0.00     0.095 A 
ATOM      6  N   UNL d   1     -39.736  14.490  19.036  0.00  0.00    -0.222 NA
ATOM      7  S   UNL d   1     -39.125  13.723  17.175  0.00  0.00    -0.081 SA
ATOM      8  C   UNL d   1     -38.866  13.428  18.449  0.00  0.00     0.026 A 
ATOM      9  O   UNL d   1     -40.218  15.037  16.671  0.00  0.00    -0.266 OA
ATOM     10  C   UNL d   1     -38.702  13.218  17.677  0.00  0.00     0.031 A 
ATOM     11  C   UNL d   1     -40.934  15.921  17.879  0.00  0.00     0.104 C 
ATOM     12  C   UNL d   1     -38.199  12.605  17.447  0.00  0.00     0.007 C 
ENDROOT
BRANCH   2  13
ATOM     13  S   UNL d   1     -40.610  15.553  19.469  0.00  0.00    -0.050 SA
BRANCH  13  14
ATOM     14  C   UNL d   1     -40.506  15.313  20.253  0.00  0.00     0.032 C 
ATOM     15  C   UNL d   1     -40.941  14.678  20.551  0.00  0.00     0.007 C 
BRANCH  14  16
ATOM     16  C   UNL d   1     -39.969  15.708  20.734  0.00  0.00     0.007 C 
ATOM     17  C   UNL d   1     -40.183  15.916  21.504  0.00  0.00     0.001 C 
ENDBRANCH  14  16
ENDBRANCH  13  14
ENDBRANCH   2  13
TORSDOF 3
ENDMDL
MODEL 8
REMARK VINA RESULT:      -4.9      9.003      9.872
REMARK  3 active torsions:
REMARK  status: ('A' for Active; 'I' for Inactive)
REMARK    1  A    between atoms: S_8  and  C_2 
REMARK    2  A    between atoms: C_13  and  S_8 
REMARK    3  A    between atoms: C_15  and  C_13 
ROOT
ATOM      1  C   UNL d   1     -40.161  15.179  19.451  0.00  0.00     0.104 A 
ATOM      2  C   UNL d   1     -39.632  14.245  18.201  0.00  0.00     0.182 A 
ATOM      3  N   UNL d   1     -40.185  14.841  18.066  0.00  0.00    -0.251 N 
ATOM      4  C   UNL d   1     -40.449  15.311  18.701  0.00  0.00     0.274 A 
ATOM      5  C   UNL d   1     -39.607  14.583  19.586  0.00  0.00     0.095 A 
ATOM      6  N   UNL d   1     -39.342  14.118  18.972  0.00  0.00    -0.222 NA
ATOM      7  S   UNL d   1     -40.316  15.547  20.170  0.00  0.00    -0.081 SA
ATOM      8  C   UNL d   1     -39.421  14.582  20.389  0.00  0.00     0.026 A 
ATOM      9  O   UNL d   1     -41.003  15.908  18.566  0.00  0.00    -0.266 OA
ATOM     10  C   UNL d   1     -39.856  15.174  20.749  0.00  0.00     0.031 A 
ATOM     11  C   UNL d   1     -40.478  14.973  17.299  0.00  0.00     0.104 C 
ATOM     12  C   UNL d   1     -39.832  15.359  21.553  0.00  0.00     0.007 C 
ENDROOT
BRANCH   2  13
ATOM     13  S   UNL d   1     -39.361  13.769  17.572  0.00  0.00    -0.050 SA
BRANCH  13  14
ATOM     14  C   UNL d   1     -38.608  13.434  17.610  0.00  0.00     0.032 C 
ATOM     15  C   UNL d   1     -37.940  13.906  17.496  0.00  0.00     0.007 C 
BRANCH  14  16
ATOM     16  C   UNL d   1     -38.525  12.630  17.760  0.00  0.00     0.007 C 
ATOM     17  C   UNL d   1     -37.941  12.197  17.368  0.00  0.00     0.001 C 
ENDBRANCH  14  16
ENDBRANCH  13  14
ENDBRANCH   2  13
TORSDOF 3
ENDMDL
