MODEL 1
REMARK VINA RESULT:      32.5      0.000      0.000
REMARK  5 active torsions:
REMARK  status: ('A' for Active; 'I' for Inactive)
REMARK    1  A    between atoms: N_2  and  S_1 
REMARK    2  A    between atoms: C_3  and  S_1 
REMARK    3  A    between atoms: C_15  and  C_11 
REMARK    4  A    between atoms: O_17  and  C_12 
REMARK    5  A    between atoms: C_21  and  O_17 
ROOT
ATOM      1  C   UNL d   1      13.885  13.161  -2.771  0.00  0.00     0.128 A 
ATOM      2  C   UNL d   1      13.575  12.690  -3.371  0.00  0.00     0.015 A 
ATOM      3  C   UNL d   1      13.288  13.039  -4.062  0.00  0.00     0.001 A 
ATOM      4  C   UNL d   1      13.908  13.978  -2.860  0.00  0.00     0.112 A 
ATOM      5  C   UNL d   1      13.311  13.858  -4.152  0.00  0.00     0.002 A 
ATOM      6  C   UNL d   1      13.621  14.327  -3.550  0.00  0.00     0.025 A 
ENDROOT
BRANCH   1   7
ATOM      7  S   UNL d   1      14.172  12.812  -2.080  0.00  0.00     0.288 S 
ATOM      8  O   UNL d   1      14.409  13.553  -1.805  0.00  0.00    -0.198 OA
ATOM      9  O   UNL d   1      13.935  12.071  -2.356  0.00  0.00    -0.198 OA
BRANCH   7  10
ATOM     10  N   UNL d   1      14.459  12.463  -1.390  0.00  0.00    -0.152 N 
ATOM     11  N   UNL d   1      15.250  12.357  -1.190  0.00  0.00    -0.155 NA
ATOM     12  C   UNL d   1      15.288  11.988  -0.455  0.00  0.00     0.104 A 
ATOM     13  C   UNL d   1      15.976  11.779  -0.050  0.00  0.00     0.022 C 
ATOM     14  C   UNL d   1      14.514  11.864  -0.197  0.00  0.00     0.041 A 
ATOM     15  C   UNL d   1      14.004  12.157  -0.773  0.00  0.00     0.096 A 
ATOM     16  C   UNL d   1      13.180  12.147  -0.740  0.00  0.00     0.022 C 
ENDBRANCH   7  10
ENDBRANCH   1   7
BRANCH   4  17
ATOM     17  O   UNL d   1      14.219  14.452  -2.257  0.00  0.00    -0.304 OA
BRANCH  17  18
ATOM     18  C   UNL d   1      14.316  15.261  -2.377  0.00  0.00     0.123 C 
ATOM     19  C   UNL d   1      14.920  15.671  -1.983  0.00  0.00     0.029 C 
ENDBRANCH  17  18
ENDBRANCH   4  17
BRANCH   3  20
ATOM     20  C   UNL d   1      12.979  12.570  -4.663  0.00  0.00     0.000 C 
ATOM     21  C   UNL d   1      12.769  11.781  -4.510  0.00  0.00     0.000 C 
ATOM     22  C   UNL d   1      12.876  12.882  -5.420  0.00  0.00     0.000 C 
ENDBRANCH   3  20
TORSDOF 5
ENDMDL
MODEL 2
REMARK VINA RESULT:      34.0      1.165      3.389
REMARK  5 active torsions:
REMARK  status: ('A' for Active; 'I' for Inactive)
REMARK    1  A    between atoms: N_2  and  S_1 
REMARK    2  A    between atoms: C_3  and  S_1 
REMARK    3  A    between atoms: C_15  and  C_11 
REMARK    4  A    between atoms: O_17  and  C_12 
REMARK    5  A    between atoms: C_21  and  O_17 
ROOT
ATOM      1  C   UNL d   1      14.233  13.140  -2.204  0.00  0.00     0.128 A 
ATOM      2  C   UNL d   1      14.221  12.548  -1.632  0.00  0.00     0.015 A 
ATOM      3  C   UNL d   1      14.574  12.676  -0.897  0.00  0.00     0.001 A 
ATOM      4  C   UNL d   1      14.597  13.860  -2.042  0.00  0.00     0.112 A 
ATOM      5  C   UNL d   1      14.938  13.397  -0.734  0.00  0.00     0.002 A 
ATOM      6  C   UNL d   1      14.950  13.988  -1.307  0.00  0.00     0.025 A 
ENDROOT
BRANCH   1   7
ATOM      7  S   UNL d   1      13.880  13.011  -2.938  0.00  0.00     0.288 S 
ATOM      8  O   UNL d   1      14.198  13.721  -3.215  0.00  0.00    -0.198 OA
ATOM      9  O   UNL d   1      13.563  12.302  -2.662  0.00  0.00    -0.198 OA
BRANCH   7  10
ATOM     10  N   UNL d   1      13.528  12.883  -3.673  0.00  0.00    -0.152 N 
ATOM     11  N   UNL d   1      13.621  12.218  -4.148  0.00  0.00    -0.155 NA
ATOM     12  C   UNL d   1      13.172  12.318  -4.831  0.00  0.00     0.104 A 
ATOM     13  C   UNL d   1      13.109  11.781  -5.455  0.00  0.00     0.022 C 
ATOM     14  C   UNL d   1      12.797  13.051  -4.779  0.00  0.00     0.041 A 
ATOM     15  C   UNL d   1      13.017  13.398  -4.065  0.00  0.00     0.096 A 
ATOM     16  C   UNL d   1      12.769  14.135  -3.790  0.00  0.00     0.022 C 
ENDBRANCH   7  10
ENDBRANCH   1   7
BRANCH   4  17
ATOM     17  O   UNL d   1      14.610  14.456  -2.615  0.00  0.00    -0.304 OA
BRANCH  17  18
ATOM     18  C   UNL d   1      14.644  15.246  -2.388  0.00  0.00     0.123 C 
ATOM     19  C   UNL d   1      14.954  15.816  -2.905  0.00  0.00     0.029 C 
ENDBRANCH  17  18
ENDBRANCH   4  17
BRANCH   3  20
ATOM     20  C   UNL d   1      14.562  12.085  -0.324  0.00  0.00     0.000 C 
ATOM     21  C   UNL d   1      15.275  11.780  -0.027  0.00  0.00     0.000 C 
ATOM     22  C   UNL d   1      13.843  11.795  -0.044  0.00  0.00     0.000 C 
ENDBRANCH   3  20
TORSDOF 5
ENDMDL
MODEL 3
REMARK VINA RESULT:      34.9      1.004      2.412
REMARK  5 active torsions:
REMARK  status: ('A' for Active; 'I' for Inactive)
REMARK    1  A    between atoms: N_2  and  S_1 
REMARK    2  A    between atoms: C_3  and  S_1 
REMARK    3  A    between atoms: C_15  and  C_11 
REMARK    4  A    between atoms: O_17  and  C_12 
REMARK    5  A    between atoms: C_21  and  O_17 
ROOT
ATOM      1  C   UNL d   1      13.657  13.368  -3.353  0.00  0.00     0.128 A 
ATOM      2  C   UNL d   1      13.872  14.160  -3.420  0.00  0.00     0.015 A 
ATOM      3  C   UNL d   1      13.711  14.574  -4.115  0.00  0.00     0.001 A 
ATOM      4  C   UNL d   1      13.282  12.990  -3.980  0.00  0.00     0.112 A 
ATOM      5  C   UNL d   1      13.336  14.196  -4.744  0.00  0.00     0.002 A 
ATOM      6  C   UNL d   1      13.122  13.404  -4.676  0.00  0.00     0.025 A 
ENDROOT
BRANCH   1   7
ATOM      7  S   UNL d   1      13.818  12.954  -2.658  0.00  0.00     0.288 S 
ATOM      8  O   UNL d   1      14.075  13.652  -2.302  0.00  0.00    -0.198 OA
ATOM      9  O   UNL d   1      13.562  12.255  -3.015  0.00  0.00    -0.198 OA
BRANCH   7  10
ATOM     10  N   UNL d   1      13.979  12.540  -1.963  0.00  0.00    -0.152 N 
ATOM     11  N   UNL d   1      13.474  12.453  -1.320  0.00  0.00    -0.155 NA
ATOM     12  C   UNL d   1      13.853  12.000  -0.747  0.00  0.00     0.104 A 
ATOM     13  C   UNL d   1      13.542  11.781  -0.014  0.00  0.00     0.022 C 
ATOM     14  C   UNL d   1      14.600  11.804  -1.036  0.00  0.00     0.041 A 
ATOM     15  C   UNL d   1      14.677  12.137  -1.786  0.00  0.00     0.096 A 
ATOM     16  C   UNL d   1      15.338  12.079  -2.275  0.00  0.00     0.022 C 
ENDBRANCH   7  10
ENDBRANCH   1   7
BRANCH   4  17
ATOM     17  O   UNL d   1      13.066  12.195  -3.915  0.00  0.00    -0.304 OA
BRANCH  17  18
ATOM     18  C   UNL d   1      12.775  11.791  -4.571  0.00  0.00     0.123 C 
ATOM     19  C   UNL d   1      13.207  11.779  -5.280  0.00  0.00     0.029 C 
ENDBRANCH  17  18
ENDBRANCH   4  17
BRANCH   3  20
ATOM     20  C   UNL d   1      13.925  15.366  -4.183  0.00  0.00     0.000 C 
ATOM     21  C   UNL d   1      14.284  15.757  -3.544  0.00  0.00     0.000 C 
ATOM     22  C   UNL d   1      13.785  15.774  -4.887  0.00  0.00     0.000 C 
ENDBRANCH   3  20
TORSDOF 5
ENDMDL
MODEL 4
REMARK VINA RESULT:      35.5      1.324      2.706
REMARK  5 active torsions:
REMARK  status: ('A' for Active; 'I' for Inactive)
REMARK    1  A    between atoms: N_2  and  S_1 
REMARK    2  A    between atoms: C_3  and  S_1 
REMARK    3  A    between atoms: C_15  and  C_11 
REMARK    4  A    between atoms: O_17  and  C_12 
REMARK    5  A    between atoms: C_21  and  O_17 
ROOT
ATOM      1  C   UNL d   1      14.265  13.192  -1.932  0.00  0.00     0.128 A 
ATOM      2  C   UNL d   1      13.929  13.266  -2.680  0.00  0.00     0.015 A 
ATOM      3  C   UNL d   1      13.635  12.600  -3.068  0.00  0.00     0.001 A 
ATOM      4  C   UNL d   1      14.306  12.453  -1.572  0.00  0.00     0.112 A 
ATOM      5  C   UNL d   1      13.675  11.860  -2.707  0.00  0.00     0.002 A 
ATOM      6  C   UNL d   1      14.011  11.787  -1.959  0.00  0.00     0.025 A 
ENDROOT
BRANCH   1   7
ATOM      7  S   UNL d   1      14.560  13.858  -1.544  0.00  0.00     0.288 S 
ATOM      8  O   UNL d   1      14.944  14.090  -2.236  0.00  0.00    -0.198 OA
ATOM      9  O   UNL d   1      14.175  13.625  -0.852  0.00  0.00    -0.198 OA
BRANCH   7  10
ATOM     10  N   UNL d   1      14.854  14.523  -1.156  0.00  0.00    -0.152 N 
ATOM     11  N   UNL d   1      14.769  15.305  -1.398  0.00  0.00    -0.155 NA
ATOM     12  C   UNL d   1      15.147  15.791  -0.852  0.00  0.00     0.104 A 
ATOM     13  C   UNL d   1      15.195  16.615  -0.884  0.00  0.00     0.022 C 
ATOM     14  C   UNL d   1      15.469  15.308  -0.266  0.00  0.00     0.041 A 
ATOM     15  C   UNL d   1      15.288  14.526  -0.455  0.00  0.00     0.096 A 
ATOM     16  C   UNL d   1      15.504  13.861  -0.018  0.00  0.00     0.022 C 
ENDBRANCH   7  10
ENDBRANCH   1   7
BRANCH   4  17
ATOM     17  O   UNL d   1      14.642  12.377  -0.820  0.00  0.00    -0.304 OA
BRANCH  17  18
ATOM     18  C   UNL d   1      14.389  11.780  -0.313  0.00  0.00     0.123 C 
ATOM     19  C   UNL d   1      13.613  11.782  -0.020  0.00  0.00     0.029 C 
ENDBRANCH  17  18
ENDBRANCH   4  17
BRANCH   3  20
ATOM     20  C   UNL d   1      13.299  12.672  -3.816  0.00  0.00     0.000 C 
ATOM     21  C   UNL d   1      13.435  13.355  -4.269  0.00  0.00     0.000 C 
ATOM     22  C   UNL d   1      12.827  12.067  -4.118  0.00  0.00     0.000 C 
ENDBRANCH   3  20
TORSDOF 5
ENDMDL
MODEL 5
REMARK VINA RESULT:      35.5      1.571      3.931
REMARK  5 active torsions:
REMARK  status: ('A' for Active; 'I' for Inactive)
REMARK    1  A    between atoms: N_2  and  S_1 
REMARK    2  A    between atoms: C_3  and  S_1 
REMARK    3  A    between atoms: C_15  and  C_11 
REMARK    4  A    between atoms: O_17  and  C_12 
REMARK    5  A    between atoms: C_21  and  O_17 
ROOT
ATOM      1  C   UNL d   1      13.851  13.180  -2.832  0.00  0.00     0.128 A 
ATOM      2  C   UNL d   1      14.206  13.169  -2.089  0.00  0.00     0.015 A 
ATOM      3  C   UNL d   1      14.228  12.470  -1.652  0.00  0.00     0.001 A 
ATOM      4  C   UNL d   1      13.518  12.492  -3.138  0.00  0.00     0.112 A 
ATOM      5  C   UNL d   1      13.895  11.781  -1.958  0.00  0.00     0.002 A 
ATOM      6  C   UNL d   1      13.540  11.793  -2.700  0.00  0.00     0.025 A 
ENDROOT
BRANCH   1   7
ATOM      7  S   UNL d   1      13.829  13.879  -3.269  0.00  0.00     0.288 S 
ATOM      8  O   UNL d   1      13.054  14.010  -3.020  0.00  0.00    -0.198 OA
ATOM      9  O   UNL d   1      14.605  13.748  -3.518  0.00  0.00    -0.198 OA
BRANCH   7  10
ATOM     10  N   UNL d   1      13.807  14.578  -3.706  0.00  0.00    -0.152 N 
ATOM     11  N   UNL d   1      13.452  14.682  -4.441  0.00  0.00    -0.155 NA
ATOM     12  C   UNL d   1      13.560  15.463  -4.677  0.00  0.00     0.104 A 
ATOM     13  C   UNL d   1      13.291  15.802  -5.380  0.00  0.00     0.022 C 
ATOM     14  C   UNL d   1      13.986  15.847  -4.084  0.00  0.00     0.041 A 
ATOM     15  C   UNL d   1      14.139  15.301  -3.486  0.00  0.00     0.096 A 
ATOM     16  C   UNL d   1      14.550  15.451  -2.788  0.00  0.00     0.022 C 
ENDBRANCH   7  10
ENDBRANCH   1   7
BRANCH   4  17
ATOM     17  O   UNL d   1      13.161  12.501  -3.883  0.00  0.00    -0.304 OA
BRANCH  17  18
ATOM     18  C   UNL d   1      12.993  11.793  -4.269  0.00  0.00     0.123 C 
ATOM     19  C   UNL d   1      12.877  11.782  -5.090  0.00  0.00     0.029 C 
ENDBRANCH  17  18
ENDBRANCH   4  17
BRANCH   3  20
ATOM     20  C   UNL d   1      14.583  12.458  -0.909  0.00  0.00     0.000 C 
ATOM     21  C   UNL d   1      15.118  13.056  -0.694  0.00  0.00     0.000 C 
ATOM     22  C   UNL d   1      14.408  11.852  -0.377  0.00  0.00     0.000 C 
ENDBRANCH   3  20
TORSDOF 5
ENDMDL
