MODEL 1
REMARK VINA RESULT:      48.7      0.000      0.000
REMARK  10 active torsions:
REMARK  status: ('A' for Active; 'I' for Inactive)
REMARK    1  A    between atoms: C_10  and  N_1 
REMARK    2  A    between atoms: S_7  and  C_2 
REMARK    3  A    between atoms: C_9  and  C_3 
REMARK       I    between atoms: C_6  and  N_8 
REMARK    4  A    between atoms: C_11  and  C_6 
REMARK    5  A    between atoms: C_15  and  S_7 
REMARK    6  A    between atoms: N_8  and  C_9 
REMARK    7  A    between atoms: C_12  and  C_15 
REMARK    8  A    between atoms: O_21  and  C_12 
REMARK    9  A    between atoms: O_22  and  C_18 
REMARK   10  A    between atoms: C_25  and  O_21 
ROOT
ATOM      1  N   UNL d   1      45.060 -16.085  37.649  0.00  0.00    -0.268 N 
ATOM      2  C   UNL d   1      44.346 -16.349  37.328  0.00  0.00     0.201 A 
ATOM      3  C   UNL d   1      45.225 -16.570  38.306  0.00  0.00     0.190 A 
ATOM      4  N   UNL d   1      44.075 -16.988  37.782  0.00  0.00    -0.121 NA
ATOM      5  N   UNL d   1      44.611 -17.125  38.381  0.00  0.00    -0.126 NA
ENDROOT
BRANCH   3   6
ATOM      6  C   UNL d   1      45.885 -16.510  38.799  0.00  0.00     0.141 C 
BRANCH   6   7
ATOM      7  N   UNL d   1      45.839 -17.197  39.262  0.00  0.00    -0.203 NA
ATOM      8  C   UNL d   1      46.220 -17.223  39.995  0.00  0.00     0.279 C 
ATOM      9  O   UNL d   1      46.643 -16.574  40.267  0.00  0.00    -0.265 OA
BRANCH   8  10
ATOM     10  C   UNL d   1      46.170 -17.909  40.451  0.00  0.00     0.058 A 
ATOM     11  C   UNL d   1      46.640 -18.557  40.280  0.00  0.00     0.007 A 
ATOM     12  C   UNL d   1      46.591 -19.244  40.735  0.00  0.00     0.024 A 
ATOM     13  C   UNL d   1      46.060 -19.271  41.368  0.00  0.00     0.094 A 
ATOM     14  C   UNL d   1      45.590 -18.622  41.539  0.00  0.00     0.024 A 
ATOM     15  C   UNL d   1      45.639 -17.936  41.084  0.00  0.00     0.007 A 
BRANCH  13  16
ATOM     16  O   UNL d   1      46.011 -19.957  41.823  0.00  0.00    -0.328 OA
ATOM     17  C   UNL d   1      46.260 -19.947  42.603  0.00  0.00     0.181 C 
ENDBRANCH  13  16
ENDBRANCH   8  10
ENDBRANCH   6   7
ENDBRANCH   3   6
BRANCH   1  18
ATOM     18  C   UNL d   1      45.514 -15.469  37.373  0.00  0.00     0.067 A 
ATOM     19  C   UNL d   1      45.315 -14.695  37.569  0.00  0.00     0.018 A 
ATOM     20  C   UNL d   1      45.777 -14.069  37.289  0.00  0.00     0.002 A 
ATOM     21  C   UNL d   1      46.434 -14.219  36.814  0.00  0.00     0.000 A 
ATOM     22  C   UNL d   1      46.628 -14.994  36.622  0.00  0.00     0.002 A 
ATOM     23  C   UNL d   1      46.172 -15.613  36.899  0.00  0.00     0.018 A 
ENDBRANCH   1  18
BRANCH   2  24
ATOM     24  S   UNL d   1      43.963 -16.032  36.666  0.00  0.00    -0.042 SA
BRANCH  24  25
ATOM     25  C   UNL d   1      43.291 -16.397  36.357  0.00  0.00     0.107 C 
BRANCH  25  26
ATOM     26  C   UNL d   1      42.580 -15.988  36.340  0.00  0.00     0.307 C 
ATOM     27  O   UNL d   1      42.574 -15.171  36.333  0.00  0.00    -0.258 OA
BRANCH  26  28
ATOM     28  O   UNL d   1      41.869 -16.407  36.330  0.00  0.00    -0.271 OA
BRANCH  28  29
ATOM     29  C   UNL d   1      41.186 -16.055  36.618  0.00  0.00     0.126 C 
ATOM     30  C   UNL d   1      40.622 -16.515  37.004  0.00  0.00     0.029 C 
ENDBRANCH  28  29
ENDBRANCH  26  28
ENDBRANCH  25  26
ENDBRANCH  24  25
ENDBRANCH   2  24
TORSDOF 10
ENDMDL
