MODEL 1
REMARK VINA RESULT:      -3.3      0.000      0.000
REMARK  6 active torsions:
REMARK  status: ('A' for Active; 'I' for Inactive)
REMARK    1  A    between atoms: N_3  and  C_1 
REMARK    2  A    between atoms: C_16  and  N_2 
REMARK       I    between atoms: C_7  and  N_3 
REMARK    3  A    between atoms: C_14  and  C_7 
REMARK    4  A    between atoms: C_10  and  S_11 
REMARK    5  A    between atoms: S_11  and  C_14 
REMARK    6  A    between atoms: O_18  and  C_15 
ROOT
ATOM      1  C   UNL d   1      58.160  -0.456  30.481  0.00  0.00     0.182 A 
ATOM      2  N   UNL d   1      58.709  -0.262  29.893  0.00  0.00    -0.285 N 
ATOM      3  S   UNL d   1      57.977  -1.262  30.403  0.00  0.00    -0.048 SA
ATOM      4  C   UNL d   1      58.417  -1.562  29.764  0.00  0.00     0.050 A 
ATOM      5  C   UNL d   1      58.868  -0.946  29.450  0.00  0.00     0.072 A 
ATOM      6  C   UNL d   1      58.456  -2.323  29.437  0.00  0.00     0.032 A 
ATOM      7  C   UNL d   1      59.359  -1.089  28.808  0.00  0.00     0.020 A 
ATOM      8  C   UNL d   1      58.953  -2.449  28.794  0.00  0.00     0.095 A 
ATOM      9  C   UNL d   1      59.404  -1.833  28.479  0.00  0.00     0.026 A 
ENDROOT
BRANCH   1  10
ATOM     10  N   UNL d   1      57.848   0.061  31.047  0.00  0.00    -0.183 NA
ATOM     11  C   UNL d   1      57.194  -0.340  31.363  0.00  0.00     0.288 C 
ATOM     12  O   UNL d   1      56.998  -1.097  31.086  0.00  0.00    -0.265 OA
BRANCH  11  13
ATOM     13  C   UNL d   1      56.738   0.006  31.951  0.00  0.00     0.101 C 
BRANCH  13  14
ATOM     14  S   UNL d   1      56.293  -0.463  32.470  0.00  0.00    -0.040 SA
BRANCH  14  15
ATOM     15  C   UNL d   1      55.809  -0.106  33.046  0.00  0.00     0.226 C 
ATOM     16  O   UNL d   1      55.446   0.615  32.875  0.00  0.00    -0.279 OA
ATOM     17  C   UNL d   1      55.698  -0.470  33.769  0.00  0.00     0.053 C 
ENDBRANCH  14  15
ENDBRANCH  13  14
ENDBRANCH  11  13
ENDBRANCH   1  10
BRANCH   2  18
ATOM     18  C   UNL d   1      59.036   0.480  29.775  0.00  0.00     0.082 C 
ATOM     19  C   UNL d   1      59.760   0.681  30.115  0.00  0.00     0.021 C 
ENDBRANCH   2  18
BRANCH   8  20
ATOM     20  O   UNL d   1      59.001  -3.206  28.456  0.00  0.00    -0.328 OA
ATOM     21  C   UNL d   1      59.489  -3.772  28.789  0.00  0.00     0.181 C 
ENDBRANCH   8  20
TORSDOF 6
ENDMDL
MODEL 2
REMARK VINA RESULT:      -2.7      0.978      4.389
REMARK  6 active torsions:
REMARK  status: ('A' for Active; 'I' for Inactive)
REMARK    1  A    between atoms: N_3  and  C_1 
REMARK    2  A    between atoms: C_16  and  N_2 
REMARK       I    between atoms: C_7  and  N_3 
REMARK    3  A    between atoms: C_14  and  C_7 
REMARK    4  A    between atoms: C_10  and  S_11 
REMARK    5  A    between atoms: S_11  and  C_14 
REMARK    6  A    between atoms: O_18  and  C_15 
ROOT
ATOM      1  C   UNL d   1      57.989  -0.565  30.541  0.00  0.00     0.182 A 
ATOM      2  N   UNL d   1      58.086   0.090  31.036  0.00  0.00    -0.285 N 
ATOM      3  S   UNL d   1      57.364  -1.022  30.842  0.00  0.00    -0.048 SA
ATOM      4  C   UNL d   1      57.078  -0.643  31.524  0.00  0.00     0.050 A 
ATOM      5  C   UNL d   1      57.523   0.042  31.644  0.00  0.00     0.072 A 
ATOM      6  C   UNL d   1      56.466  -0.846  32.046  0.00  0.00     0.032 A 
ATOM      7  C   UNL d   1      57.356   0.528  32.285  0.00  0.00     0.020 A 
ATOM      8  C   UNL d   1      56.312  -0.349  32.684  0.00  0.00     0.095 A 
ATOM      9  C   UNL d   1      56.757   0.337  32.803  0.00  0.00     0.026 A 
ENDROOT
BRANCH   1  10
ATOM     10  N   UNL d   1      58.435  -0.737  29.865  0.00  0.00    -0.183 NA
ATOM     11  C   UNL d   1      58.458  -1.565  29.830  0.00  0.00     0.288 C 
ATOM     12  O   UNL d   1      58.074  -2.016  30.412  0.00  0.00    -0.265 OA
BRANCH  11  13
ATOM     13  C   UNL d   1      58.858  -1.945  29.224  0.00  0.00     0.101 C 
BRANCH  13  14
ATOM     14  S   UNL d   1      59.334  -2.607  29.382  0.00  0.00    -0.040 SA
BRANCH  14  15
ATOM     15  C   UNL d   1      59.753  -2.978  28.765  0.00  0.00     0.226 C 
ATOM     16  O   UNL d   1      59.468  -3.688  28.455  0.00  0.00    -0.279 OA
ATOM     17  C   UNL d   1      60.437  -2.638  28.475  0.00  0.00     0.053 C 
ENDBRANCH  14  15
ENDBRANCH  13  14
ENDBRANCH  11  13
ENDBRANCH   1  10
BRANCH   2  18
ATOM     18  C   UNL d   1      58.644   0.682  30.937  0.00  0.00     0.082 C 
ATOM     19  C   UNL d   1      59.344   0.679  31.373  0.00  0.00     0.021 C 
ENDBRANCH   2  18
BRANCH   8  20
ATOM     20  O   UNL d   1      55.703  -0.540  33.214  0.00  0.00    -0.328 OA
ATOM     21  C   UNL d   1      55.225   0.051  33.518  0.00  0.00     0.181 C 
ENDBRANCH   8  20
TORSDOF 6
ENDMDL
MODEL 3
REMARK VINA RESULT:      -2.1      8.812      9.181
REMARK  6 active torsions:
REMARK  status: ('A' for Active; 'I' for Inactive)
REMARK    1  A    between atoms: N_3  and  C_1 
REMARK    2  A    between atoms: C_16  and  N_2 
REMARK       I    between atoms: C_7  and  N_3 
REMARK    3  A    between atoms: C_14  and  C_7 
REMARK    4  A    between atoms: C_10  and  S_11 
REMARK    5  A    between atoms: S_11  and  C_14 
REMARK    6  A    between atoms: O_18  and  C_15 
ROOT
ATOM      1  C   UNL d   1      59.508  -9.795  32.523  0.00  0.00     0.182 A 
ATOM      2  N   UNL d   1      59.871  -9.805  31.779  0.00  0.00    -0.285 N 
ATOM      3  S   UNL d   1      58.686  -9.791  32.405  0.00  0.00    -0.048 SA
ATOM      4  C   UNL d   1      58.546  -9.799  31.585  0.00  0.00     0.050 A 
ATOM      5  C   UNL d   1      59.277  -9.807  31.200  0.00  0.00     0.072 A 
ATOM      6  C   UNL d   1      57.840  -9.798  31.151  0.00  0.00     0.032 A 
ATOM      7  C   UNL d   1      59.302  -9.816  30.379  0.00  0.00     0.020 A 
ATOM      8  C   UNL d   1      57.883  -9.807  30.330  0.00  0.00     0.095 A 
ATOM      9  C   UNL d   1      58.613  -9.816  29.944  0.00  0.00     0.026 A 
ENDROOT
BRANCH   1  10
ATOM     10  N   UNL d   1      59.894  -9.790  33.254  0.00  0.00    -0.183 NA
ATOM     11  C   UNL d   1      59.293  -9.668  33.812  0.00  0.00     0.288 C 
ATOM     12  O   UNL d   1      58.506  -9.583  33.561  0.00  0.00    -0.265 OA
BRANCH  11  13
ATOM     13  C   UNL d   1      59.468  -9.630  34.612  0.00  0.00     0.101 C 
BRANCH  13  14
ATOM     14  S   UNL d   1      59.413  -8.910  35.022  0.00  0.00    -0.040 SA
BRANCH  14  15
ATOM     15  C   UNL d   1      59.556  -8.884  35.842  0.00  0.00     0.226 C 
ATOM     16  O   UNL d   1      59.656  -9.591  36.256  0.00  0.00    -0.279 OA
ATOM     17  C   UNL d   1      59.597  -8.163  36.225  0.00  0.00     0.053 C 
ENDBRANCH  14  15
ENDBRANCH  13  14
ENDBRANCH  11  13
ENDBRANCH   1  10
BRANCH   2  18
ATOM     18  C   UNL d   1      60.679  -9.812  31.645  0.00  0.00     0.082 C 
ATOM     19  C   UNL d   1      61.110  -9.109  31.629  0.00  0.00     0.021 C 
ENDBRANCH   2  18
BRANCH   8  20
ATOM     20  O   UNL d   1      57.183  -9.807  29.883  0.00  0.00    -0.328 OA
ATOM     21  C   UNL d   1      57.074  -9.250  29.293  0.00  0.00     0.181 C 
ENDBRANCH   8  20
TORSDOF 6
ENDMDL
MODEL 4
REMARK VINA RESULT:      -1.6      8.815      9.548
REMARK  6 active torsions:
REMARK  status: ('A' for Active; 'I' for Inactive)
REMARK    1  A    between atoms: N_3  and  C_1 
REMARK    2  A    between atoms: C_16  and  N_2 
REMARK       I    between atoms: C_7  and  N_3 
REMARK    3  A    between atoms: C_14  and  C_7 
REMARK    4  A    between atoms: C_10  and  S_11 
REMARK    5  A    between atoms: S_11  and  C_14 
REMARK    6  A    between atoms: O_18  and  C_15 
ROOT
ATOM      1  C   UNL d   1      59.298  -9.609  32.500  0.00  0.00     0.182 A 
ATOM      2  N   UNL d   1      60.100  -9.557  32.696  0.00  0.00    -0.285 N 
ATOM      3  S   UNL d   1      58.857  -9.415  33.176  0.00  0.00    -0.048 SA
ATOM      4  C   UNL d   1      59.393  -9.244  33.789  0.00  0.00     0.050 A 
ATOM      5  C   UNL d   1      60.159  -9.331  33.492  0.00  0.00     0.072 A 
ATOM      6  C   UNL d   1      59.268  -9.019  34.577  0.00  0.00     0.032 A 
ATOM      7  C   UNL d   1      60.802  -9.194  33.984  0.00  0.00     0.020 A 
ATOM      8  C   UNL d   1      59.924  -8.886  35.056  0.00  0.00     0.095 A 
ATOM      9  C   UNL d   1      60.690  -8.973  34.760  0.00  0.00     0.026 A 
ENDROOT
BRANCH   1  10
ATOM     10  N   UNL d   1      58.989  -9.818  31.762  0.00  0.00    -0.183 NA
ATOM     11  C   UNL d   1      58.174  -9.673  31.823  0.00  0.00     0.288 C 
ATOM     12  O   UNL d   1      57.858  -9.379  32.532  0.00  0.00    -0.265 OA
BRANCH  11  13
ATOM     13  C   UNL d   1      57.677  -9.817  31.187  0.00  0.00     0.101 C 
BRANCH  13  14
ATOM     14  S   UNL d   1      57.891  -9.579  30.422  0.00  0.00    -0.040 SA
BRANCH  14  15
ATOM     15  C   UNL d   1      57.367  -9.698  29.785  0.00  0.00     0.226 C 
ATOM     16  O   UNL d   1      56.555  -9.708  29.928  0.00  0.00    -0.279 OA
ATOM     17  C   UNL d   1      57.662  -9.803  29.030  0.00  0.00     0.053 C 
ENDBRANCH  14  15
ENDBRANCH  13  14
ENDBRANCH  11  13
ENDBRANCH   1  10
BRANCH   2  18
ATOM     18  C   UNL d   1      60.724  -9.704  32.186  0.00  0.00     0.082 C 
ATOM     19  C   UNL d   1      61.080  -9.090  31.766  0.00  0.00     0.021 C 
ENDBRANCH   2  18
BRANCH   8  20
ATOM     20  O   UNL d   1      59.813  -8.660  35.848  0.00  0.00    -0.328 OA
ATOM     21  C   UNL d   1      59.359  -8.003  36.027  0.00  0.00     0.181 C 
ENDBRANCH   8  20
TORSDOF 6
ENDMDL
MODEL 5
REMARK VINA RESULT:      -1.3      1.406      4.907
REMARK  6 active torsions:
REMARK  status: ('A' for Active; 'I' for Inactive)
REMARK    1  A    between atoms: N_3  and  C_1 
REMARK    2  A    between atoms: C_16  and  N_2 
REMARK       I    between atoms: C_7  and  N_3 
REMARK    3  A    between atoms: C_14  and  C_7 
REMARK    4  A    between atoms: C_10  and  S_11 
REMARK    5  A    between atoms: S_11  and  C_14 
REMARK    6  A    between atoms: O_18  and  C_15 
ROOT
ATOM      1  C   UNL d   1      57.482   0.621  31.976  0.00  0.00     0.182 A 
ATOM      2  N   UNL d   1      57.687   0.653  32.777  0.00  0.00    -0.285 N 
ATOM      3  S   UNL d   1      56.653   0.600  31.927  0.00  0.00    -0.048 SA
ATOM      4  C   UNL d   1      56.351   0.619  32.701  0.00  0.00     0.050 A 
ATOM      5  C   UNL d   1      56.988   0.652  33.225  0.00  0.00     0.072 A 
ATOM      6  C   UNL d   1      55.571   0.610  32.984  0.00  0.00     0.032 A 
ATOM      7  C   UNL d   1      56.848   0.676  34.034  0.00  0.00     0.020 A 
ATOM      8  C   UNL d   1      55.448   0.635  33.797  0.00  0.00     0.095 A 
ATOM      9  C   UNL d   1      56.086   0.668  34.321  0.00  0.00     0.026 A 
ENDROOT
BRANCH   1  10
ATOM     10  N   UNL d   1      58.007   0.612  31.338  0.00  0.00    -0.183 NA
ATOM     11  C   UNL d   1      57.743  -0.008  30.854  0.00  0.00     0.288 C 
ATOM     12  O   UNL d   1      57.078  -0.452  31.075  0.00  0.00    -0.265 OA
BRANCH  11  13
ATOM     13  C   UNL d   1      58.135  -0.187  30.156  0.00  0.00     0.101 C 
BRANCH  13  14
ATOM     14  S   UNL d   1      58.687  -0.806  30.130  0.00  0.00    -0.040 SA
BRANCH  14  15
ATOM     15  C   UNL d   1      58.983  -1.072  29.398  0.00  0.00     0.226 C 
ATOM     16  O   UNL d   1      58.543  -0.936  28.713  0.00  0.00    -0.279 OA
ATOM     17  C   UNL d   1      59.701  -1.462  29.366  0.00  0.00     0.053 C 
ENDBRANCH  14  15
ENDBRANCH  13  14
ENDBRANCH  11  13
ENDBRANCH   1  10
BRANCH   2  18
ATOM     18  C   UNL d   1      58.451   0.682  33.071  0.00  0.00     0.082 C 
ATOM     19  C   UNL d   1      58.594   0.624  33.881  0.00  0.00     0.021 C 
ENDBRANCH   2  18
BRANCH   8  20
ATOM     20  O   UNL d   1      54.673   0.627  34.094  0.00  0.00    -0.328 OA
ATOM     21  C   UNL d   1      54.544   0.654  34.902  0.00  0.00     0.181 C 
ENDBRANCH   8  20
TORSDOF 6
ENDMDL
MODEL 6
REMARK VINA RESULT:      -1.1      8.802      9.865
REMARK  6 active torsions:
REMARK  status: ('A' for Active; 'I' for Inactive)
REMARK    1  A    between atoms: N_3  and  C_1 
REMARK    2  A    between atoms: C_16  and  N_2 
REMARK       I    between atoms: C_7  and  N_3 
REMARK    3  A    between atoms: C_14  and  C_7 
REMARK    4  A    between atoms: C_10  and  S_11 
REMARK    5  A    between atoms: S_11  and  C_14 
REMARK    6  A    between atoms: O_18  and  C_15 
ROOT
ATOM      1  C   UNL d   1      59.901  -9.472  33.161  0.00  0.00     0.182 A 
ATOM      2  N   UNL d   1      59.280  -9.408  33.704  0.00  0.00    -0.285 N 
ATOM      3  S   UNL d   1      60.575  -9.127  33.503  0.00  0.00    -0.048 SA
ATOM      4  C   UNL d   1      60.365  -8.851  34.258  0.00  0.00     0.050 A 
ATOM      5  C   UNL d   1      59.567  -9.024  34.383  0.00  0.00     0.072 A 
ATOM      6  C   UNL d   1      60.808  -8.464  34.843  0.00  0.00     0.032 A 
ATOM      7  C   UNL d   1      59.210  -8.811  35.091  0.00  0.00     0.020 A 
ATOM      8  C   UNL d   1      60.436  -8.258  35.546  0.00  0.00     0.095 A 
ATOM      9  C   UNL d   1      59.638  -8.431  35.670  0.00  0.00     0.026 A 
ENDROOT
BRANCH   1  10
ATOM     10  N   UNL d   1      59.859  -9.818  32.411  0.00  0.00    -0.183 NA
ATOM     11  C   UNL d   1      60.550  -9.570  32.024  0.00  0.00     0.288 C 
ATOM     12  O   UNL d   1      61.091  -9.078  32.416  0.00  0.00    -0.265 OA
BRANCH  11  13
ATOM     13  C   UNL d   1      60.703  -9.807  31.254  0.00  0.00     0.101 C 
BRANCH  13  14
ATOM     14  S   UNL d   1      60.748  -9.249  30.642  0.00  0.00    -0.040 SA
BRANCH  14  15
ATOM     15  C   UNL d   1      60.544  -9.464  29.863  0.00  0.00     0.226 C 
ATOM     16  O   UNL d   1      59.746  -9.505  29.653  0.00  0.00    -0.279 OA
ATOM     17  C   UNL d   1      61.130  -9.632  29.320  0.00  0.00     0.053 C 
ENDBRANCH  14  15
ENDBRANCH  13  14
ENDBRANCH  11  13
ENDBRANCH   1  10
BRANCH   2  18
ATOM     18  C   UNL d   1      58.517  -9.679  33.586  0.00  0.00     0.082 C 
ATOM     19  C   UNL d   1      57.916  -9.161  33.359  0.00  0.00     0.021 C 
ENDBRANCH   2  18
BRANCH   8  20
ATOM     20  O   UNL d   1      60.869  -7.870  36.140  0.00  0.00    -0.328 OA
ATOM     21  C   UNL d   1      60.999  -7.063  36.090  0.00  0.00     0.181 C 
ENDBRANCH   8  20
TORSDOF 6
ENDMDL
MODEL 7
REMARK VINA RESULT:      -0.8      8.243      9.542
REMARK  6 active torsions:
REMARK  status: ('A' for Active; 'I' for Inactive)
REMARK    1  A    between atoms: N_3  and  C_1 
REMARK    2  A    between atoms: C_16  and  N_2 
REMARK       I    between atoms: C_7  and  N_3 
REMARK    3  A    between atoms: C_14  and  C_7 
REMARK    4  A    between atoms: C_10  and  S_11 
REMARK    5  A    between atoms: S_11  and  C_14 
REMARK    6  A    between atoms: O_18  and  C_15 
ROOT
ATOM      1  C   UNL d   1      59.792  -8.819  35.059  0.00  0.00     0.182 A 
ATOM      2  N   UNL d   1      60.499  -8.733  35.482  0.00  0.00    -0.285 N 
ATOM      3  S   UNL d   1      59.414  -8.080  35.044  0.00  0.00    -0.048 SA
ATOM      4  C   UNL d   1      59.891  -7.541  35.459  0.00  0.00     0.050 A 
ATOM      5  C   UNL d   1      60.560  -7.943  35.729  0.00  0.00     0.072 A 
ATOM      6  C   UNL d   1      59.791  -6.733  35.619  0.00  0.00     0.032 A 
ATOM      7  C   UNL d   1      61.130  -7.539  36.160  0.00  0.00     0.020 A 
ATOM      8  C   UNL d   1      60.371  -6.344  36.053  0.00  0.00     0.095 A 
ATOM      9  C   UNL d   1      61.040  -6.746  36.322  0.00  0.00     0.026 A 
ENDROOT
BRANCH   1  10
ATOM     10  N   UNL d   1      59.513  -9.516  34.713  0.00  0.00    -0.183 NA
ATOM     11  C   UNL d   1      59.016  -9.264  34.098  0.00  0.00     0.288 C 
ATOM     12  O   UNL d   1      58.907  -8.453  33.960  0.00  0.00    -0.265 OA
BRANCH  11  13
ATOM     13  C   UNL d   1      58.632  -9.811  33.622  0.00  0.00     0.101 C 
BRANCH  13  14
ATOM     14  S   UNL d   1      58.582  -9.695  32.802  0.00  0.00    -0.040 SA
BRANCH  14  15
ATOM     15  C   UNL d   1      57.844  -9.735  32.418  0.00  0.00     0.226 C 
ATOM     16  O   UNL d   1      57.159  -9.814  32.871  0.00  0.00    -0.279 OA
ATOM     17  C   UNL d   1      57.807  -9.696  31.603  0.00  0.00     0.053 C 
ENDBRANCH  14  15
ENDBRANCH  13  14
ENDBRANCH  11  13
ENDBRANCH   1  10
BRANCH   2  18
ATOM     18  C   UNL d   1      61.040  -9.330  35.627  0.00  0.00     0.082 C 
ATOM     19  C   UNL d   1      61.010  -9.766  36.327  0.00  0.00     0.021 C 
ENDBRANCH   2  18
BRANCH   8  20
ATOM     20  O   UNL d   1      60.284  -5.535  36.220  0.00  0.00    -0.328 OA
ATOM     21  C   UNL d   1      60.699  -4.980  35.787  0.00  0.00     0.181 C 
ENDBRANCH   8  20
TORSDOF 6
ENDMDL
MODEL 8
REMARK VINA RESULT:      -0.7      1.974      2.298
REMARK  6 active torsions:
REMARK  status: ('A' for Active; 'I' for Inactive)
REMARK    1  A    between atoms: N_3  and  C_1 
REMARK    2  A    between atoms: C_16  and  N_2 
REMARK       I    between atoms: C_7  and  N_3 
REMARK    3  A    between atoms: C_14  and  C_7 
REMARK    4  A    between atoms: C_10  and  S_11 
REMARK    5  A    between atoms: S_11  and  C_14 
REMARK    6  A    between atoms: O_18  and  C_15 
ROOT
ATOM      1  C   UNL d   1      58.320   0.566  31.616  0.00  0.00     0.182 A 
ATOM      2  N   UNL d   1      59.135   0.605  31.754  0.00  0.00    -0.285 N 
ATOM      3  S   UNL d   1      58.204   0.491  30.797  0.00  0.00    -0.048 SA
ATOM      4  C   UNL d   1      58.951   0.485  30.433  0.00  0.00     0.050 A 
ATOM      5  C   UNL d   1      59.525   0.555  31.023  0.00  0.00     0.072 A 
ATOM      6  C   UNL d   1      59.171   0.423  29.636  0.00  0.00     0.032 A 
ATOM      7  C   UNL d   1      60.320   0.563  30.817  0.00  0.00     0.020 A 
ATOM      8  C   UNL d   1      59.971   0.433  29.447  0.00  0.00     0.095 A 
ATOM      9  C   UNL d   1      60.545   0.503  30.036  0.00  0.00     0.026 A 
ENDROOT
BRANCH   1  10
ATOM     10  N   UNL d   1      57.726   0.596  32.191  0.00  0.00    -0.183 NA
ATOM     11  C   UNL d   1      57.215  -0.029  32.002  0.00  0.00     0.288 C 
ATOM     12  O   UNL d   1      57.377  -0.513  31.347  0.00  0.00    -0.265 OA
BRANCH  11  13
ATOM     13  C   UNL d   1      56.549  -0.175  32.458  0.00  0.00     0.101 C 
BRANCH  13  14
ATOM     14  S   UNL d   1      56.269  -0.950  32.559  0.00  0.00    -0.040 SA
BRANCH  14  15
ATOM     15  C   UNL d   1      55.563  -1.087  32.979  0.00  0.00     0.226 C 
ATOM     16  O   UNL d   1      55.092  -0.445  33.196  0.00  0.00    -0.279 OA
ATOM     17  C   UNL d   1      55.346  -1.851  33.172  0.00  0.00     0.053 C 
ENDBRANCH  14  15
ENDBRANCH  13  14
ENDBRANCH  11  13
ENDBRANCH   1  10
BRANCH   2  18
ATOM     18  C   UNL d   1      59.489   0.680  32.489  0.00  0.00     0.082 C 
ATOM     19  C   UNL d   1      60.310   0.662  32.565  0.00  0.00     0.021 C 
ENDBRANCH   2  18
BRANCH   8  20
ATOM     20  O   UNL d   1      60.205   0.372  28.652  0.00  0.00    -0.328 OA
ATOM     21  C   UNL d   1      60.998   0.405  28.455  0.00  0.00     0.181 C 
ENDBRANCH   8  20
TORSDOF 6
ENDMDL
