MODEL 1
REMARK VINA RESULT:      57.1      0.000      0.000
REMARK  7 active torsions:
REMARK  status: ('A' for Active; 'I' for Inactive)
REMARK    1  A    between atoms: C_4  and  C_1 
REMARK    2  A    between atoms: N_5  and  C_3 
REMARK    3  A    between atoms: C_9  and  C_4 
REMARK       I    between atoms: C_7  and  N_5 
REMARK    4  A    between atoms: C_10  and  C_7 
REMARK       I    between atoms: N_19  and  C_9 
REMARK    5  A    between atoms: C_21  and  N_19 
REMARK    6  A    between atoms: C_24  and  C_21 
REMARK    7  A    between atoms: C_23  and  C_24 
ROOT
ATOM      1  C   UNL d   1      14.098  12.640  -1.972  0.00  0.00     0.144 C 
ATOM      2  C   UNL d   1      13.460  12.407  -1.507  0.00  0.00     0.107 C 
ATOM      3  N   UNL d   1      12.821  12.179  -1.050  0.00  0.00    -0.191 NA
ENDROOT
BRANCH   1   4
ATOM      4  C   UNL d   1      13.975  13.058  -2.680  0.00  0.00     0.097 A 
ATOM      5  N   UNL d   1      14.177  13.834  -2.881  0.00  0.00    -0.226 NA
ATOM      6  C   UNL d   1      13.928  13.972  -3.655  0.00  0.00     0.166 A 
ATOM      7  C   UNL d   1      13.571  13.285  -3.936  0.00  0.00     0.037 A 
ATOM      8  C   UNL d   1      13.597  12.713  -3.338  0.00  0.00     0.021 A 
ATOM      9  C   UNL d   1      13.224  13.098  -4.660  0.00  0.00     0.003 A 
ATOM     10  C   UNL d   1      13.279  11.968  -3.463  0.00  0.00     0.002 A 
ATOM     11  C   UNL d   1      12.932  11.781  -4.186  0.00  0.00     0.000 A 
ATOM     12  C   UNL d   1      12.907  12.352  -4.785  0.00  0.00     0.000 A 
BRANCH   6  13
ATOM     13  N   UNL d   1      13.999  14.651  -4.102  0.00  0.00    -0.189 NA
ATOM     14  C   UNL d   1      14.298  15.395  -3.877  0.00  0.00     0.286 C 
ATOM     15  O   UNL d   1      14.565  15.493  -3.105  0.00  0.00    -0.265 OA
BRANCH  14  16
ATOM     16  C   UNL d   1      14.330  16.027  -4.405  0.00  0.00     0.087 A 
ATOM     17  S   UNL d   1      15.045  16.417  -4.540  0.00  0.00    -0.082 SA
ATOM     18  C   UNL d   1      14.902  17.018  -5.090  0.00  0.00     0.036 A 
ATOM     19  C   UNL d   1      14.101  16.997  -5.291  0.00  0.00     0.008 A 
ATOM     20  C   UNL d   1      13.749  16.386  -4.868  0.00  0.00     0.012 A 
ENDBRANCH  14  16
ENDBRANCH   6  13
ENDBRANCH   1   4
BRANCH   1  21
ATOM     21  C   UNL d   1      14.870  12.456  -1.734  0.00  0.00     0.290 C 
ATOM     22  O   UNL d   1      15.306  11.894  -2.147  0.00  0.00    -0.264 OA
ATOM     23  N   UNL d   1      15.202  12.834  -1.087  0.00  0.00    -0.206 NA
BRANCH  23  24
ATOM     24  C   UNL d   1      14.766  13.396  -0.675  0.00  0.00     0.102 C 
BRANCH  24  25
ATOM     25  C   UNL d   1      14.905  13.871  -0.015  0.00  0.00     0.021 C 
BRANCH  25  26
ATOM     26  C   UNL d   1      15.280  14.599  -0.100  0.00  0.00     0.002 A 
ATOM     27  C   UNL d   1      16.102  14.652  -0.035  0.00  0.00     0.000 A 
ATOM     28  C   UNL d   1      16.472  15.385  -0.121  0.00  0.00     0.000 A 
ATOM     29  C   UNL d   1      16.031  16.068  -0.272  0.00  0.00     0.000 A 
ATOM     30  C   UNL d   1      15.199  16.004  -0.337  0.00  0.00     0.000 A 
ATOM     31  C   UNL d   1      14.829  15.280  -0.252  0.00  0.00     0.000 A 
ENDBRANCH  25  26
ENDBRANCH  24  25
ENDBRANCH  23  24
ENDBRANCH   1  21
TORSDOF 7
ENDMDL
