MODEL 1
REMARK VINA RESULT:       2.3      0.000      0.000
REMARK  2 active torsions:
REMARK  status: ('A' for Active; 'I' for Inactive)
REMARK    1  A    between atoms: C_9  and  N_1 
REMARK    2  A    between atoms: C_8  and  N_2 
ROOT
ATOM      1  N   UNL d   1     -41.505-121.809 -51.346  0.00  0.00    -0.208 N 
ATOM      2  N   UNL d   1     -41.495-121.820 -52.174  0.00  0.00    -0.208 N 
ATOM      3  C   UNL d   1     -41.267-121.075 -52.447  0.00  0.00     0.284 A 
ATOM      4  C   UNL d   1     -41.283-121.050 -51.104  0.00  0.00     0.284 A 
ATOM      5  C   UNL d   1     -41.136-120.598 -51.783  0.00  0.00     0.125 A 
ATOM      6  O   UNL d   1     -41.186-120.849 -53.229  0.00  0.00    -0.265 OA
ATOM      7  O   UNL d   1     -41.217-120.787 -50.318  0.00  0.00    -0.265 OA
ENDROOT
BRANCH   1   8
ATOM      8  C   UNL d   1     -41.701-122.436 -50.854  0.00  0.00     0.085 A 
ATOM      9  C   UNL d   1     -42.479-122.514 -50.568  0.00  0.00     0.019 A 
ATOM     10  C   UNL d   1     -42.679-123.142 -50.074  0.00  0.00     0.002 A 
ATOM     11  C   UNL d   1     -42.097-123.703 -49.859  0.00  0.00     0.000 A 
ATOM     12  C   UNL d   1     -41.321-123.622 -50.146  0.00  0.00     0.002 A 
ATOM     13  C   UNL d   1     -41.129-122.987 -50.643  0.00  0.00     0.019 A 
ENDBRANCH   1   8
BRANCH   2  14
ATOM     14  C   UNL d   1     -41.681-122.470 -52.644  0.00  0.00     0.085 A 
ATOM     15  C   UNL d   1     -42.424-122.529 -52.999  0.00  0.00     0.019 A 
ATOM     16  C   UNL d   1     -42.609-123.176 -53.467  0.00  0.00     0.002 A 
ATOM     17  C   UNL d   1     -42.045-123.779 -53.584  0.00  0.00     0.000 A 
ATOM     18  C   UNL d   1     -41.303-123.720 -53.229  0.00  0.00     0.002 A 
ATOM     19  C   UNL d   1     -41.125-123.067 -52.761  0.00  0.00     0.019 A 
ENDBRANCH   2  14
TORSDOF 2
ENDMDL
MODEL 2
REMARK VINA RESULT:       2.5      2.193      4.121
REMARK  2 active torsions:
REMARK  status: ('A' for Active; 'I' for Inactive)
REMARK    1  A    between atoms: C_9  and  N_1 
REMARK    2  A    between atoms: C_8  and  N_2 
ROOT
ATOM      1  N   UNL d   1     -43.019-123.078 -49.819  0.00  0.00    -0.208 N 
ATOM      2  N   UNL d   1     -43.023-123.260 -49.011  0.00  0.00    -0.208 N 
ATOM      3  C   UNL d   1     -43.763-123.566 -48.812  0.00  0.00     0.284 A 
ATOM      4  C   UNL d   1     -43.763-123.272 -50.123  0.00  0.00     0.284 A 
ATOM      5  C   UNL d   1     -44.222-123.574 -49.501  0.00  0.00     0.125 A 
ATOM      6  O   UNL d   1     -44.000-123.817 -48.070  0.00  0.00    -0.265 OA
ATOM      7  O   UNL d   1     -44.008-123.182 -50.912  0.00  0.00    -0.265 OA
ENDROOT
BRANCH   1   8
ATOM      8  C   UNL d   1     -42.391-122.760 -50.243  0.00  0.00     0.085 A 
ATOM      9  C   UNL d   1     -42.377-121.948 -50.420  0.00  0.00     0.019 A 
ATOM     10  C   UNL d   1     -41.748-121.627 -50.846  0.00  0.00     0.002 A 
ATOM     11  C   UNL d   1     -41.123-122.120 -51.099  0.00  0.00     0.000 A 
ATOM     12  C   UNL d   1     -41.141-122.931 -50.920  0.00  0.00     0.002 A 
ATOM     13  C   UNL d   1     -41.777-123.247 -50.491  0.00  0.00     0.019 A 
ENDBRANCH   1   8
BRANCH   2  14
ATOM     14  C   UNL d   1     -42.390-123.152 -48.495  0.00  0.00     0.085 A 
ATOM     15  C   UNL d   1     -41.788-123.715 -48.450  0.00  0.00     0.019 A 
ATOM     16  C   UNL d   1     -41.158-123.607 -47.937  0.00  0.00     0.002 A 
ATOM     17  C   UNL d   1     -41.124-122.926 -47.458  0.00  0.00     0.000 A 
ATOM     18  C   UNL d   1     -41.726-122.363 -47.503  0.00  0.00     0.002 A 
ATOM     19  C   UNL d   1     -42.355-122.479 -48.021  0.00  0.00     0.019 A 
ENDBRANCH   2  14
TORSDOF 2
ENDMDL
