MODEL 1
REMARK VINA RESULT:       8.2      0.000      0.000
REMARK  2 active torsions:
REMARK  status: ('A' for Active; 'I' for Inactive)
REMARK    1  A    between atoms: C_6  and  C_1 
REMARK    2  A    between atoms: C_7  and  C_5 
ROOT
ATOM      1  C   UNL d   1      45.801 -14.782  36.968  0.00  0.00     0.169 A 
ATOM      2  C   UNL d   1      44.966 -14.720  37.029  0.00  0.00     0.048 A 
ATOM      3  N   UNL d   1      45.242 -15.838  36.330  0.00  0.00    -0.148 NA
ATOM      4  N   UNL d   1      45.961 -15.464  36.543  0.00  0.00    -0.142 NA
ATOM      5  C   UNL d   1      44.627 -15.360  36.642  0.00  0.00     0.105 A 
ENDROOT
BRANCH   5   6
ATOM      6  C   UNL d   1      43.823 -15.516  36.566  0.00  0.00     0.019 A 
ATOM      7  C   UNL d   1      43.568 -16.285  36.407  0.00  0.00     0.002 A 
ATOM      8  C   UNL d   1      42.765 -16.445  36.330  0.00  0.00     0.011 A 
ATOM      9  C   UNL d   1      42.196 -15.853  36.409  0.00  0.00     0.058 A 
ATOM     10  C   UNL d   1      42.457 -15.089  36.569  0.00  0.00     0.011 A 
ATOM     11 CL   UNL d   1      41.411 -16.013  36.334  0.00  0.00    -0.082 Cl
ATOM     12  C   UNL d   1      43.261 -14.913  36.648  0.00  0.00     0.002 A 
ENDBRANCH   5   6
BRANCH   1  13
ATOM     13  C   UNL d   1      46.355 -14.246  37.286  0.00  0.00     0.231 C 
ATOM     14  O   UNL d   1      46.641 -14.332  38.062  0.00  0.00    -0.643 OA
ATOM     15  O   UNL d   1      46.618 -13.617  36.803  0.00  0.00    -0.643 OA
ENDBRANCH   1  13
TORSDOF 2
ENDMDL
MODEL 2
REMARK VINA RESULT:       9.2      2.723      3.705
REMARK  2 active torsions:
REMARK  status: ('A' for Active; 'I' for Inactive)
REMARK    1  A    between atoms: C_6  and  C_1 
REMARK    2  A    between atoms: C_7  and  C_5 
ROOT
ATOM      1  C   UNL d   1      42.477 -16.018  36.441  0.00  0.00     0.169 A 
ATOM      2  C   UNL d   1      43.046 -15.425  36.615  0.00  0.00     0.048 A 
ATOM      3  N   UNL d   1      43.707 -16.585  36.431  0.00  0.00    -0.148 NA
ATOM      4  N   UNL d   1      42.886 -16.720  36.331  0.00  0.00    -0.142 NA
ATOM      5  C   UNL d   1      43.792 -15.769  36.608  0.00  0.00     0.105 A 
ENDROOT
BRANCH   5   6
ATOM      6  C   UNL d   1      44.507 -15.388  36.751  0.00  0.00     0.019 A 
ATOM      7  C   UNL d   1      44.537 -14.760  37.286  0.00  0.00     0.002 A 
ATOM      8  C   UNL d   1      45.250 -14.376  37.432  0.00  0.00     0.011 A 
ATOM      9  C   UNL d   1      45.947 -14.602  37.053  0.00  0.00     0.058 A 
ATOM     10  C   UNL d   1      45.910 -15.228  36.520  0.00  0.00     0.011 A 
ATOM     11 CL   UNL d   1      46.643 -14.224  37.197  0.00  0.00    -0.082 Cl
ATOM     12  C   UNL d   1      45.200 -15.623  36.364  0.00  0.00     0.002 A 
ENDBRANCH   5   6
BRANCH   1  13
ATOM     13  C   UNL d   1      41.652 -15.904  36.393  0.00  0.00     0.231 C 
ATOM     14  O   UNL d   1      41.130 -16.550  36.350  0.00  0.00    -0.643 OA
ATOM     15  O   UNL d   1      41.361 -15.121  36.389  0.00  0.00    -0.643 OA
ENDBRANCH   1  13
TORSDOF 2
ENDMDL
MODEL 3
REMARK VINA RESULT:      10.0      7.244      7.852
REMARK  2 active torsions:
REMARK  status: ('A' for Active; 'I' for Inactive)
REMARK    1  A    between atoms: C_6  and  C_1 
REMARK    2  A    between atoms: C_7  and  C_5 
ROOT
ATOM      1  C   UNL d   1      45.094 -12.858  43.436  0.00  0.00     0.169 A 
ATOM      2  C   UNL d   1      45.122 -13.697  43.405  0.00  0.00     0.048 A 
ATOM      3  N   UNL d   1      45.574 -13.318  44.616  0.00  0.00    -0.148 NA
ATOM      4  N   UNL d   1      45.370 -12.635  44.175  0.00  0.00    -0.142 NA
ATOM      5  C   UNL d   1      45.413 -13.975  44.120  0.00  0.00     0.105 A 
ENDROOT
BRANCH   5   6
ATOM      6  C   UNL d   1      45.531 -14.763  44.327  0.00  0.00     0.019 A 
ATOM      7  C   UNL d   1      46.239 -15.137  44.126  0.00  0.00     0.002 A 
ATOM      8  C   UNL d   1      46.361 -15.925  44.331  0.00  0.00     0.011 A 
ATOM      9  C   UNL d   1      45.790 -16.360  44.736  0.00  0.00     0.058 A 
ATOM     10  C   UNL d   1      45.086 -15.981  44.932  0.00  0.00     0.011 A 
ATOM     11 CL   UNL d   1      45.912 -17.130  44.934  0.00  0.00    -0.082 Cl
ATOM     12  C   UNL d   1      44.949 -15.190  44.733  0.00  0.00     0.002 A 
ENDBRANCH   5   6
BRANCH   1  13
ATOM     13  C   UNL d   1      44.832 -12.355  42.824  0.00  0.00     0.231 C 
ATOM     14  O   UNL d   1      44.046 -12.085  42.797  0.00  0.00    -0.643 OA
ATOM     15  O   UNL d   1      45.382 -12.128  42.238  0.00  0.00    -0.643 OA
ENDBRANCH   1  13
TORSDOF 2
ENDMDL
