MODEL 1
REMARK VINA RESULT:      -0.9      0.000      0.000
REMARK  3 active torsions:
REMARK  status: ('A' for Active; 'I' for Inactive)
REMARK    1  A    between atoms: C_11  and  N_2 
REMARK    2  A    between atoms: C_16  and  C_6 
REMARK    3  A    between atoms: C_12  and  C_11 
ROOT
ATOM      1  C   UNL d   1      32.893  20.352 -23.525  0.00  0.00     0.137 A 
ATOM      2  N   UNL d   1      32.987  21.660 -22.956  0.00  0.00    -0.256 N 
ATOM      3  C   UNL d   1      32.692  20.040 -22.784  0.00  0.00     0.192 A 
ATOM      4  C   UNL d   1      33.040  21.163 -23.611  0.00  0.00     0.272 A 
ATOM      5  N   UNL d   1      32.639  20.535 -22.130  0.00  0.00    -0.204 NA
ATOM      6  C   UNL d   1      32.787  21.351 -22.212  0.00  0.00     0.152 A 
ATOM      7  C   UNL d   1      32.945  19.850 -24.182  0.00  0.00     0.205 A 
ATOM      8  O   UNL d   1      32.547  19.234 -22.704  0.00  0.00    -0.289 OA
ATOM      9  C   UNL d   1      32.801  19.052 -24.100  0.00  0.00     0.062 A 
ATOM     10  C   UNL d   1      32.601  18.738 -23.364  0.00  0.00     0.105 A 
ATOM     11  O   UNL d   1      33.239  21.468 -24.351  0.00  0.00    -0.266 OA
ATOM     12  O   UNL d   1      33.145  20.165 -24.918  0.00  0.00    -0.286 OA
ATOM     13  C   UNL d   1      32.854  18.552 -24.761  0.00  0.00     0.005 A 
ATOM     14  C   UNL d   1      32.453  17.920 -23.281  0.00  0.00     0.025 A 
ATOM     15  C   UNL d   1      32.707  17.743 -24.676  0.00  0.00     0.000 A 
ATOM     16  C   UNL d   1      32.507  17.428 -23.938  0.00  0.00     0.002 A 
ENDROOT
BRANCH   2  17
ATOM     17  C   UNL d   1      33.134  22.458 -23.046  0.00  0.00     0.109 C 
BRANCH  17  18
ATOM     18  C   UNL d   1      32.809  22.869 -23.684  0.00  0.00     0.118 A 
ATOM     19  O   UNL d   1      32.006  22.957 -23.837  0.00  0.00    -0.304 OA
ATOM     20  C   UNL d   1      31.930  23.401 -24.520  0.00  0.00     0.123 A 
ATOM     21  C   UNL d   1      32.687  23.588 -24.790  0.00  0.00     0.029 A 
ATOM     22  C   UNL d   1      33.225  23.258 -24.272  0.00  0.00     0.028 A 
ENDBRANCH  17  18
ENDBRANCH   2  17
BRANCH   6  23
ATOM     23  C   UNL d   1      32.733  21.848 -21.553  0.00  0.00     0.035 A 
ATOM     24  C   UNL d   1      33.240  22.494 -21.473  0.00  0.00     0.003 A 
ATOM     25  C   UNL d   1      33.186  22.986 -20.819  0.00  0.00     0.000 A 
ATOM     26  C   UNL d   1      32.619  22.832 -20.236  0.00  0.00     0.000 A 
ATOM     27  C   UNL d   1      32.112  22.186 -20.316  0.00  0.00     0.000 A 
ATOM     28  C   UNL d   1      32.163  21.690 -20.971  0.00  0.00     0.003 A 
ENDBRANCH   6  23
TORSDOF 3
ENDMDL
MODEL 2
REMARK VINA RESULT:      -0.4      3.353      5.543
REMARK  3 active torsions:
REMARK  status: ('A' for Active; 'I' for Inactive)
REMARK    1  A    between atoms: C_11  and  N_2 
REMARK    2  A    between atoms: C_16  and  C_6 
REMARK    3  A    between atoms: C_12  and  C_11 
ROOT
ATOM      1  C   UNL d   1      29.818  16.756 -24.262  0.00  0.00     0.137 A 
ATOM      2  N   UNL d   1      31.138  17.182 -24.605  0.00  0.00    -0.256 N 
ATOM      3  C   UNL d   1      29.674  17.485 -23.895  0.00  0.00     0.192 A 
ATOM      4  C   UNL d   1      30.550  16.604 -24.618  0.00  0.00     0.272 A 
ATOM      5  N   UNL d   1      30.260  18.061 -23.882  0.00  0.00    -0.204 NA
ATOM      6  C   UNL d   1      30.998  17.913 -24.238  0.00  0.00     0.152 A 
ATOM      7  C   UNL d   1      29.225  16.177 -24.274  0.00  0.00     0.205 A 
ATOM      8  O   UNL d   1      28.944  17.630 -23.543  0.00  0.00    -0.289 OA
ATOM      9  C   UNL d   1      28.503  16.324 -23.924  0.00  0.00     0.062 A 
ATOM     10  C   UNL d   1      28.356  17.048 -23.558  0.00  0.00     0.105 A 
ATOM     11  O   UNL d   1      30.688  15.877 -24.982  0.00  0.00    -0.266 OA
ATOM     12  O   UNL d   1      29.372  15.453 -24.640  0.00  0.00    -0.286 OA
ATOM     13  C   UNL d   1      27.911  15.741 -23.938  0.00  0.00     0.005 A 
ATOM     14  C   UNL d   1      27.616  17.197 -23.201  0.00  0.00     0.025 A 
ATOM     15  C   UNL d   1      27.179  15.892 -23.583  0.00  0.00     0.000 A 
ATOM     16  C   UNL d   1      27.033  16.618 -23.216  0.00  0.00     0.002 A 
ENDROOT
BRANCH   2  17
ATOM     17  C   UNL d   1      31.858  17.027 -24.957  0.00  0.00     0.109 C 
BRANCH  17  18
ATOM     18  C   UNL d   1      32.338  16.420 -24.670  0.00  0.00     0.118 A 
ATOM     19  O   UNL d   1      32.336  16.133 -23.899  0.00  0.00    -0.304 OA
ATOM     20  C   UNL d   1      32.893  15.536 -23.854  0.00  0.00     0.123 A 
ATOM     21  C   UNL d   1      33.241  15.453 -24.598  0.00  0.00     0.029 A 
ATOM     22  C   UNL d   1      32.895  15.999 -25.097  0.00  0.00     0.028 A 
ENDBRANCH  17  18
ENDBRANCH   2  17
BRANCH   6  23
ATOM     23  C   UNL d   1      31.586  18.494 -24.224  0.00  0.00     0.035 A 
ATOM     24  C   UNL d   1      31.798  18.892 -24.915  0.00  0.00     0.003 A 
ATOM     25  C   UNL d   1      32.382  19.468 -24.900  0.00  0.00     0.000 A 
ATOM     26  C   UNL d   1      32.760  19.651 -24.187  0.00  0.00     0.000 A 
ATOM     27  C   UNL d   1      32.548  19.252 -23.496  0.00  0.00     0.000 A 
ATOM     28  C   UNL d   1      31.963  18.674 -23.507  0.00  0.00     0.003 A 
ENDBRANCH   6  23
TORSDOF 3
ENDMDL
MODEL 3
REMARK VINA RESULT:       0.0      2.226      5.017
REMARK  3 active torsions:
REMARK  status: ('A' for Active; 'I' for Inactive)
REMARK    1  A    between atoms: C_11  and  N_2 
REMARK    2  A    between atoms: C_16  and  C_6 
REMARK    3  A    between atoms: C_12  and  C_11 
ROOT
ATOM      1  C   UNL d   1      32.767  22.253 -19.569  0.00  0.00     0.137 A 
ATOM      2  N   UNL d   1      32.908  22.055 -20.977  0.00  0.00    -0.256 N 
ATOM      3  C   UNL d   1      32.498  23.026 -19.701  0.00  0.00     0.192 A 
ATOM      4  C   UNL d   1      32.972  21.768 -20.207  0.00  0.00     0.272 A 
ATOM      5  N   UNL d   1      32.433  23.314 -20.468  0.00  0.00    -0.204 NA
ATOM      6  C   UNL d   1      32.639  22.828 -21.113  0.00  0.00     0.152 A 
ATOM      7  C   UNL d   1      32.831  21.967 -18.794  0.00  0.00     0.205 A 
ATOM      8  O   UNL d   1      32.295  23.504 -19.062  0.00  0.00    -0.289 OA
ATOM      9  C   UNL d   1      32.629  22.443 -18.163  0.00  0.00     0.062 A 
ATOM     10  C   UNL d   1      32.361  23.212 -18.291  0.00  0.00     0.105 A 
ATOM     11  O   UNL d   1      33.240  20.999 -20.071  0.00  0.00    -0.266 OA
ATOM     12  O   UNL d   1      33.099  21.197 -18.666  0.00  0.00    -0.286 OA
ATOM     13  C   UNL d   1      32.694  22.152 -17.388  0.00  0.00     0.005 A 
ATOM     14  C   UNL d   1      32.155  23.699 -17.644  0.00  0.00     0.025 A 
ATOM     15  C   UNL d   1      32.489  22.637 -16.750  0.00  0.00     0.000 A 
ATOM     16  C   UNL d   1      32.221  23.407 -16.878  0.00  0.00     0.002 A 
ENDROOT
BRANCH   2  17
ATOM     17  C   UNL d   1      33.112  21.572 -21.603  0.00  0.00     0.109 C 
BRANCH  17  18
ATOM     18  C   UNL d   1      32.769  20.826 -21.678  0.00  0.00     0.118 A 
ATOM     19  O   UNL d   1      31.967  20.657 -21.601  0.00  0.00    -0.304 OA
ATOM     20  C   UNL d   1      31.869  19.854 -21.718  0.00  0.00     0.123 A 
ATOM     21  C   UNL d   1      32.610  19.524 -21.868  0.00  0.00     0.029 A 
ATOM     22  C   UNL d   1      33.161  20.126 -21.842  0.00  0.00     0.028 A 
ENDBRANCH  17  18
ENDBRANCH   2  17
BRANCH   6  23
ATOM     23  C   UNL d   1      32.574  23.119 -21.884  0.00  0.00     0.035 A 
ATOM     24  C   UNL d   1      33.237  23.163 -22.373  0.00  0.00     0.003 A 
ATOM     25  C   UNL d   1      33.171  23.452 -23.138  0.00  0.00     0.000 A 
ATOM     26  C   UNL d   1      32.434  23.701 -23.421  0.00  0.00     0.000 A 
ATOM     27  C   UNL d   1      31.771  23.657 -22.932  0.00  0.00     0.000 A 
ATOM     28  C   UNL d   1      31.832  23.368 -22.164  0.00  0.00     0.003 A 
ENDBRANCH   6  23
TORSDOF 3
ENDMDL
MODEL 4
REMARK VINA RESULT:       0.8      3.547      5.781
REMARK  3 active torsions:
REMARK  status: ('A' for Active; 'I' for Inactive)
REMARK    1  A    between atoms: C_11  and  N_2 
REMARK    2  A    between atoms: C_16  and  C_6 
REMARK    3  A    between atoms: C_12  and  C_11 
ROOT
ATOM      1  C   UNL d   1      29.404  16.912 -23.999  0.00  0.00     0.137 A 
ATOM      2  N   UNL d   1      30.750  17.093 -24.444  0.00  0.00    -0.256 N 
ATOM      3  C   UNL d   1      29.592  16.152 -23.728  0.00  0.00     0.192 A 
ATOM      4  C   UNL d   1      29.983  17.383 -24.357  0.00  0.00     0.272 A 
ATOM      5  N   UNL d   1      30.355  15.862 -23.813  0.00  0.00    -0.204 NA
ATOM      6  C   UNL d   1      30.942  16.332 -24.173  0.00  0.00     0.152 A 
ATOM      7  C   UNL d   1      28.633  17.202 -23.911  0.00  0.00     0.205 A 
ATOM      8  O   UNL d   1      29.011  15.689 -23.372  0.00  0.00    -0.289 OA
ATOM      9  C   UNL d   1      28.059  16.741 -23.559  0.00  0.00     0.062 A 
ATOM     10  C   UNL d   1      28.243  15.984 -23.287  0.00  0.00     0.105 A 
ATOM     11  O   UNL d   1      29.792  18.139 -24.626  0.00  0.00    -0.266 OA
ATOM     12  O   UNL d   1      28.449  17.959 -24.183  0.00  0.00    -0.286 OA
ATOM     13  C   UNL d   1      27.287  17.034 -23.472  0.00  0.00     0.005 A 
ATOM     14  C   UNL d   1      27.656  15.512 -22.926  0.00  0.00     0.025 A 
ATOM     15  C   UNL d   1      26.709  16.564 -23.114  0.00  0.00     0.000 A 
ATOM     16  C   UNL d   1      26.892  15.806 -22.842  0.00  0.00     0.002 A 
ENDROOT
BRANCH   2  17
ATOM     17  C   UNL d   1      31.317  17.561 -24.798  0.00  0.00     0.109 C 
BRANCH  17  18
ATOM     18  C   UNL d   1      31.578  18.249 -24.425  0.00  0.00     0.118 A 
ATOM     19  O   UNL d   1      31.552  18.394 -23.616  0.00  0.00    -0.304 OA
ATOM     20  C   UNL d   1      31.865  19.139 -23.486  0.00  0.00     0.123 A 
ATOM     21  C   UNL d   1      32.085  19.455 -24.215  0.00  0.00     0.029 A 
ATOM     22  C   UNL d   1      31.907  18.904 -24.791  0.00  0.00     0.028 A 
ENDBRANCH  17  18
ENDBRANCH   2  17
BRANCH   6  23
ATOM     23  C   UNL d   1      31.710  16.038 -24.259  0.00  0.00     0.035 A 
ATOM     24  C   UNL d   1      32.198  15.944 -23.600  0.00  0.00     0.003 A 
ATOM     25  C   UNL d   1      32.960  15.653 -23.686  0.00  0.00     0.000 A 
ATOM     26  C   UNL d   1      33.240  15.453 -24.438  0.00  0.00     0.000 A 
ATOM     27  C   UNL d   1      32.752  15.547 -25.097  0.00  0.00     0.000 A 
ATOM     28  C   UNL d   1      31.987  15.839 -25.015  0.00  0.00     0.003 A 
ENDBRANCH   6  23
TORSDOF 3
ENDMDL
MODEL 5
REMARK VINA RESULT:       1.9      1.100      1.650
REMARK  3 active torsions:
REMARK  status: ('A' for Active; 'I' for Inactive)
REMARK    1  A    between atoms: C_11  and  N_2 
REMARK    2  A    between atoms: C_16  and  C_6 
REMARK    3  A    between atoms: C_12  and  C_11 
ROOT
ATOM      1  C   UNL d   1      32.364  18.893 -23.732  0.00  0.00     0.137 A 
ATOM      2  N   UNL d   1      32.831  20.110 -23.146  0.00  0.00    -0.256 N 
ATOM      3  C   UNL d   1      32.005  18.682 -23.015  0.00  0.00     0.192 A 
ATOM      4  C   UNL d   1      32.777  19.608 -23.797  0.00  0.00     0.272 A 
ATOM      5  N   UNL d   1      32.058  19.181 -22.365  0.00  0.00    -0.204 NA
ATOM      6  C   UNL d   1      32.473  19.902 -22.426  0.00  0.00     0.152 A 
ATOM      7  C   UNL d   1      32.309  18.387 -24.385  0.00  0.00     0.205 A 
ATOM      8  O   UNL d   1      31.596  17.970 -22.956  0.00  0.00    -0.289 OA
ATOM      9  C   UNL d   1      31.903  17.682 -24.324  0.00  0.00     0.062 A 
ATOM     10  C   UNL d   1      31.544  17.468 -23.612  0.00  0.00     0.105 A 
ATOM     11  O   UNL d   1      33.132  19.815 -24.512  0.00  0.00    -0.266 OA
ATOM     12  O   UNL d   1      32.667  18.601 -25.097  0.00  0.00    -0.286 OA
ATOM     13  C   UNL d   1      31.849  17.177 -24.980  0.00  0.00     0.005 A 
ATOM     14  C   UNL d   1      31.129  16.746 -23.550  0.00  0.00     0.025 A 
ATOM     15  C   UNL d   1      31.437  16.463 -24.916  0.00  0.00     0.000 A 
ATOM     16  C   UNL d   1      31.078  16.249 -24.203  0.00  0.00     0.002 A 
ENDROOT
BRANCH   2  17
ATOM     17  C   UNL d   1      33.239  20.814 -23.215  0.00  0.00     0.109 C 
BRANCH  17  18
ATOM     18  C   UNL d   1      33.058  21.339 -23.826  0.00  0.00     0.118 A 
ATOM     19  O   UNL d   1      33.163  21.193 -24.629  0.00  0.00    -0.304 OA
ATOM     20  C   UNL d   1      32.915  21.857 -25.037  0.00  0.00     0.123 A 
ATOM     21  C   UNL d   1      32.656  22.414 -24.487  0.00  0.00     0.029 A 
ATOM     22  C   UNL d   1      32.746  22.091 -23.742  0.00  0.00     0.028 A 
ENDBRANCH  17  18
ENDBRANCH   2  17
BRANCH   6  23
ATOM     23  C   UNL d   1      32.525  20.404 -21.771  0.00  0.00     0.035 A 
ATOM     24  C   UNL d   1      33.154  20.337 -21.241  0.00  0.00     0.003 A 
ATOM     25  C   UNL d   1      33.205  20.835 -20.591  0.00  0.00     0.000 A 
ATOM     26  C   UNL d   1      32.621  21.409 -20.468  0.00  0.00     0.000 A 
ATOM     27  C   UNL d   1      31.993  21.476 -20.998  0.00  0.00     0.000 A 
ATOM     28  C   UNL d   1      31.938  20.978 -21.651  0.00  0.00     0.003 A 
ENDBRANCH   6  23
TORSDOF 3
ENDMDL
