MODEL 1
REMARK VINA RESULT:       7.0      0.000      0.000
REMARK  6 active torsions:
REMARK  status: ('A' for Active; 'I' for Inactive)
REMARK    1  A    between atoms: C_5  and  C_1 
REMARK       I    between atoms: N_10  and  C_5 
REMARK    2  A    between atoms: C_9  and  C_6 
REMARK    3  A    between atoms: C_17  and  N_7 
REMARK    4  A    between atoms: O_23  and  C_8 
REMARK    5  A    between atoms: O_25  and  C_12 
REMARK    6  A    between atoms: C_18  and  C_17 
ROOT
ATOM      1  C   UNL d   1     -41.514-121.471 -51.495  0.00  0.00     0.316 C 
ATOM      2  N   UNL d   1     -41.185-122.352 -49.627  0.00  0.00    -0.143 NA
ATOM      3  N   UNL d   1     -41.427-122.439 -50.816  0.00  0.00    -0.104 NA
ATOM      4  O   UNL d   1     -41.410-120.732 -51.162  0.00  0.00    -0.262 OA
ENDROOT
BRANCH   1   5
ATOM      5  C   UNL d   1     -41.678-121.549 -52.296  0.00  0.00     0.164 A 
ATOM      6  C   UNL d   1     -42.365-121.906 -52.544  0.00  0.00     0.047 A 
ATOM      7  C   UNL d   1     -41.990-121.697 -53.895  0.00  0.00     0.105 A 
ATOM      8  N   UNL d   1     -41.295-121.336 -53.641  0.00  0.00    -0.148 NA
ATOM      9  N   UNL d   1     -41.138-121.262 -52.851  0.00  0.00    -0.143 NA
BRANCH   7  10
ATOM     10  C   UNL d   1     -42.322-121.864 -54.626  0.00  0.00     0.019 A 
ATOM     11  C   UNL d   1     -42.482-121.270 -55.153  0.00  0.00     0.002 A 
ATOM     12  C   UNL d   1     -42.813-121.432 -55.881  0.00  0.00     0.011 A 
ATOM     13  C   UNL d   1     -42.983-122.209 -56.076  0.00  0.00     0.058 A 
ATOM     14  C   UNL d   1     -42.826-122.812 -55.553  0.00  0.00     0.011 A 
ATOM     15 CL   UNL d   1     -43.316-122.381 -56.808  0.00  0.00    -0.082 Cl
ATOM     16  C   UNL d   1     -42.494-122.645 -54.822  0.00  0.00     0.002 A 
ENDBRANCH   7  10
ENDBRANCH   1   5
BRANCH   2  17
ATOM     17  C   UNL d   1     -41.124-123.043 -49.146  0.00  0.00     0.122 C 
BRANCH  17  18
ATOM     18  C   UNL d   1     -41.741-123.223 -48.530  0.00  0.00     0.023 A 
ATOM     19  C   UNL d   1     -42.580-123.420 -48.786  0.00  0.00     0.028 A 
ATOM     20  C   UNL d   1     -43.201-123.603 -48.161  0.00  0.00     0.116 A 
ATOM     21  C   UNL d   1     -42.986-123.588 -47.287  0.00  0.00     0.116 A 
ATOM     22  C   UNL d   1     -42.153-123.392 -47.044  0.00  0.00     0.026 A 
ATOM     23  C   UNL d   1     -41.522-123.207 -47.665  0.00  0.00     0.004 A 
BRANCH  20  24
ATOM     24  O   UNL d   1     -44.038-123.800 -48.417  0.00  0.00    -0.326 OA
ATOM     25  C   UNL d   1     -44.247-123.811 -49.282  0.00  0.00     0.181 C 
ENDBRANCH  20  24
BRANCH  21  26
ATOM     26  O   UNL d   1     -43.611-123.771 -46.676  0.00  0.00    -0.326 OA
ATOM     27  C   UNL d   1     -44.377-123.312 -46.685  0.00  0.00     0.181 C 
ENDBRANCH  21  26
ENDBRANCH  17  18
ENDBRANCH   2  17
TORSDOF 6
ENDMDL
