MODEL 1
REMARK VINA RESULT:      60.9      0.000      0.000
REMARK  6 active torsions:
REMARK  status: ('A' for Active; 'I' for Inactive)
REMARK    1  A    between atoms: C_11  and  C_2 
REMARK    2  A    between atoms: S_9  and  C_7 
REMARK    3  A    between atoms: C_13  and  S_9 
REMARK    4  A    between atoms: C_10  and  C_13 
REMARK    5  A    between atoms: O_18  and  C_10 
REMARK    6  A    between atoms: C_23  and  O_18 
ROOT
ATOM      1  N   UNL d   1     -50.880  27.326  33.590  0.00  0.00    -0.191 N 
ATOM      2  C   UNL d   1     -51.345  26.670  33.432  0.00  0.00     0.187 A 
ATOM      3  N   UNL d   1     -52.113  26.931  33.307  0.00  0.00    -0.127 NA
ATOM      4  C   UNL d   1     -51.346  27.999  33.567  0.00  0.00     0.187 A 
ATOM      5  N   UNL d   1     -50.061  27.399  33.759  0.00  0.00    -0.156 NA
ATOM      6  N   UNL d   1     -52.122  27.753  33.389  0.00  0.00    -0.127 NA
ATOM      7  C   UNL d   1     -49.733  28.143  33.900  0.00  0.00     0.131 A 
ATOM      8  C   UNL d   1     -51.018  28.742  33.708  0.00  0.00     0.043 A 
ATOM      9  C   UNL d   1     -50.212  28.815  33.874  0.00  0.00     0.031 A 
ENDROOT
BRANCH   7  10
ATOM     10  S   UNL d   1     -48.927  28.215  34.066  0.00  0.00    -0.061 SA
BRANCH  10  11
ATOM     11  C   UNL d   1     -48.680  28.396  34.831  0.00  0.00     0.094 C 
ATOM     12  C   UNL d   1     -48.851  27.884  35.445  0.00  0.00     0.013 C 
BRANCH  11  13
ATOM     13  C   UNL d   1     -48.267  29.084  34.974  0.00  0.00     0.306 C 
ATOM     14  O   UNL d   1     -48.629  29.817  34.857  0.00  0.00    -0.258 OA
BRANCH  13  15
ATOM     15  O   UNL d   1     -47.483  29.061  35.236  0.00  0.00    -0.271 OA
BRANCH  15  16
ATOM     16  C   UNL d   1     -47.040  29.738  35.260  0.00  0.00     0.126 C 
ATOM     17  C   UNL d   1     -47.067  30.201  35.929  0.00  0.00     0.029 C 
ENDBRANCH  15  16
ENDBRANCH  13  15
ENDBRANCH  11  13
ENDBRANCH  10  11
ENDBRANCH   7  10
BRANCH   2  18
ATOM     18  C   UNL d   1     -51.097  25.890  33.401  0.00  0.00     0.038 A 
ATOM     19  C   UNL d   1     -51.659  25.283  33.426  0.00  0.00     0.005 A 
ATOM     20  C   UNL d   1     -51.413  24.492  33.395  0.00  0.00     0.030 A 
ATOM     21  C   UNL d   1     -50.609  24.316  33.340  0.00  0.00     0.140 A 
ATOM     22  C   UNL d   1     -50.046  24.923  33.314  0.00  0.00     0.030 A 
ATOM     23  F   UNL d   1     -50.361  23.531  33.309  0.00  0.00    -0.204 F 
ATOM     24  C   UNL d   1     -50.300  25.710  33.345  0.00  0.00     0.005 A 
ENDBRANCH   2  18
TORSDOF 6
ENDMDL
MODEL 2
REMARK VINA RESULT:      62.5      1.600      2.458
REMARK  6 active torsions:
REMARK  status: ('A' for Active; 'I' for Inactive)
REMARK    1  A    between atoms: C_11  and  C_2 
REMARK    2  A    between atoms: S_9  and  C_7 
REMARK    3  A    between atoms: C_13  and  S_9 
REMARK    4  A    between atoms: C_10  and  C_13 
REMARK    5  A    between atoms: O_18  and  C_10 
REMARK    6  A    between atoms: C_23  and  O_18 
ROOT
ATOM      1  N   UNL d   1     -51.760  25.233  33.540  0.00  0.00    -0.191 N 
ATOM      2  C   UNL d   1     -51.527  24.447  33.530  0.00  0.00     0.187 A 
ATOM      3  N   UNL d   1     -52.193  23.990  33.387  0.00  0.00    -0.127 NA
ATOM      4  C   UNL d   1     -52.566  25.276  33.405  0.00  0.00     0.187 A 
ATOM      5  N   UNL d   1     -51.325  25.940  33.660  0.00  0.00    -0.156 NA
ATOM      6  N   UNL d   1     -52.841  24.496  33.309  0.00  0.00    -0.127 NA
ATOM      7  C   UNL d   1     -51.709  26.671  33.641  0.00  0.00     0.131 A 
ATOM      8  C   UNL d   1     -52.950  26.007  33.386  0.00  0.00     0.043 A 
ATOM      9  C   UNL d   1     -52.522  26.703  33.504  0.00  0.00     0.031 A 
ENDROOT
BRANCH   7  10
ATOM     10  S   UNL d   1     -51.281  27.367  33.758  0.00  0.00    -0.061 SA
BRANCH  10  11
ATOM     11  C   UNL d   1     -50.555  27.342  34.147  0.00  0.00     0.094 C 
ATOM     12  C   UNL d   1     -50.491  26.955  34.865  0.00  0.00     0.013 C 
BRANCH  11  13
ATOM     13  C   UNL d   1     -49.903  27.702  33.815  0.00  0.00     0.306 C 
ATOM     14  O   UNL d   1     -49.998  28.345  33.306  0.00  0.00    -0.258 OA
BRANCH  13  15
ATOM     15  O   UNL d   1     -49.139  27.432  33.982  0.00  0.00    -0.271 OA
BRANCH  15  16
ATOM     16  C   UNL d   1     -48.507  27.936  33.933  0.00  0.00     0.126 C 
ATOM     17  C   UNL d   1     -48.320  28.394  34.579  0.00  0.00     0.029 C 
ENDBRANCH  15  16
ENDBRANCH  13  15
ENDBRANCH  11  13
ENDBRANCH  10  11
ENDBRANCH   7  10
BRANCH   2  18
ATOM     18  C   UNL d   1     -50.767  24.161  33.642  0.00  0.00     0.038 A 
ATOM     19  C   UNL d   1     -50.127  24.564  33.307  0.00  0.00     0.005 A 
ATOM     20  C   UNL d   1     -49.357  24.278  33.417  0.00  0.00     0.030 A 
ATOM     21  C   UNL d   1     -49.235  23.593  33.860  0.00  0.00     0.140 A 
ATOM     22  C   UNL d   1     -49.875  23.190  34.195  0.00  0.00     0.030 A 
ATOM     23  F   UNL d   1     -48.470  23.307  33.972  0.00  0.00    -0.204 F 
ATOM     24  C   UNL d   1     -50.641  23.481  34.081  0.00  0.00     0.005 A 
ENDBRANCH   2  18
TORSDOF 6
ENDMDL
