MODEL 1
REMARK VINA RESULT:      60.0      0.000      0.000
REMARK  5 active torsions:
REMARK  status: ('A' for Active; 'I' for Inactive)
REMARK    1  A    between atoms: C_11  and  N_5 
REMARK    2  A    between atoms: C_15  and  C_8 
REMARK    3  A    between atoms: C_12  and  C_11 
REMARK    4  A    between atoms: O_20  and  C_15 
REMARK    5  A    between atoms: C_23  and  O_20 
ROOT
ATOM      1  C   UNL d   1      13.982  13.013  -2.525  0.00  0.00     0.130 A 
ATOM      2  C   UNL d   1      14.120  13.818  -2.610  0.00  0.00     0.157 A 
ATOM      3  C   UNL d   1      13.553  12.603  -3.102  0.00  0.00     0.272 A 
ATOM      4  N   UNL d   1      13.831  14.217  -3.267  0.00  0.00    -0.208 NA
ATOM      5  N   UNL d   1      13.264  13.001  -3.760  0.00  0.00    -0.254 N 
ATOM      6  C   UNL d   1      14.272  12.608  -1.863  0.00  0.00     0.204 A 
ATOM      7  N   UNL d   1      14.551  14.230  -2.029  0.00  0.00    -0.289 N 
ATOM      8  C   UNL d   1      13.402  13.807  -3.845  0.00  0.00     0.177 A 
ATOM      9  C   UNL d   1      14.703  13.020  -1.283  0.00  0.00     0.055 A 
ATOM     10  C   UNL d   1      14.840  13.832  -1.372  0.00  0.00     0.069 A 
ATOM     11  O   UNL d   1      13.410  11.781  -3.021  0.00  0.00    -0.266 OA
ATOM     12  O   UNL d   1      14.132  11.797  -1.780  0.00  0.00    -0.286 OA
ATOM     13  C   UNL d   1      14.690  15.041  -2.113  0.00  0.00     0.101 C 
ATOM     14  C   UNL d   1      14.992  12.619  -0.623  0.00  0.00     0.005 A 
ATOM     15  C   UNL d   1      15.266  14.240  -0.798  0.00  0.00     0.018 A 
ATOM     16  C   UNL d   1      15.419  13.026  -0.049  0.00  0.00     0.000 A 
ATOM     17  C   UNL d   1      15.555  13.842  -0.140  0.00  0.00     0.002 A 
ENDROOT
BRANCH   8  18
ATOM     18  C   UNL d   1      13.107  14.211  -4.515  0.00  0.00     0.160 C 
BRANCH  18  19
ATOM     19  O   UNL d   1      12.966  15.023  -4.476  0.00  0.00    -0.302 OA
BRANCH  19  20
ATOM     20  C   UNL d   1      13.286  15.520  -5.049  0.00  0.00     0.100 A 
ATOM     21  C   UNL d   1      14.102  15.565  -5.138  0.00  0.00     0.025 A 
ATOM     22  C   UNL d   1      14.431  16.063  -5.713  0.00  0.00     0.002 A 
ATOM     23  C   UNL d   1      13.932  16.511  -6.190  0.00  0.00     0.000 A 
ATOM     24  C   UNL d   1      13.113  16.465  -6.099  0.00  0.00     0.002 A 
ATOM     25  C   UNL d   1      12.790  15.970  -5.529  0.00  0.00     0.025 A 
ENDBRANCH  19  20
ENDBRANCH  18  19
ENDBRANCH   8  18
BRANCH   5  26
ATOM     26  C   UNL d   1      12.838  12.594  -4.334  0.00  0.00     0.109 C 
BRANCH  26  27
ATOM     27  C   UNL d   1      13.221  12.292  -4.995  0.00  0.00     0.118 A 
ATOM     28  O   UNL d   1      14.017  12.157  -5.161  0.00  0.00    -0.304 OA
ATOM     29  C   UNL d   1      14.065  11.843  -5.920  0.00  0.00     0.123 A 
ATOM     30  C   UNL d   1      13.314  11.779  -6.232  0.00  0.00     0.029 A 
ATOM     31  C   UNL d   1      12.783  12.058  -5.659  0.00  0.00     0.028 A 
ENDBRANCH  26  27
ENDBRANCH   5  26
TORSDOF 5
ENDMDL
MODEL 2
REMARK VINA RESULT:      61.7      1.438      4.118
REMARK  5 active torsions:
REMARK  status: ('A' for Active; 'I' for Inactive)
REMARK    1  A    between atoms: C_11  and  N_5 
REMARK    2  A    between atoms: C_15  and  C_8 
REMARK    3  A    between atoms: C_12  and  C_11 
REMARK    4  A    between atoms: O_20  and  C_15 
REMARK    5  A    between atoms: C_23  and  O_20 
ROOT
ATOM      1  C   UNL d   1      13.686  13.117  -2.848  0.00  0.00     0.130 A 
ATOM      2  C   UNL d   1      13.881  13.820  -3.226  0.00  0.00     0.157 A 
ATOM      3  C   UNL d   1      13.809  13.037  -2.033  0.00  0.00     0.272 A 
ATOM      4  N   UNL d   1      14.197  14.443  -2.795  0.00  0.00    -0.208 NA
ATOM      5  N   UNL d   1      14.125  13.661  -1.602  0.00  0.00    -0.254 N 
ATOM      6  C   UNL d   1      13.367  12.486  -3.279  0.00  0.00     0.204 A 
ATOM      7  N   UNL d   1      13.757  13.900  -4.045  0.00  0.00    -0.289 N 
ATOM      8  C   UNL d   1      14.319  14.364  -1.980  0.00  0.00     0.177 A 
ATOM      9  C   UNL d   1      13.244  12.566  -4.098  0.00  0.00     0.055 A 
ATOM     10  C   UNL d   1      13.441  13.276  -4.476  0.00  0.00     0.069 A 
ATOM     11  O   UNL d   1      13.612  12.322  -1.643  0.00  0.00    -0.266 OA
ATOM     12  O   UNL d   1      13.172  11.779  -2.896  0.00  0.00    -0.286 OA
ATOM     13  C   UNL d   1      13.953  14.606  -4.427  0.00  0.00     0.101 C 
ATOM     14  C   UNL d   1      12.926  11.939  -4.529  0.00  0.00     0.005 A 
ATOM     15  C   UNL d   1      13.319  13.355  -5.286  0.00  0.00     0.018 A 
ATOM     16  C   UNL d   1      12.804  12.018  -5.339  0.00  0.00     0.000 A 
ATOM     17  C   UNL d   1      13.003  12.732  -5.718  0.00  0.00     0.002 A 
ENDROOT
BRANCH   8  18
ATOM     18  C   UNL d   1      14.641  14.997  -1.540  0.00  0.00     0.160 C 
BRANCH  18  19
ATOM     19  O   UNL d   1      15.065  15.592  -1.925  0.00  0.00    -0.302 OA
BRANCH  19  20
ATOM     20  C   UNL d   1      15.229  16.297  -1.531  0.00  0.00     0.100 A 
ATOM     21  C   UNL d   1      14.991  17.011  -1.861  0.00  0.00     0.025 A 
ATOM     22  C   UNL d   1      15.153  17.723  -1.470  0.00  0.00     0.002 A 
ATOM     23  C   UNL d   1      15.553  17.706  -0.751  0.00  0.00     0.000 A 
ATOM     24  C   UNL d   1      15.791  16.988  -0.422  0.00  0.00     0.002 A 
ATOM     25  C   UNL d   1      15.629  16.283  -0.812  0.00  0.00     0.025 A 
ENDBRANCH  19  20
ENDBRANCH  18  19
ENDBRANCH   8  18
BRANCH   5  26
ATOM     26  C   UNL d   1      14.247  13.582  -0.792  0.00  0.00     0.109 C 
BRANCH  26  27
ATOM     27  C   UNL d   1      14.739  12.990  -0.506  0.00  0.00     0.118 A 
ATOM     28  O   UNL d   1      15.554  12.957  -0.383  0.00  0.00    -0.304 OA
ATOM     29  C   UNL d   1      15.732  12.212  -0.082  0.00  0.00     0.123 A 
ATOM     30  C   UNL d   1      15.045  11.779  -0.014  0.00  0.00     0.029 A 
ATOM     31  C   UNL d   1      14.421  12.259  -0.277  0.00  0.00     0.028 A 
ENDBRANCH  26  27
ENDBRANCH   5  26
TORSDOF 5
ENDMDL
