MODEL 1
REMARK VINA RESULT:      -4.5      0.000      0.000
REMARK  3 active torsions:
REMARK  status: ('A' for Active; 'I' for Inactive)
REMARK    1  A    between atoms: C_2  and  N_1 
REMARK    2  A    between atoms: C_5  and  C_8 
REMARK       I    between atoms: N_6  and  C_5 
REMARK    3  A    between atoms: C_13  and  N_6 
ROOT
ATOM      1  C   UNL d   1     -41.947-122.610 -49.732  0.00  0.00     0.070 A 
ATOM      2  C   UNL d   1     -42.019-122.811 -50.534  0.00  0.00     0.022 A 
ATOM      3  C   UNL d   1     -41.645-122.355 -51.105  0.00  0.00     0.059 A 
ATOM      4  C   UNL d   1     -41.494-121.942 -49.501  0.00  0.00     0.018 A 
ATOM      5  C   UNL d   1     -41.200-121.702 -50.890  0.00  0.00     0.005 A 
ATOM      6  C   UNL d   1     -41.123-121.492 -50.084  0.00  0.00     0.002 A 
ENDROOT
BRANCH   3   7
ATOM      7  C   UNL d   1     -41.713-122.552 -51.903  0.00  0.00     0.279 C 
ATOM      8  N   UNL d   1     -41.489-122.010 -52.483  0.00  0.00    -0.208 NA
ATOM      9  O   UNL d   1     -42.006-123.288 -52.124  0.00  0.00    -0.265 OA
BRANCH   8  10
ATOM     10  C   UNL d   1     -41.559-122.210 -53.294  0.00  0.00     0.085 A 
ATOM     11  C   UNL d   1     -42.061-121.783 -53.783  0.00  0.00     0.020 A 
ATOM     12  C   UNL d   1     -42.144-121.965 -54.588  0.00  0.00     0.008 A 
ATOM     13  C   UNL d   1     -42.598-121.639 -55.205  0.00  0.00     0.007 A 
ATOM     14  C   UNL d   1     -41.708-122.594 -54.901  0.00  0.00     0.030 A 
ATOM     15  C   UNL d   1     -42.434-122.070 -55.877  0.00  0.00     0.035 A 
ATOM     16  S   UNL d   1     -41.896-122.655 -55.715  0.00  0.00    -0.086 SA
ATOM     17  C   UNL d   1     -41.192-123.036 -54.406  0.00  0.00     0.008 A 
ATOM     18  C   UNL d   1     -41.123-122.838 -53.604  0.00  0.00     0.020 A 
ENDBRANCH   8  10
ENDBRANCH   3   7
BRANCH   1  19
ATOM     19  N   UNL d   1     -42.321-123.064 -49.153  0.00  0.00    -0.242 N 
ATOM     20  C   UNL d   1     -41.990-123.424 -48.494  0.00  0.00     0.267 A 
ATOM     21  C   UNL d   1     -42.559-123.817 -48.070  0.00  0.00     0.066 A 
ATOM     22  O   UNL d   1     -41.147-123.393 -48.274  0.00  0.00    -0.267 OA
ATOM     23  C   UNL d   1     -43.259-123.707 -48.462  0.00  0.00     0.066 A 
ATOM     24  C   UNL d   1     -43.114-123.262 -49.100  0.00  0.00     0.267 A 
ATOM     25  O   UNL d   1     -43.739-123.020 -49.671  0.00  0.00    -0.267 OA
ENDBRANCH   1  19
TORSDOF 3
ENDMDL
