MODEL 1
REMARK VINA RESULT:       7.6      0.000      0.000
REMARK  3 active torsions:
REMARK  status: ('A' for Active; 'I' for Inactive)
REMARK       I    between atoms: C_4  and  N_1 
REMARK    1  A    between atoms: C_7  and  C_3 
REMARK    2  A    between atoms: C_9  and  C_4 
REMARK    3  A    between atoms: C_8  and  C_5 
ROOT
ATOM      1  N   UNL d   1     -42.555-122.628 -50.313  0.00  0.00    -0.191 N 
ATOM      2  N   UNL d   1     -42.564-122.594 -51.129  0.00  0.00    -0.163 NA
ATOM      3  C   UNL d   1     -41.804-122.948 -50.098  0.00  0.00     0.110 A 
ATOM      4  C   UNL d   1     -43.142-122.401 -49.803  0.00  0.00     0.303 C 
ATOM      5  C   UNL d   1     -41.850-122.881 -51.426  0.00  0.00     0.103 A 
ATOM      6  C   UNL d   1     -41.387-123.097 -50.797  0.00  0.00     0.042 A 
ATOM      7  O   UNL d   1     -43.012-122.487 -48.949  0.00  0.00    -0.263 OA
ENDROOT
BRANCH   3   8
ATOM      8  C   UNL d   1     -41.540-123.086 -49.328  0.00  0.00     0.118 A 
ATOM      9  O   UNL d   1     -41.371-122.510 -48.779  0.00  0.00    -0.304 OA
ATOM     10  C   UNL d   1     -41.123-122.890 -48.075  0.00  0.00     0.123 A 
ATOM     11  C   UNL d   1     -41.146-123.703 -48.213  0.00  0.00     0.029 A 
ATOM     12  C   UNL d   1     -41.409-123.814 -48.999  0.00  0.00     0.028 A 
ENDBRANCH   3   8
BRANCH   4  13
ATOM     13  C   UNL d   1     -43.854-122.095 -50.063  0.00  0.00     0.158 A 
ATOM     14  O   UNL d   1     -43.966-121.404 -50.491  0.00  0.00    -0.300 OA
ATOM     15  C   UNL d   1     -44.766-121.304 -50.637  0.00  0.00     0.123 A 
ATOM     16  C   UNL d   1     -45.163-121.939 -50.296  0.00  0.00     0.029 A 
ATOM     17  C   UNL d   1     -44.602-122.434 -49.938  0.00  0.00     0.032 A 
ENDBRANCH   4  13
BRANCH   5  18
ATOM     18  C   UNL d   1     -41.664-122.929 -52.237  0.00  0.00     0.019 A 
ATOM     19  C   UNL d   1     -41.628-123.656 -52.573  0.00  0.00     0.002 A 
ATOM     20  C   UNL d   1     -41.447-123.740 -53.373  0.00  0.00     0.000 A 
ATOM     21  C   UNL d   1     -41.304-123.073 -53.823  0.00  0.00     0.000 A 
ATOM     22  C   UNL d   1     -41.337-122.309 -53.490  0.00  0.00     0.000 A 
ATOM     23  C   UNL d   1     -41.123-123.164 -54.622  0.00  0.00     0.000 C 
ATOM     24  C   UNL d   1     -41.525-122.243 -52.666  0.00  0.00     0.002 A 
ENDBRANCH   5  18
TORSDOF 3
ENDMDL
MODEL 2
REMARK VINA RESULT:       8.4      2.015      4.240
REMARK  3 active torsions:
REMARK  status: ('A' for Active; 'I' for Inactive)
REMARK       I    between atoms: C_4  and  N_1 
REMARK    1  A    between atoms: C_7  and  C_3 
REMARK    2  A    between atoms: C_9  and  C_4 
REMARK    3  A    between atoms: C_8  and  C_5 
ROOT
ATOM      1  N   UNL d   1     -41.610-121.777 -52.185  0.00  0.00    -0.191 N 
ATOM      2  N   UNL d   1     -41.739-122.375 -51.643  0.00  0.00    -0.163 NA
ATOM      3  C   UNL d   1     -41.527-121.066 -51.738  0.00  0.00     0.110 A 
ATOM      4  C   UNL d   1     -41.570-121.843 -52.992  0.00  0.00     0.303 C 
ATOM      5  C   UNL d   1     -41.738-122.061 -50.881  0.00  0.00     0.103 A 
ATOM      6  C   UNL d   1     -41.609-121.264 -50.939  0.00  0.00     0.042 A 
ATOM      7  O   UNL d   1     -41.427-121.128 -53.464  0.00  0.00    -0.263 OA
ENDROOT
BRANCH   3   8
ATOM      8  C   UNL d   1     -41.389-120.313 -52.048  0.00  0.00     0.118 A 
ATOM      9  O   UNL d   1     -41.387-120.124 -52.840  0.00  0.00    -0.304 OA
ATOM     10  C   UNL d   1     -41.225-119.306 -52.908  0.00  0.00     0.123 A 
ATOM     11  C   UNL d   1     -41.129-119.008 -52.145  0.00  0.00     0.029 A 
ATOM     12  C   UNL d   1     -41.234-119.647 -51.615  0.00  0.00     0.028 A 
ENDBRANCH   3   8
BRANCH   4  13
ATOM     13  C   UNL d   1     -41.657-122.557 -53.378  0.00  0.00     0.158 A 
ATOM     14  O   UNL d   1     -41.123-123.180 -53.389  0.00  0.00    -0.300 OA
ATOM     15  C   UNL d   1     -41.430-123.791 -53.842  0.00  0.00     0.123 A 
ATOM     16  C   UNL d   1     -42.166-123.549 -54.119  0.00  0.00     0.029 A 
ATOM     17  C   UNL d   1     -42.313-122.784 -53.835  0.00  0.00     0.032 A 
ENDBRANCH   4  13
BRANCH   5  18
ATOM     18  C   UNL d   1     -41.853-122.510 -50.188  0.00  0.00     0.019 A 
ATOM     19  C   UNL d   1     -41.246-122.562 -49.667  0.00  0.00     0.002 A 
ATOM     20  C   UNL d   1     -41.324-122.998 -48.972  0.00  0.00     0.000 A 
ATOM     21  C   UNL d   1     -42.030-123.380 -48.817  0.00  0.00     0.000 A 
ATOM     22  C   UNL d   1     -42.672-123.336 -49.348  0.00  0.00     0.000 A 
ATOM     23  C   UNL d   1     -42.103-123.814 -48.121  0.00  0.00     0.000 C 
ATOM     24  C   UNL d   1     -42.572-122.883 -50.057  0.00  0.00     0.002 A 
ENDBRANCH   5  18
TORSDOF 3
ENDMDL
MODEL 3
REMARK VINA RESULT:       9.1      1.709      2.969
REMARK  3 active torsions:
REMARK  status: ('A' for Active; 'I' for Inactive)
REMARK       I    between atoms: C_4  and  N_1 
REMARK    1  A    between atoms: C_7  and  C_3 
REMARK    2  A    between atoms: C_9  and  C_4 
REMARK    3  A    between atoms: C_8  and  C_5 
ROOT
ATOM      1  N   UNL d   1     -41.546-121.862 -51.723  0.00  0.00    -0.191 N 
ATOM      2  N   UNL d   1     -41.619-122.454 -52.281  0.00  0.00    -0.163 NA
ATOM      3  C   UNL d   1     -41.406-121.149 -52.152  0.00  0.00     0.110 A 
ATOM      4  C   UNL d   1     -41.597-121.934 -50.918  0.00  0.00     0.303 C 
ATOM      5  C   UNL d   1     -41.530-122.135 -53.036  0.00  0.00     0.103 A 
ATOM      6  C   UNL d   1     -41.400-121.339 -52.958  0.00  0.00     0.042 A 
ATOM      7  O   UNL d   1     -41.501-121.224 -50.427  0.00  0.00    -0.263 OA
ENDROOT
BRANCH   3   8
ATOM      8  C   UNL d   1     -41.296-120.400 -51.822  0.00  0.00     0.118 A 
ATOM      9  O   UNL d   1     -41.228-119.706 -52.242  0.00  0.00    -0.304 OA
ATOM     10  C   UNL d   1     -41.123-119.082 -51.694  0.00  0.00     0.123 A 
ATOM     11  C   UNL d   1     -41.130-119.414 -50.939  0.00  0.00     0.029 A 
ATOM     12  C   UNL d   1     -41.239-120.238 -51.031  0.00  0.00     0.028 A 
ENDBRANCH   3   8
BRANCH   4  13
ATOM     13  C   UNL d   1     -41.735-122.650 -50.550  0.00  0.00     0.158 A 
ATOM     14  O   UNL d   1     -42.462-123.009 -50.428  0.00  0.00    -0.300 OA
ATOM     15  C   UNL d   1     -42.350-123.722 -50.038  0.00  0.00     0.123 A 
ATOM     16  C   UNL d   1     -41.541-123.812 -49.914  0.00  0.00     0.029 A 
ATOM     17  C   UNL d   1     -41.154-123.150 -50.230  0.00  0.00     0.032 A 
ENDBRANCH   4  13
BRANCH   5  18
ATOM     18  C   UNL d   1     -41.571-122.578 -53.741  0.00  0.00     0.019 A 
ATOM     19  C   UNL d   1     -41.860-122.219 -54.396  0.00  0.00     0.002 A 
ATOM     20  C   UNL d   1     -41.915-122.627 -55.110  0.00  0.00     0.000 A 
ATOM     21  C   UNL d   1     -41.670-123.406 -55.145  0.00  0.00     0.000 A 
ATOM     22  C   UNL d   1     -41.366-123.795 -54.473  0.00  0.00     0.000 A 
ATOM     23  C   UNL d   1     -41.727-123.809 -55.861  0.00  0.00     0.000 C 
ATOM     24  C   UNL d   1     -41.318-123.359 -53.749  0.00  0.00     0.002 A 
ENDBRANCH   5  18
TORSDOF 3
ENDMDL
