MODEL 1
REMARK VINA RESULT:       5.2      0.000      0.000
REMARK  6 active torsions:
REMARK  status: ('A' for Active; 'I' for Inactive)
REMARK    1  A    between atoms: C_10  and  N_4 
REMARK    2  A    between atoms: C_12  and  C_9 
REMARK    3  A    between atoms: C_15  and  C_10 
REMARK    4  A    between atoms: C_17  and  N_11 
REMARK    5  A    between atoms: N_13  and  C_12 
REMARK    6  A    between atoms: O_30  and  C_27 
ROOT
ATOM      1  C   UNL d   1      56.754   0.654  34.096  0.00  0.00     0.157 A 
ATOM      2  C   UNL d   1      57.566   0.659  33.963  0.00  0.00     0.174 A 
ATOM      3  N   UNL d   1      58.087   0.668  34.607  0.00  0.00    -0.240 N 
ATOM      4  N   UNL d   1      56.372   0.646  33.366  0.00  0.00    -0.283 N 
ATOM      5  N   UNL d   1      56.978   0.665  35.503  0.00  0.00    -0.223 N 
ATOM      6  C   UNL d   1      57.795   0.670  35.373  0.00  0.00     0.343 A 
ATOM      7  C   UNL d   1      56.446   0.657  34.868  0.00  0.00     0.287 A 
ATOM      8  N   UNL d   1      57.690   0.655  33.148  0.00  0.00    -0.207 NA
ATOM      9  C   UNL d   1      56.951   0.647  32.780  0.00  0.00     0.167 A 
ATOM     10  O   UNL d   1      58.317   0.679  36.016  0.00  0.00    -0.245 OA
ATOM     11  O   UNL d   1      55.638   0.651  34.997  0.00  0.00    -0.265 OA
ATOM     12  C   UNL d   1      58.904   0.673  34.477  0.00  0.00     0.105 C 
ATOM     13  C   UNL d   1      56.683   0.668  36.277  0.00  0.00     0.107 C 
ENDROOT
BRANCH   9  14
ATOM     14  C   UNL d   1      56.817   0.640  31.964  0.00  0.00     0.118 C 
BRANCH  14  15
ATOM     15  N   UNL d   1      57.332   0.244  31.467  0.00  0.00    -0.297 N 
ATOM     16  C   UNL d   1      58.048   0.589  31.241  0.00  0.00     0.100 A 
ATOM     17  C   UNL d   1      58.574   0.195  30.740  0.00  0.00     0.100 A 
ATOM     18  N   UNL d   1      58.380  -0.562  30.457  0.00  0.00    -0.301 N 
ATOM     19  C   UNL d   1      57.662  -0.914  30.681  0.00  0.00     0.100 A 
ATOM     20  C   UNL d   1      57.142  -0.509  31.184  0.00  0.00     0.100 A 
BRANCH  18  21
ATOM     21  C   UNL d   1      58.902  -0.959  29.957  0.00  0.00     0.064 A 
ATOM     22  C   UNL d   1      58.757  -1.739  29.758  0.00  0.00     0.020 A 
ATOM     23  C   UNL d   1      59.281  -2.142  29.253  0.00  0.00     0.026 A 
ATOM     24  C   UNL d   1      59.946  -1.752  28.955  0.00  0.00     0.094 A 
ATOM     25  C   UNL d   1      60.084  -0.960  29.164  0.00  0.00     0.026 A 
ATOM     26  C   UNL d   1      59.562  -0.563  29.664  0.00  0.00     0.020 A 
BRANCH  24  27
ATOM     27  O   UNL d   1      60.472  -2.137  28.456  0.00  0.00    -0.328 OA
ATOM     28  C   UNL d   1      61.075  -2.596  28.785  0.00  0.00     0.181 C 
ENDBRANCH  24  27
ENDBRANCH  18  21
ENDBRANCH  14  15
ENDBRANCH   9  14
BRANCH   4  29
ATOM     29  C   UNL d   1      55.553   0.639  33.244  0.00  0.00     0.082 C 
BRANCH  29  30
ATOM     30  C   UNL d   1      55.144  -0.063  33.309  0.00  0.00     0.018 A 
ATOM     31  C   UNL d   1      54.338  -0.039  33.441  0.00  0.00     0.001 A 
ATOM     32  C   UNL d   1      53.936   0.676  33.510  0.00  0.00     0.000 C 
ATOM     33  C   UNL d   1      53.915  -0.754  33.508  0.00  0.00     0.000 A 
ATOM     34  C   UNL d   1      54.306  -1.477  33.441  0.00  0.00     0.000 A 
ATOM     35  C   UNL d   1      55.115  -1.495  33.308  0.00  0.00     0.000 A 
ATOM     36  C   UNL d   1      55.536  -0.790  33.242  0.00  0.00     0.002 A 
ENDBRANCH  29  30
ENDBRANCH   4  29
TORSDOF 6
ENDMDL
