MODEL 1
REMARK VINA RESULT:      63.3      0.000      0.000
REMARK  4 active torsions:
REMARK  status: ('A' for Active; 'I' for Inactive)
REMARK    1  A    between atoms: N_15  and  C_6 
REMARK    2  A    between atoms: N_14  and  C_19 
REMARK    3  A    between atoms: C_18  and  N_15 
REMARK    4  A    between atoms: C_19  and  C_18 
ROOT
ATOM      1  N   UNL d   1      58.413  49.249  51.928  0.00  0.00    -0.183 N 
ATOM      2  C   UNL d   1      58.817  49.401  51.225  0.00  0.00     0.169 A 
ATOM      3  C   UNL d   1      59.627  49.473  51.218  0.00  0.00     0.073 A 
ATOM      4  C   UNL d   1      60.031  49.390  51.920  0.00  0.00     0.185 A 
ATOM      5  N   UNL d   1      59.627  49.237  52.623  0.00  0.00    -0.142 NA
ATOM      6  C   UNL d   1      57.604  49.181  51.914  0.00  0.00     0.218 A 
ATOM      7  N   UNL d   1      58.400  49.482  50.526  0.00  0.00    -0.226 NA
ATOM      8  C   UNL d   1      60.026  49.624  50.523  0.00  0.00     0.007 A 
ATOM      9  N   UNL d   1      60.852  49.459  51.930  0.00  0.00    -0.225 NA
ATOM     10  C   UNL d   1      57.187  49.260  51.226  0.00  0.00     0.071 A 
ATOM     11  C   UNL d   1      60.837  49.695  50.517  0.00  0.00     0.019 A 
ATOM     12  C   UNL d   1      57.591  49.413  50.523  0.00  0.00     0.087 A 
ATOM     13  C   UNL d   1      61.256  49.612  51.227  0.00  0.00     0.083 A 
ATOM     14  C   UNL d   1      59.607  49.705  49.823  0.00  0.00     0.000 C 
ATOM     15  C   UNL d   1      57.155  49.496  49.799  0.00  0.00     0.021 C 
ATOM     16  C   UNL d   1      62.062  49.682  51.229  0.00  0.00     0.021 C 
ENDROOT
BRANCH   6  17
ATOM     17  N   UNL d   1      57.194  49.023  52.644  0.00  0.00    -0.379 NA
BRANCH  17  18
ATOM     18  C   UNL d   1      56.647  48.998  53.276  0.00  0.00     0.182 C 
BRANCH  18  19
ATOM     19  C   UNL d   1      56.556  49.684  53.757  0.00  0.00     0.116 C 
BRANCH  19  20
ATOM     20  N   UNL d   1      56.690  49.618  54.598  0.00  0.00    -0.297 N 
ATOM     21  C   UNL d   1      56.041  49.555  55.114  0.00  0.00     0.107 A 
ATOM     22  C   UNL d   1      56.176  49.488  55.959  0.00  0.00     0.142 A 
ATOM     23  O   UNL d   1      56.959  49.488  56.265  0.00  0.00    -0.300 OA
ATOM     24  C   UNL d   1      57.619  49.553  55.734  0.00  0.00     0.142 A 
ATOM     25  C   UNL d   1      57.488  49.619  54.896  0.00  0.00     0.107 A 
ENDBRANCH  19  20
ENDBRANCH  18  19
ENDBRANCH  17  18
ENDBRANCH   6  17
TORSDOF 4
ENDMDL
