MODEL 1
REMARK VINA RESULT:      31.1      0.000      0.000
REMARK  4 active torsions:
REMARK  status: ('A' for Active; 'I' for Inactive)
REMARK    1  A    between atoms: N_2  and  S_1 
REMARK    2  A    between atoms: C_3  and  S_1 
REMARK    3  A    between atoms: C_14  and  C_4 
REMARK    4  A    between atoms: O_17  and  C_11 
ROOT
ATOM      1  S   UNL d   1     -51.272  25.385  33.525  0.00  0.00     0.274 S 
ATOM      2  O   UNL d   1     -51.732  26.001  33.806  0.00  0.00    -0.199 OA
ATOM      3  O   UNL d   1     -50.487  25.517  33.306  0.00  0.00    -0.199 OA
ENDROOT
BRANCH   1   4
ATOM      4  N   UNL d   1     -51.595  24.633  33.461  0.00  0.00    -0.213 N 
ATOM      5  C   UNL d   1     -51.107  23.977  33.429  0.00  0.00     0.157 A 
ATOM      6  N   UNL d   1     -51.442  23.198  33.362  0.00  0.00    -0.226 NA
ATOM      7  C   UNL d   1     -52.740  23.779  33.364  0.00  0.00     0.101 A 
ATOM      8  C   UNL d   1     -52.419  24.538  33.428  0.00  0.00     0.112 A 
ATOM      9  C   UNL d   1     -53.570  23.699  33.332  0.00  0.00     0.022 C 
BRANCH   5  10
ATOM     10  C   UNL d   1     -50.284  24.069  33.461  0.00  0.00     0.038 C 
ATOM     11  C   UNL d   1     -49.815  23.396  33.483  0.00  0.00     0.003 C 
ENDBRANCH   5  10
ENDBRANCH   1   4
BRANCH   1  12
ATOM     12  C   UNL d   1     -50.955  26.136  33.590  0.00  0.00     0.127 A 
ATOM     13  C   UNL d   1     -50.154  26.258  33.487  0.00  0.00     0.022 A 
ATOM     14  C   UNL d   1     -49.830  27.005  33.551  0.00  0.00     0.035 A 
ATOM     15 BR   UNL d   1     -49.022  27.111  33.445  0.00  0.00    -0.049 Br
ATOM     16  C   UNL d   1     -50.317  27.649  33.723  0.00  0.00     0.009 A 
ATOM     17  C   UNL d   1     -51.127  27.531  33.828  0.00  0.00     0.025 A 
ATOM     18  C   UNL d   1     -51.444  26.779  33.762  0.00  0.00     0.106 A 
BRANCH  18  19
ATOM     19  O   UNL d   1     -52.257  26.662  33.868  0.00  0.00    -0.327 OA
ATOM     20  C   UNL d   1     -52.796  26.959  33.319  0.00  0.00     0.181 C 
ENDBRANCH  18  19
ENDBRANCH   1  12
TORSDOF 4
ENDMDL
