MODEL 1
REMARK VINA RESULT:      40.6      0.000      0.000
REMARK  4 active torsions:
REMARK  status: ('A' for Active; 'I' for Inactive)
REMARK    1  A    between atoms: S_2  and  N_1 
REMARK    2  A    between atoms: N_6  and  S_2 
REMARK    3  A    between atoms: C_10  and  C_3 
REMARK    4  A    between atoms: C_14  and  C_10 
ROOT
ATOM      1  N   UNL d   1      13.764  13.196  -2.876  0.00  0.00    -0.201 N 
ATOM      2  C   UNL d   1      13.816  14.012  -3.062  0.00  0.00     0.158 A 
ATOM      3  N   UNL d   1      13.515  14.114  -3.829  0.00  0.00    -0.226 NA
ATOM      4  C   UNL d   1      13.435  12.814  -3.525  0.00  0.00     0.095 A 
ATOM      5  C   UNL d   1      13.282  13.376  -4.111  0.00  0.00     0.100 A 
ATOM      6  C   UNL d   1      13.258  12.020  -3.652  0.00  0.00     0.020 A 
ATOM      7  C   UNL d   1      12.949  13.136  -4.827  0.00  0.00     0.021 A 
ATOM      8  C   UNL d   1      12.925  11.779  -4.367  0.00  0.00     0.002 A 
ATOM      9  C   UNL d   1      12.769  12.339  -4.958  0.00  0.00     0.002 A 
ENDROOT
BRANCH   1  10
ATOM     10  S   UNL d   1      13.998  12.848  -2.176  0.00  0.00     0.338 S 
ATOM     11  O   UNL d   1      14.765  13.128  -2.284  0.00  0.00    -0.181 OA
ATOM     12  O   UNL d   1      13.232  12.567  -2.065  0.00  0.00    -0.181 OA
BRANCH  10  13
ATOM     13  N   UNL d   1      14.222  12.493  -1.468  0.00  0.00    -0.212 N 
ATOM     14  C   UNL d   1      15.015  12.473  -1.250  0.00  0.00     0.120 A 
ATOM     15  C   UNL d   1      15.238  12.113  -0.534  0.00  0.00     0.142 A 
ATOM     16  O   UNL d   1      14.659  11.779  -0.048  0.00  0.00    -0.300 OA
ATOM     17  C   UNL d   1      13.874  11.804  -0.272  0.00  0.00     0.142 A 
ATOM     18  C   UNL d   1      13.651  12.157  -0.977  0.00  0.00     0.120 A 
ENDBRANCH  10  13
ENDBRANCH   1  10
BRANCH   2  19
ATOM     19  C   UNL d   1      14.114  14.604  -2.568  0.00  0.00     0.038 C 
BRANCH  19  20
ATOM     20  C   UNL d   1      14.378  15.310  -2.896  0.00  0.00     0.003 A 
ATOM     21  C   UNL d   1      14.720  15.884  -2.407  0.00  0.00     0.000 A 
ATOM     22  C   UNL d   1      14.985  16.589  -2.734  0.00  0.00     0.000 A 
ATOM     23  C   UNL d   1      14.912  16.729  -3.537  0.00  0.00     0.000 A 
ATOM     24  C   UNL d   1      14.569  16.152  -4.028  0.00  0.00     0.000 A 
ATOM     25  C   UNL d   1      14.303  15.443  -3.701  0.00  0.00     0.000 A 
ENDBRANCH  19  20
ENDBRANCH   2  19
TORSDOF 4
ENDMDL
MODEL 2
REMARK VINA RESULT:      41.9      1.300      3.702
REMARK  4 active torsions:
REMARK  status: ('A' for Active; 'I' for Inactive)
REMARK    1  A    between atoms: S_2  and  N_1 
REMARK    2  A    between atoms: N_6  and  S_2 
REMARK    3  A    between atoms: C_10  and  C_3 
REMARK    4  A    between atoms: C_14  and  C_10 
ROOT
ATOM      1  N   UNL d   1      14.497  13.696  -1.760  0.00  0.00    -0.201 N 
ATOM      2  C   UNL d   1      14.056  13.256  -2.322  0.00  0.00     0.158 A 
ATOM      3  N   UNL d   1      14.057  12.464  -2.076  0.00  0.00    -0.226 NA
ATOM      4  C   UNL d   1      14.759  13.171  -1.185  0.00  0.00     0.095 A 
ATOM      5  C   UNL d   1      14.490  12.414  -1.377  0.00  0.00     0.100 A 
ATOM      6  C   UNL d   1      15.212  13.294  -0.508  0.00  0.00     0.020 A 
ATOM      7  C   UNL d   1      14.678  11.779  -0.885  0.00  0.00     0.021 A 
ATOM      8  C   UNL d   1      15.400  12.660  -0.015  0.00  0.00     0.002 A 
ATOM      9  C   UNL d   1      15.132  11.898  -0.204  0.00  0.00     0.002 A 
ENDROOT
BRANCH   1  10
ATOM     10  S   UNL d   1      14.638  14.500  -1.785  0.00  0.00     0.338 S 
ATOM     11  O   UNL d   1      15.054  14.414  -2.489  0.00  0.00    -0.181 OA
ATOM     12  O   UNL d   1      14.222  14.589  -1.079  0.00  0.00    -0.181 OA
BRANCH  10  13
ATOM     13  N   UNL d   1      14.774  15.311  -1.798  0.00  0.00    -0.212 N 
ATOM     14  C   UNL d   1      14.662  15.737  -2.493  0.00  0.00     0.120 A 
ATOM     15  C   UNL d   1      14.800  16.557  -2.502  0.00  0.00     0.142 A 
ATOM     16  O   UNL d   1      15.048  16.936  -1.812  0.00  0.00    -0.300 OA
ATOM     17  C   UNL d   1      15.157  16.506  -1.126  0.00  0.00     0.142 A 
ATOM     18  C   UNL d   1      15.022  15.699  -1.113  0.00  0.00     0.120 A 
ENDBRANCH  10  13
ENDBRANCH   1  10
BRANCH   2  19
ATOM     19  C   UNL d   1      13.688  13.562  -2.997  0.00  0.00     0.038 C 
BRANCH  19  20
ATOM     20  C   UNL d   1      13.403  13.046  -3.571  0.00  0.00     0.003 A 
ATOM     21  C   UNL d   1      13.129  12.299  -3.346  0.00  0.00     0.000 A 
ATOM     22  C   UNL d   1      12.845  11.783  -3.919  0.00  0.00     0.000 A 
ATOM     23  C   UNL d   1      12.830  12.003  -4.706  0.00  0.00     0.000 A 
ATOM     24  C   UNL d   1      13.105  12.754  -4.932  0.00  0.00     0.000 A 
ATOM     25  C   UNL d   1      13.392  13.274  -4.358  0.00  0.00     0.000 A 
ENDBRANCH  19  20
ENDBRANCH   2  19
TORSDOF 4
ENDMDL
