MODEL 1
REMARK VINA RESULT:     110.7      0.000      0.000
REMARK  3 active torsions:
REMARK  status: ('A' for Active; 'I' for Inactive)
REMARK       I    between atoms: C_3  and  N_1 
REMARK    1  A    between atoms: C_9  and  C_3 
REMARK    2  A    between atoms: C_15  and  C_4 
REMARK    3  A    between atoms: N_5  and  C_8 
ROOT
ATOM      1  N   UNL d   1     -50.055  25.998  33.879  0.00  0.00    -0.269 N 
ATOM      2  C   UNL d   1     -50.628  24.798  33.652  0.00  0.00     0.036 A 
ATOM      3  C   UNL d   1     -50.245  26.779  34.075  0.00  0.00     0.265 C 
ATOM      4  C   UNL d   1     -50.676  25.473  33.812  0.00  0.00     0.069 A 
ATOM      5  C   UNL d   1     -49.996  24.276  33.478  0.00  0.00     0.086 A 
ATOM      6  N   UNL d   1     -49.279  24.361  33.435  0.00  0.00    -0.207 NA
ATOM      7  C   UNL d   1     -48.872  25.058  33.560  0.00  0.00     0.297 A 
ATOM      8  C   UNL d   1     -49.227  25.816  33.765  0.00  0.00     0.146 A 
ATOM      9  C   UNL d   1     -51.409  24.503  33.652  0.00  0.00     0.033 A 
ATOM     10  O   UNL d   1     -51.039  27.003  34.195  0.00  0.00    -0.267 OA
ATOM     11  O   UNL d   1     -48.045  25.033  33.483  0.00  0.00    -0.264 OA
ATOM     12  C   UNL d   1     -50.149  23.475  33.307  0.00  0.00     0.022 A 
ATOM     13  C   UNL d   1     -51.568  23.703  33.482  0.00  0.00     0.140 A 
ATOM     14  C   UNL d   1     -50.929  23.188  33.308  0.00  0.00     0.031 A 
ATOM     15  F   UNL d   1     -52.337  23.428  33.485  0.00  0.00    -0.204 F 
ENDROOT
BRANCH   3  16
ATOM     16  C   UNL d   1     -49.651  27.342  34.153  0.00  0.00     0.058 A 
ATOM     17  C   UNL d   1     -49.427  27.614  34.899  0.00  0.00     0.028 A 
ATOM     18  C   UNL d   1     -48.839  28.170  34.963  0.00  0.00     0.127 A 
ATOM     19  C   UNL d   1     -48.463  28.467  34.291  0.00  0.00     0.022 A 
ATOM     20  C   UNL d   1     -48.681  28.202  33.554  0.00  0.00     0.002 A 
ATOM     21  C   UNL d   1     -47.867  29.032  34.372  0.00  0.00     0.002 C 
ATOM     22  C   UNL d   1     -49.277  27.637  33.484  0.00  0.00     0.005 A 
BRANCH  18  23
ATOM     23  N   UNL d   1     -48.615  28.442  35.709  0.00  0.00    -0.114 N 
ATOM     24  O   UNL d   1     -47.986  28.952  35.779  0.00  0.00    -0.532 OA
ATOM     25  O   UNL d   1     -49.029  28.195  36.373  0.00  0.00    -0.532 OA
ENDBRANCH  18  23
ENDBRANCH   3  16
BRANCH   4  26
ATOM     26  C   UNL d   1     -51.427  25.769  33.945  0.00  0.00     0.016 A 
ATOM     27  C   UNL d   1     -51.891  26.023  33.306  0.00  0.00     0.004 A 
ATOM     28  C   UNL d   1     -52.647  26.320  33.451  0.00  0.00     0.030 A 
ATOM     29  C   UNL d   1     -52.938  26.366  34.202  0.00  0.00     0.140 A 
ATOM     30  C   UNL d   1     -52.471  26.112  34.835  0.00  0.00     0.030 A 
ATOM     31  F   UNL d   1     -53.691  26.662  34.341  0.00  0.00    -0.204 F 
ATOM     32  C   UNL d   1     -51.721  25.815  34.711  0.00  0.00     0.004 A 
ENDBRANCH   4  26
TORSDOF 3
ENDMDL
