MODEL 1
REMARK VINA RESULT:      79.8      0.000      0.000
REMARK  7 active torsions:
REMARK  status: ('A' for Active; 'I' for Inactive)
REMARK    1  A    between atoms: C_7  and  C_1 
REMARK    2  A    between atoms: C_9  and  N_2 
REMARK    3  A    between atoms: C_15  and  C_7 
REMARK    4  A    between atoms: C_8  and  C_9 
REMARK       I    between atoms: N_14  and  C_8 
REMARK    5  A    between atoms: C_20  and  N_14 
REMARK    6  A    between atoms: C_33  and  C_27 
REMARK    7  A    between atoms: C_34  and  C_32 
ROOT
ATOM      1  C   UNL d   1      13.854  15.348  -4.106  0.00  0.00     0.095 A 
ATOM      2  N   UNL d   1      14.817  16.355  -4.442  0.00  0.00    -0.300 N 
ATOM      3  C   UNL d   1      13.974  15.531  -3.281  0.00  0.00     0.202 A 
ATOM      4  C   UNL d   1      14.271  15.756  -4.680  0.00  0.00     0.087 A 
ATOM      5  C   UNL d   1      14.517  16.125  -3.072  0.00  0.00     0.055 A 
ATOM      6  C   UNL d   1      14.940  16.539  -3.639  0.00  0.00     0.067 A 
ATOM      7  C   UNL d   1      15.476  17.127  -3.402  0.00  0.00     0.018 A 
ATOM      8  C   UNL d   1      14.647  16.316  -2.260  0.00  0.00     0.005 A 
ATOM      9  O   UNL d   1      13.562  15.127  -2.713  0.00  0.00    -0.286 OA
ATOM     10  C   UNL d   1      15.181  16.902  -2.039  0.00  0.00     0.000 A 
ATOM     11  C   UNL d   1      15.596  17.308  -2.611  0.00  0.00     0.002 A 
ENDROOT
BRANCH   2  12
ATOM     12  C   UNL d   1      15.231  16.761  -5.013  0.00  0.00     0.144 C 
BRANCH  12  13
ATOM     13  C   UNL d   1      14.910  17.441  -5.352  0.00  0.00     0.297 C 
ATOM     14  N   UNL d   1      15.194  18.179  -5.139  0.00  0.00    -0.207 NA
ATOM     15  O   UNL d   1      14.302  17.376  -5.906  0.00  0.00    -0.264 OA
BRANCH  14  16
ATOM     16  C   UNL d   1      14.872  18.858  -5.478  0.00  0.00     0.087 A 
ATOM     17  C   UNL d   1      15.149  19.590  -5.250  0.00  0.00     0.045 A 
ATOM     18  C   UNL d   1      14.830  20.270  -5.586  0.00  0.00     0.121 A 
ATOM     19  O   UNL d   1      15.005  21.077  -5.458  0.00  0.00    -0.299 OA
ATOM     20  C   UNL d   1      14.232  20.206  -6.153  0.00  0.00     0.119 A 
ATOM     21  C   UNL d   1      14.506  21.525  -5.956  0.00  0.00     0.304 A 
ATOM     22  O   UNL d   1      14.025  20.985  -6.387  0.00  0.00    -0.300 OA
ATOM     23  C   UNL d   1      13.955  19.475  -6.382  0.00  0.00     0.028 A 
ATOM     24  C   UNL d   1      14.277  18.795  -6.043  0.00  0.00     0.021 A 
ENDBRANCH  14  16
ENDBRANCH  12  13
ENDBRANCH   2  12
BRANCH   1  25
ATOM     25  C   UNL d   1      13.320  14.763  -4.326  0.00  0.00     0.200 C 
ATOM     26  O   UNL d   1      12.773  14.912  -4.916  0.00  0.00    -0.286 OA
BRANCH  25  27
ATOM     27  C   UNL d   1      13.332  14.027  -3.957  0.00  0.00     0.039 A 
ATOM     28  C   UNL d   1      13.349  13.966  -3.126  0.00  0.00     0.003 A 
ATOM     29  C   UNL d   1      13.362  13.224  -2.747  0.00  0.00     0.000 A 
ATOM     30  C   UNL d   1      13.357  12.542  -3.199  0.00  0.00     0.000 A 
ATOM     31  C   UNL d   1      13.340  12.617  -4.036  0.00  0.00     0.000 A 
ATOM     32  C   UNL d   1      13.327  13.355  -4.418  0.00  0.00     0.003 A 
BRANCH  30  33
ATOM     33  C   UNL d   1      13.370  11.799  -2.819  0.00  0.00     0.000 C 
ATOM     34  C   UNL d   1      13.444  11.779  -2.009  0.00  0.00     0.000 C 
ENDBRANCH  30  33
ENDBRANCH  25  27
ENDBRANCH   1  25
BRANCH  10  35
ATOM     35  C   UNL d   1      15.293  17.074  -1.236  0.00  0.00     0.000 C 
ATOM     36  C   UNL d   1      15.635  16.502  -0.732  0.00  0.00     0.000 C 
ENDBRANCH  10  35
TORSDOF 7
ENDMDL
MODEL 2
REMARK VINA RESULT:      81.0      1.551      4.576
REMARK  7 active torsions:
REMARK  status: ('A' for Active; 'I' for Inactive)
REMARK    1  A    between atoms: C_7  and  C_1 
REMARK    2  A    between atoms: C_9  and  N_2 
REMARK    3  A    between atoms: C_15  and  C_7 
REMARK    4  A    between atoms: C_8  and  C_9 
REMARK       I    between atoms: N_14  and  C_8 
REMARK    5  A    between atoms: C_20  and  N_14 
REMARK    6  A    between atoms: C_33  and  C_27 
REMARK    7  A    between atoms: C_34  and  C_32 
ROOT
ATOM      1  C   UNL d   1      14.703  16.229  -5.029  0.00  0.00     0.095 A 
ATOM      2  N   UNL d   1      14.703  17.241  -4.014  0.00  0.00    -0.300 N 
ATOM      3  C   UNL d   1      14.535  16.833  -5.608  0.00  0.00     0.202 A 
ATOM      4  C   UNL d   1      14.786  16.431  -4.240  0.00  0.00     0.087 A 
ATOM      5  C   UNL d   1      14.458  17.623  -5.360  0.00  0.00     0.055 A 
ATOM      6  C   UNL d   1      14.539  17.836  -4.573  0.00  0.00     0.067 A 
ATOM      7  C   UNL d   1      14.457  18.632  -4.353  0.00  0.00     0.018 A 
ATOM      8  C   UNL d   1      14.292  18.230  -5.922  0.00  0.00     0.005 A 
ATOM      9  O   UNL d   1      14.453  16.633  -6.389  0.00  0.00    -0.286 OA
ATOM     10  C   UNL d   1      14.213  19.016  -5.691  0.00  0.00     0.000 A 
ATOM     11  C   UNL d   1      14.295  19.217  -4.905  0.00  0.00     0.002 A 
ENDROOT
BRANCH   2  12
ATOM     12  C   UNL d   1      14.785  17.442  -3.229  0.00  0.00     0.144 C 
BRANCH  12  13
ATOM     13  C   UNL d   1      15.074  16.889  -2.690  0.00  0.00     0.297 C 
ATOM     14  N   UNL d   1      14.584  16.594  -2.103  0.00  0.00    -0.207 NA
ATOM     15  O   UNL d   1      15.856  16.634  -2.741  0.00  0.00    -0.264 OA
BRANCH  14  16
ATOM     16  C   UNL d   1      14.873  16.041  -1.563  0.00  0.00     0.087 A 
ATOM     17  C   UNL d   1      14.566  15.287  -1.560  0.00  0.00     0.045 A 
ATOM     18  C   UNL d   1      14.852  14.733  -1.022  0.00  0.00     0.121 A 
ATOM     19  O   UNL d   1      14.644  13.933  -0.897  0.00  0.00    -0.299 OA
ATOM     20  C   UNL d   1      15.448  14.946  -0.490  0.00  0.00     0.119 A 
ATOM     21  C   UNL d   1      15.119  13.643  -0.275  0.00  0.00     0.304 A 
ATOM     22  O   UNL d   1      15.619  14.271  -0.022  0.00  0.00    -0.300 OA
ATOM     23  C   UNL d   1      15.755  15.700  -0.494  0.00  0.00     0.028 A 
ATOM     24  C   UNL d   1      15.466  16.253  -1.034  0.00  0.00     0.021 A 
ENDBRANCH  14  16
ENDBRANCH  12  13
ENDBRANCH   2  12
BRANCH   1  25
ATOM     25  C   UNL d   1      14.782  15.444  -5.260  0.00  0.00     0.200 C 
ATOM     26  O   UNL d   1      15.359  15.235  -5.801  0.00  0.00    -0.286 OA
BRANCH  25  27
ATOM     27  C   UNL d   1      14.284  14.866  -4.951  0.00  0.00     0.039 A 
ATOM     28  C   UNL d   1      14.565  14.096  -4.800  0.00  0.00     0.003 A 
ATOM     29  C   UNL d   1      14.065  13.507  -4.486  0.00  0.00     0.000 A 
ATOM     30  C   UNL d   1      13.283  13.689  -4.324  0.00  0.00     0.000 A 
ATOM     31  C   UNL d   1      13.013  14.469  -4.481  0.00  0.00     0.000 A 
ATOM     32  C   UNL d   1      13.508  15.058  -4.793  0.00  0.00     0.003 A 
BRANCH  30  33
ATOM     33  C   UNL d   1      12.783  13.099  -4.010  0.00  0.00     0.000 C 
ATOM     34  C   UNL d   1      12.891  12.330  -4.253  0.00  0.00     0.000 C 
ENDBRANCH  30  33
ENDBRANCH  25  27
ENDBRANCH   1  25
BRANCH  10  35
ATOM     35  C   UNL d   1      14.050  19.597  -6.259  0.00  0.00     0.000 C 
ATOM     36  C   UNL d   1      13.575  20.254  -6.058  0.00  0.00     0.000 C 
ENDBRANCH  10  35
TORSDOF 7
ENDMDL
