MODEL 1
REMARK VINA RESULT:       8.5      0.000      0.000
REMARK  1 active torsions:
REMARK  status: ('A' for Active; 'I' for Inactive)
REMARK    1  A    between atoms: C_11  and  C_2 
ROOT
ATOM      1  C   UNL d   1     -42.172-123.160 -50.741  0.00  0.00     0.026 A 
ATOM      2  C   UNL d   1     -42.523-122.941 -50.043  0.00  0.00     0.007 A 
ATOM      3  C   UNL d   1     -41.480-123.592 -50.737  0.00  0.00     0.103 A 
ATOM      4  C   UNL d   1     -42.188-123.151 -49.326  0.00  0.00     0.026 A 
ATOM      5  C   UNL d   1     -42.516-122.944 -51.461  0.00  0.00     0.047 A 
ATOM      6  C   UNL d   1     -41.492-123.586 -49.322  0.00  0.00     0.103 A 
ATOM      7  O   UNL d   1     -41.132-123.810 -50.035  0.00  0.00    -0.307 OA
ATOM      8  C   UNL d   1     -41.123-123.814 -51.442  0.00  0.00     0.070 A 
ATOM      9  C   UNL d   1     -42.174-123.157 -52.174  0.00  0.00     0.234 A 
ATOM     10  C   UNL d   1     -41.473-123.595 -52.173  0.00  0.00     0.236 A 
ATOM     11  C   UNL d   1     -42.529-122.938 -48.610  0.00  0.00     0.047 A 
ATOM     12  C   UNL d   1     -41.136-123.809 -48.598  0.00  0.00     0.070 A 
ATOM     13  C   UNL d   1     -42.185-123.154 -47.878  0.00  0.00     0.234 A 
ATOM     14  C   UNL d   1     -41.484-123.593 -47.885  0.00  0.00     0.236 A 
ATOM     15  O   UNL d   1     -41.137-123.804 -52.890  0.00  0.00    -0.283 OA
ATOM     16  O   UNL d   1     -42.531-122.933 -52.876  0.00  0.00    -0.283 OA
ATOM     17  O   UNL d   1     -42.530-122.939 -47.169  0.00  0.00    -0.283 OA
ATOM     18  O   UNL d   1     -41.127-123.816 -47.176  0.00  0.00    -0.283 OA
ENDROOT
BRANCH   2  19
ATOM     19  C   UNL d   1     -43.218-122.507 -50.047  0.00  0.00     0.039 A 
ATOM     20  C   UNL d   1     -43.954-122.902 -50.015  0.00  0.00     0.196 A 
ATOM     21  O   UNL d   1     -43.992-123.711 -49.980  0.00  0.00    -0.287 OA
ATOM     22  C   UNL d   1     -44.655-122.464 -50.019  0.00  0.00     0.042 A 
ATOM     23  C   UNL d   1     -44.628-121.626 -50.056  0.00  0.00     0.003 A 
ATOM     24  C   UNL d   1     -43.894-121.247 -50.087  0.00  0.00     0.000 A 
ATOM     25  C   UNL d   1     -43.199-121.694 -50.082  0.00  0.00     0.003 A 
ENDBRANCH   2  19
TORSDOF 1
ENDMDL
MODEL 2
REMARK VINA RESULT:       9.1      0.108      3.130
REMARK  1 active torsions:
REMARK  status: ('A' for Active; 'I' for Inactive)
REMARK    1  A    between atoms: C_11  and  C_2 
ROOT
ATOM      1  C   UNL d   1     -42.185-123.156 -49.414  0.00  0.00     0.026 A 
ATOM      2  C   UNL d   1     -42.540-122.945 -50.112  0.00  0.00     0.007 A 
ATOM      3  C   UNL d   1     -41.484-123.573 -49.417  0.00  0.00     0.103 A 
ATOM      4  C   UNL d   1     -42.200-123.147 -50.829  0.00  0.00     0.026 A 
ATOM      5  C   UNL d   1     -42.535-122.948 -48.694  0.00  0.00     0.047 A 
ATOM      6  C   UNL d   1     -41.495-123.566 -50.832  0.00  0.00     0.103 A 
ATOM      7  O   UNL d   1     -41.130-123.783 -50.119  0.00  0.00    -0.307 OA
ATOM      8  C   UNL d   1     -41.123-123.788 -48.712  0.00  0.00     0.070 A 
ATOM      9  C   UNL d   1     -42.189-123.154 -47.981  0.00  0.00     0.234 A 
ATOM     10  C   UNL d   1     -41.478-123.577 -47.981  0.00  0.00     0.236 A 
ATOM     11  C   UNL d   1     -42.545-122.941 -51.545  0.00  0.00     0.047 A 
ATOM     12  C   UNL d   1     -41.133-123.781 -51.556  0.00  0.00     0.070 A 
ATOM     13  C   UNL d   1     -42.196-123.148 -52.277  0.00  0.00     0.234 A 
ATOM     14  C   UNL d   1     -41.485-123.571 -52.269  0.00  0.00     0.236 A 
ATOM     15  O   UNL d   1     -41.139-123.779 -47.264  0.00  0.00    -0.283 OA
ATOM     16  O   UNL d   1     -42.551-122.939 -47.279  0.00  0.00    -0.283 OA
ATOM     17  O   UNL d   1     -42.545-122.941 -52.986  0.00  0.00    -0.283 OA
ATOM     18  O   UNL d   1     -41.123-123.786 -52.978  0.00  0.00    -0.283 OA
ENDROOT
BRANCH   2  19
ATOM     19  C   UNL d   1     -43.245-122.525 -50.108  0.00  0.00     0.039 A 
ATOM     20  C   UNL d   1     -43.963-122.924 -49.954  0.00  0.00     0.196 A 
ATOM     21  O   UNL d   1     -43.975-123.721 -49.808  0.00  0.00    -0.287 OA
ATOM     22  C   UNL d   1     -44.674-122.501 -49.950  0.00  0.00     0.042 A 
ATOM     23  C   UNL d   1     -44.673-121.676 -50.100  0.00  0.00     0.003 A 
ATOM     24  C   UNL d   1     -43.956-121.293 -50.251  0.00  0.00     0.000 A 
ATOM     25  C   UNL d   1     -43.251-121.725 -50.253  0.00  0.00     0.003 A 
ENDBRANCH   2  19
TORSDOF 1
ENDMDL
MODEL 3
REMARK VINA RESULT:      10.8      2.270      4.510
REMARK  1 active torsions:
REMARK  status: ('A' for Active; 'I' for Inactive)
REMARK    1  A    between atoms: C_11  and  C_2 
ROOT
ATOM      1  C   UNL d   1     -41.592-121.186 -52.065  0.00  0.00     0.026 A 
ATOM      2  C   UNL d   1     -41.746-121.946 -52.304  0.00  0.00     0.007 A 
ATOM      3  C   UNL d   1     -41.569-120.579 -52.610  0.00  0.00     0.103 A 
ATOM      4  C   UNL d   1     -41.878-122.114 -53.094  0.00  0.00     0.026 A 
ATOM      5  C   UNL d   1     -41.460-121.024 -51.265  0.00  0.00     0.047 A 
ATOM      6  C   UNL d   1     -41.854-121.504 -53.642  0.00  0.00     0.103 A 
ATOM      7  O   UNL d   1     -41.698-120.726 -53.400  0.00  0.00    -0.307 OA
ATOM      8  C   UNL d   1     -41.414-119.809 -52.371  0.00  0.00     0.070 A 
ATOM      9  C   UNL d   1     -41.304-120.262 -51.008  0.00  0.00     0.234 A 
ATOM     10  C   UNL d   1     -41.279-119.645 -51.558  0.00  0.00     0.236 A 
ATOM     11  C   UNL d   1     -42.035-122.877 -53.354  0.00  0.00     0.047 A 
ATOM     12  C   UNL d   1     -41.988-121.658 -54.454  0.00  0.00     0.070 A 
ATOM     13  C   UNL d   1     -42.170-123.047 -54.162  0.00  0.00     0.234 A 
ATOM     14  C   UNL d   1     -42.144-122.425 -54.707  0.00  0.00     0.236 A 
ATOM     15  O   UNL d   1     -41.123-118.886 -51.293  0.00  0.00    -0.283 OA
ATOM     16  O   UNL d   1     -41.175-120.122 -50.212  0.00  0.00    -0.283 OA
ATOM     17  O   UNL d   1     -42.325-123.809 -54.414  0.00  0.00    -0.283 OA
ATOM     18  O   UNL d   1     -42.274-122.569 -55.508  0.00  0.00    -0.283 OA
ENDROOT
BRANCH   2  19
ATOM     19  C   UNL d   1     -41.769-122.555 -51.756  0.00  0.00     0.039 A 
ATOM     20  C   UNL d   1     -42.460-122.678 -51.303  0.00  0.00     0.196 A 
ATOM     21  O   UNL d   1     -43.110-122.202 -51.395  0.00  0.00    -0.287 OA
ATOM     22  C   UNL d   1     -42.484-123.293 -50.750  0.00  0.00     0.042 A 
ATOM     23  C   UNL d   1     -41.817-123.791 -50.646  0.00  0.00     0.003 A 
ATOM     24  C   UNL d   1     -41.140-123.660 -51.101  0.00  0.00     0.000 A 
ATOM     25  C   UNL d   1     -41.126-123.042 -51.651  0.00  0.00     0.003 A 
ENDBRANCH   2  19
TORSDOF 1
ENDMDL
