MODEL 1
REMARK VINA RESULT:      -4.2      0.000      0.000
REMARK  5 active torsions:
REMARK  status: ('A' for Active; 'I' for Inactive)
REMARK    1  A    between atoms: C_2  and  C_1 
REMARK    2  A    between atoms: C_16  and  C_8 
REMARK    3  A    between atoms: N_15  and  C_13 
REMARK    4  A    between atoms: C_19  and  N_15 
REMARK    5  A    between atoms: C_20  and  N_15 
ROOT
ATOM      1  C   UNL d   1      56.611  -0.201  32.096  0.00  0.00     0.106 A 
ATOM      2  C   UNL d   1      56.644  -1.005  31.927  0.00  0.00     0.304 A 
ATOM      3  C   UNL d   1      57.062   0.330  31.641  0.00  0.00     0.011 A 
ATOM      4  O   UNL d   1      57.128  -1.308  31.297  0.00  0.00    -0.273 OA
ATOM      5  C   UNL d   1      57.570  -0.743  30.858  0.00  0.00     0.105 A 
ATOM      6  C   UNL d   1      57.538   0.061  31.027  0.00  0.00     0.023 A 
ATOM      7  C   UNL d   1      58.054  -1.046  30.228  0.00  0.00     0.042 A 
ATOM      8  C   UNL d   1      58.500  -0.480  29.785  0.00  0.00     0.066 A 
ATOM      9  O   UNL d   1      56.176  -1.551  32.399  0.00  0.00    -0.259 OA
ATOM     10  C   UNL d   1      57.988   0.592  30.572  0.00  0.00     0.004 A 
ATOM     11  C   UNL d   1      58.468   0.324  29.954  0.00  0.00     0.018 A 
ENDROOT
BRANCH   1  12
ATOM     12  C   UNL d   1      56.128   0.065  32.719  0.00  0.00     0.210 A 
ATOM     13  O   UNL d   1      56.255   0.015  33.539  0.00  0.00    -0.268 OA
ATOM     14  C   UNL d   1      55.605   0.365  33.906  0.00  0.00     0.204 A 
ATOM     15  N   UNL d   1      55.084   0.628  33.330  0.00  0.00    -0.121 NA
ATOM     16  N   UNL d   1      55.399   0.448  32.590  0.00  0.00    -0.121 NA
BRANCH  14  17
ATOM     17  C   UNL d   1      55.436   0.470  34.703  0.00  0.00     0.043 A 
ATOM     18  C   UNL d   1      54.655   0.530  34.952  0.00  0.00     0.004 A 
ATOM     19  C   UNL d   1      54.491   0.635  35.750  0.00  0.00     0.000 A 
ATOM     20  C   UNL d   1      55.099   0.682  36.309  0.00  0.00     0.000 A 
ATOM     21  C   UNL d   1      55.874   0.622  36.060  0.00  0.00     0.000 A 
ATOM     22  C   UNL d   1      56.041   0.515  35.251  0.00  0.00     0.004 A 
ENDBRANCH  14  17
ENDBRANCH   1  12
BRANCH   8  23
ATOM     23  N   UNL d   1      59.014  -0.748  29.125  0.00  0.00    -0.304 N 
BRANCH  23  24
ATOM     24  C   UNL d   1      59.820  -0.513  29.136  0.00  0.00     0.080 C 
ATOM     25  C   UNL d   1      60.196  -0.201  28.475  0.00  0.00     0.021 C 
ENDBRANCH  23  24
BRANCH  23  26
ATOM     26  C   UNL d   1      58.710  -1.213  28.519  0.00  0.00     0.080 C 
ATOM     27  C   UNL d   1      58.936  -2.015  28.458  0.00  0.00     0.021 C 
ENDBRANCH  23  26
ENDBRANCH   8  23
TORSDOF 5
ENDMDL
MODEL 2
REMARK VINA RESULT:      -2.2      0.788      1.193
REMARK  5 active torsions:
REMARK  status: ('A' for Active; 'I' for Inactive)
REMARK    1  A    between atoms: C_2  and  C_1 
REMARK    2  A    between atoms: C_16  and  C_8 
REMARK    3  A    between atoms: N_15  and  C_13 
REMARK    4  A    between atoms: C_19  and  N_15 
REMARK    5  A    between atoms: C_20  and  N_15 
ROOT
ATOM      1  C   UNL d   1      56.571  -0.341  32.312  0.00  0.00     0.106 A 
ATOM      2  C   UNL d   1      56.551  -1.153  32.184  0.00  0.00     0.304 A 
ATOM      3  C   UNL d   1      57.021   0.141  31.804  0.00  0.00     0.011 A 
ATOM      4  O   UNL d   1      56.980  -1.513  31.544  0.00  0.00    -0.273 OA
ATOM      5  C   UNL d   1      57.425  -0.995  31.051  0.00  0.00     0.105 A 
ATOM      6  C   UNL d   1      57.444  -0.184  31.179  0.00  0.00     0.023 A 
ATOM      7  C   UNL d   1      57.854  -1.356  30.411  0.00  0.00     0.042 A 
ATOM      8  C   UNL d   1      58.301  -0.838  29.915  0.00  0.00     0.066 A 
ATOM      9  O   UNL d   1      56.085  -1.647  32.710  0.00  0.00    -0.259 OA
ATOM     10  C   UNL d   1      57.894   0.298  30.672  0.00  0.00     0.004 A 
ATOM     11  C   UNL d   1      58.321  -0.026  30.043  0.00  0.00     0.018 A 
ENDROOT
BRANCH   1  12
ATOM     12  C   UNL d   1      56.140  -0.017  32.946  0.00  0.00     0.210 A 
ATOM     13  O   UNL d   1      55.333  -0.100  33.127  0.00  0.00    -0.268 OA
ATOM     14  C   UNL d   1      55.194   0.335  33.814  0.00  0.00     0.204 A 
ATOM     15  N   UNL d   1      55.897   0.681  34.057  0.00  0.00    -0.121 NA
ATOM     16  N   UNL d   1      56.490   0.469  33.525  0.00  0.00    -0.121 NA
BRANCH  14  17
ATOM     17  C   UNL d   1      54.502   0.450  34.242  0.00  0.00     0.043 A 
ATOM     18  C   UNL d   1      53.784   0.523  33.849  0.00  0.00     0.004 A 
ATOM     19  C   UNL d   1      53.096   0.638  34.282  0.00  0.00     0.000 A 
ATOM     20  C   UNL d   1      53.112   0.682  35.109  0.00  0.00     0.000 A 
ATOM     21  C   UNL d   1      53.827   0.609  35.497  0.00  0.00     0.000 A 
ATOM     22  C   UNL d   1      54.525   0.493  35.059  0.00  0.00     0.004 A 
ENDBRANCH  14  17
ENDBRANCH   1  12
BRANCH   8  23
ATOM     23  N   UNL d   1      58.761  -1.166  29.241  0.00  0.00    -0.304 N 
BRANCH  23  24
ATOM     24  C   UNL d   1      58.522  -1.908  28.929  0.00  0.00     0.080 C 
ATOM     25  C   UNL d   1      59.060  -2.458  28.642  0.00  0.00     0.021 C 
ENDBRANCH  23  24
BRANCH  23  26
ATOM     26  C   UNL d   1      59.403  -0.755  28.932  0.00  0.00     0.080 C 
ATOM     27  C   UNL d   1      60.056  -1.177  28.627  0.00  0.00     0.021 C 
ENDBRANCH  23  26
ENDBRANCH   8  23
TORSDOF 5
ENDMDL
MODEL 3
REMARK VINA RESULT:      -1.4      1.245      1.974
REMARK  5 active torsions:
REMARK  status: ('A' for Active; 'I' for Inactive)
REMARK    1  A    between atoms: C_2  and  C_1 
REMARK    2  A    between atoms: C_16  and  C_8 
REMARK    3  A    between atoms: N_15  and  C_13 
REMARK    4  A    between atoms: C_19  and  N_15 
REMARK    5  A    between atoms: C_20  and  N_15 
ROOT
ATOM      1  C   UNL d   1      57.529  -0.463  31.144  0.00  0.00     0.106 A 
ATOM      2  C   UNL d   1      58.239  -0.072  31.007  0.00  0.00     0.304 A 
ATOM      3  C   UNL d   1      57.387  -1.193  30.771  0.00  0.00     0.011 A 
ATOM      4  O   UNL d   1      58.834  -0.397  30.493  0.00  0.00    -0.273 OA
ATOM      5  C   UNL d   1      58.657  -1.137  30.134  0.00  0.00     0.105 A 
ATOM      6  C   UNL d   1      57.946  -1.528  30.270  0.00  0.00     0.023 A 
ATOM      7  C   UNL d   1      59.251  -1.462  29.620  0.00  0.00     0.042 A 
ATOM      8  C   UNL d   1      59.075  -2.205  29.257  0.00  0.00     0.066 A 
ATOM      9  O   UNL d   1      58.382   0.682  31.393  0.00  0.00    -0.259 OA
ATOM     10  C   UNL d   1      57.804  -2.258  29.898  0.00  0.00     0.004 A 
ATOM     11  C   UNL d   1      58.365  -2.596  29.394  0.00  0.00     0.018 A 
ENDROOT
BRANCH   1  12
ATOM     12  C   UNL d   1      56.966  -0.120  31.651  0.00  0.00     0.210 A 
ATOM     13  O   UNL d   1      56.838  -0.259  32.461  0.00  0.00    -0.268 OA
ATOM     14  C   UNL d   1      56.213   0.225  32.694  0.00  0.00     0.204 A 
ATOM     15  N   UNL d   1      55.955   0.657  32.045  0.00  0.00    -0.121 NA
ATOM     16  N   UNL d   1      56.416   0.450  31.394  0.00  0.00    -0.121 NA
BRANCH  14  17
ATOM     17  C   UNL d   1      55.852   0.317  33.426  0.00  0.00     0.043 A 
ATOM     18  C   UNL d   1      56.305   0.508  34.085  0.00  0.00     0.004 A 
ATOM     19  C   UNL d   1      55.939   0.599  34.815  0.00  0.00     0.000 A 
ATOM     20  C   UNL d   1      55.121   0.501  34.899  0.00  0.00     0.000 A 
ATOM     21  C   UNL d   1      54.674   0.312  34.243  0.00  0.00     0.000 A 
ATOM     22  C   UNL d   1      55.044   0.220  33.503  0.00  0.00     0.004 A 
ENDBRANCH  14  17
ENDBRANCH   1  12
BRANCH   8  23
ATOM     23  N   UNL d   1      59.661  -2.579  28.718  0.00  0.00    -0.304 N 
BRANCH  23  24
ATOM     24  C   UNL d   1      60.306  -2.110  28.455  0.00  0.00     0.080 C 
ATOM     25  C   UNL d   1      61.087  -2.347  28.546  0.00  0.00     0.021 C 
ENDBRANCH  23  24
BRANCH  23  26
ATOM     26  C   UNL d   1      59.574  -3.362  28.484  0.00  0.00     0.080 C 
ATOM     27  C   UNL d   1      60.242  -3.865  28.461  0.00  0.00     0.021 C 
ENDBRANCH  23  26
ENDBRANCH   8  23
TORSDOF 5
ENDMDL
