MODEL 1
REMARK VINA RESULT:     130.7      0.000      0.000
REMARK  6 active torsions:
REMARK  status: ('A' for Active; 'I' for Inactive)
REMARK    1  A    between atoms: N_3  and  S_1 
REMARK    2  A    between atoms: C_7  and  S_1 
REMARK    3  A    between atoms: C_2  and  N_3 
REMARK    4  A    between atoms: N_9  and  C_5 
REMARK    5  A    between atoms: C_22  and  N_9 
REMARK    6  A    between atoms: C_21  and  C_22 
ROOT
ATOM      1  C   UNL d   1     -56.673-100.781 -44.070  0.00  0.00     0.211 A 
ATOM      2  N   UNL d   1     -56.893-101.133 -44.777  0.00  0.00    -0.222 NA
ATOM      3  C   UNL d   1     -55.907-100.880 -43.776  0.00  0.00     0.200 A 
ATOM      4  N   UNL d   1     -55.361-101.341 -44.204  0.00  0.00    -0.223 NA
ATOM      5  C   UNL d   1     -56.355-101.585 -45.194  0.00  0.00     0.101 A 
ATOM      6  C   UNL d   1     -55.588-101.694 -44.915  0.00  0.00     0.101 A 
ATOM      7  C   UNL d   1     -55.050-102.150 -45.340  0.00  0.00     0.021 A 
ATOM      8  C   UNL d   1     -56.586-101.938 -45.908  0.00  0.00     0.021 A 
ATOM      9  C   UNL d   1     -55.282-102.499 -46.047  0.00  0.00     0.002 A 
ATOM     10  C   UNL d   1     -56.044-102.395 -46.331  0.00  0.00     0.002 A 
ENDROOT
BRANCH   1  11
ATOM     11  N   UNL d   1     -57.212-100.326 -43.650  0.00  0.00    -0.136 NA
BRANCH  11  12
ATOM     12  S   UNL d   1     -57.449 -99.535 -43.992  0.00  0.00     0.287 S 
ATOM     13  O   UNL d   1     -57.406 -98.826 -43.453  0.00  0.00    -0.198 OA
ATOM     14  O   UNL d   1     -57.234 -99.382 -43.196  0.00  0.00    -0.198 OA
BRANCH  12  15
ATOM     15  C   UNL d   1     -57.713 -99.298 -44.736  0.00  0.00     0.105 A 
ATOM     16  C   UNL d   1     -58.516 -99.362 -44.936  0.00  0.00     0.013 A 
ATOM     17  C   UNL d   1     -58.785 -99.122 -45.689  0.00  0.00     0.001 A 
ATOM     18  C   UNL d   1     -59.579 -99.187 -45.880  0.00  0.00     0.000 C 
ATOM     19  C   UNL d   1     -58.241 -98.817 -46.239  0.00  0.00     0.000 A 
ATOM     20  C   UNL d   1     -57.440 -98.755 -46.036  0.00  0.00     0.001 A 
ATOM     21  C   UNL d   1     -57.176 -98.993 -45.291  0.00  0.00     0.013 A 
ENDBRANCH  12  15
ENDBRANCH  11  12
ENDBRANCH   1  11
BRANCH   3  22
ATOM     22  N   UNL d   1     -55.677-100.526 -43.062  0.00  0.00    -0.223 NA
BRANCH  22  23
ATOM     23  C   UNL d   1     -54.981-100.771 -42.675  0.00  0.00     0.101 C 
BRANCH  23  24
ATOM     24  C   UNL d   1     -55.003-100.969 -41.874  0.00  0.00     0.021 A 
ATOM     25  C   UNL d   1     -54.784-100.555 -41.189  0.00  0.00     0.028 A 
ATOM     26  C   UNL d   1     -54.876-100.915 -40.446  0.00  0.00     0.119 A 
ATOM     27  O   UNL d   1     -54.711-100.647 -39.683  0.00  0.00    -0.300 OA
ATOM     28  C   UNL d   1     -55.184-101.677 -40.395  0.00  0.00     0.119 A 
ATOM     29  C   UNL d   1     -54.917-101.246 -39.155  0.00  0.00     0.304 A 
ATOM     30  O   UNL d   1     -55.209-101.881 -39.589  0.00  0.00    -0.300 OA
ATOM     31  C   UNL d   1     -55.401-102.084 -41.076  0.00  0.00     0.026 A 
ATOM     32  C   UNL d   1     -55.312-101.735 -41.815  0.00  0.00     0.004 A 
ENDBRANCH  23  24
ENDBRANCH  22  23
ENDBRANCH   3  22
TORSDOF 6
ENDMDL
