MODEL 1
REMARK VINA RESULT:      -8.9      0.000      0.000
REMARK  7 active torsions:
REMARK  status: ('A' for Active; 'I' for Inactive)
REMARK    1  A    between atoms: C_11  and  N_3 
REMARK    2  A    between atoms: C_10  and  C_4 
REMARK    3  A    between atoms: C_16  and  C_11 
REMARK    4  A    between atoms: N_13  and  C_17 
REMARK    5  A    between atoms: C_26  and  N_14 
REMARK    6  A    between atoms: C_17  and  C_16 
REMARK    7  A    between atoms: C_28  and  C_26 
ROOT
ATOM      1  C   UNL d   1      53.020  33.065  53.685  0.00  0.00     0.137 A 
ATOM      2  N   UNL d   1      53.496  33.288  54.333  0.00  0.00    -0.259 N 
ATOM      3  N   UNL d   1      52.633  33.744  53.424  0.00  0.00    -0.287 N 
ATOM      4  C   UNL d   1      53.009  32.285  53.432  0.00  0.00     0.054 A 
ATOM      5  C   UNL d   1      53.957  32.718  54.718  0.00  0.00     0.266 A 
ATOM      6  C   UNL d   1      53.398  34.096  54.463  0.00  0.00     0.084 A 
ATOM      7  C   UNL d   1      52.858  34.383  53.894  0.00  0.00     0.082 A 
ATOM      8  C   UNL d   1      53.468  31.716  53.815  0.00  0.00     0.009 A 
ATOM      9  C   UNL d   1      53.946  31.926  54.461  0.00  0.00     0.061 A 
ATOM     10  O   UNL d   1      54.432  32.933  55.363  0.00  0.00    -0.267 OA
ATOM     11  C   UNL d   1      53.719  34.615  55.014  0.00  0.00     0.019 A 
ATOM     12  C   UNL d   1      53.457  30.928  53.559  0.00  0.00     0.000 C 
ATOM     13  C   UNL d   1      52.660  35.176  53.898  0.00  0.00     0.019 A 
ATOM     14  C   UNL d   1      53.511  35.406  55.003  0.00  0.00     0.002 A 
ATOM     15  C   UNL d   1      52.975  35.690  54.439  0.00  0.00     0.002 A 
ENDROOT
BRANCH   3  16
ATOM     16  C   UNL d   1      52.101  34.034  52.867  0.00  0.00     0.125 C 
BRANCH  16  17
ATOM     17  C   UNL d   1      51.298  33.862  52.937  0.00  0.00     0.231 C 
ATOM     18  O   UNL d   1      50.964  33.728  53.678  0.00  0.00    -0.283 OA
BRANCH  17  19
ATOM     19  C   UNL d   1      50.826  33.822  52.264  0.00  0.00     0.124 C 
BRANCH  19  20
ATOM     20  N   UNL d   1      50.119  34.241  52.230  0.00  0.00    -0.297 N 
ATOM     21  C   UNL d   1      49.773  34.270  51.476  0.00  0.00     0.100 A 
ATOM     22  C   UNL d   1      49.060  34.675  51.363  0.00  0.00     0.100 A 
ATOM     23  N   UNL d   1      48.688  35.051  51.999  0.00  0.00    -0.297 N 
ATOM     24  C   UNL d   1      49.032  35.022  52.749  0.00  0.00     0.100 A 
ATOM     25  C   UNL d   1      49.746  34.618  52.862  0.00  0.00     0.100 A 
BRANCH  23  26
ATOM     26  C   UNL d   1      47.972  35.455  51.882  0.00  0.00     0.126 C 
BRANCH  26  27
ATOM     27  C   UNL d   1      47.807  36.142  52.310  0.00  0.00     0.253 C 
ATOM     28  O   UNL d   1      47.155  36.592  52.120  0.00  0.00    -0.281 OA
ENDBRANCH  26  27
ENDBRANCH  23  26
ENDBRANCH  19  20
ENDBRANCH  17  19
ENDBRANCH  16  17
ENDBRANCH   3  16
BRANCH   4  29
ATOM     29  C   UNL d   1      52.542  32.065  52.796  0.00  0.00     0.125 C 
ATOM     30  N   UNL d   1      52.556  31.298  52.500  0.00  0.00    -0.146 N 
ENDBRANCH   4  29
TORSDOF 7
ENDMDL
MODEL 2
REMARK VINA RESULT:      -8.9      0.757      2.358
REMARK  7 active torsions:
REMARK  status: ('A' for Active; 'I' for Inactive)
REMARK    1  A    between atoms: C_11  and  N_3 
REMARK    2  A    between atoms: C_10  and  C_4 
REMARK    3  A    between atoms: C_16  and  C_11 
REMARK    4  A    between atoms: N_13  and  C_17 
REMARK    5  A    between atoms: C_26  and  N_14 
REMARK    6  A    between atoms: C_17  and  C_16 
REMARK    7  A    between atoms: C_28  and  C_26 
ROOT
ATOM      1  C   UNL d   1      53.099  33.419  53.965  0.00  0.00     0.137 A 
ATOM      2  N   UNL d   1      53.502  32.748  54.254  0.00  0.00    -0.259 N 
ATOM      3  N   UNL d   1      52.629  33.166  53.337  0.00  0.00    -0.287 N 
ATOM      4  C   UNL d   1      53.219  34.151  54.313  0.00  0.00     0.054 A 
ATOM      5  C   UNL d   1      54.023  32.826  54.894  0.00  0.00     0.266 A 
ATOM      6  C   UNL d   1      53.278  32.094  53.804  0.00  0.00     0.084 A 
ATOM      7  C   UNL d   1      52.731  32.356  53.229  0.00  0.00     0.082 A 
ATOM      8  C   UNL d   1      53.737  34.232  54.950  0.00  0.00     0.009 A 
ATOM      9  C   UNL d   1      54.143  33.571  55.246  0.00  0.00     0.061 A 
ATOM     10  O   UNL d   1      54.426  32.164  55.186  0.00  0.00    -0.267 OA
ATOM     11  C   UNL d   1      53.489  31.300  53.831  0.00  0.00     0.019 A 
ATOM     12  C   UNL d   1      53.857  34.972  55.301  0.00  0.00     0.000 C 
ATOM     13  C   UNL d   1      52.417  31.814  52.704  0.00  0.00     0.019 A 
ATOM     14  C   UNL d   1      53.165  30.771  53.298  0.00  0.00     0.002 A 
ATOM     15  C   UNL d   1      52.623  31.031  52.728  0.00  0.00     0.002 A 
ENDROOT
BRANCH   3  16
ATOM     16  C   UNL d   1      52.090  33.416  52.767  0.00  0.00     0.125 C 
BRANCH  16  17
ATOM     17  C   UNL d   1      51.330  33.644  52.994  0.00  0.00     0.231 C 
ATOM     18  O   UNL d   1      50.859  33.139  53.441  0.00  0.00    -0.283 OA
BRANCH  17  19
ATOM     19  C   UNL d   1      51.041  34.382  52.772  0.00  0.00     0.124 C 
BRANCH  19  20
ATOM     20  N   UNL d   1      50.362  34.438  52.312  0.00  0.00    -0.297 N 
ATOM     21  C   UNL d   1      49.707  34.766  52.703  0.00  0.00     0.100 A 
ATOM     22  C   UNL d   1      48.987  34.855  52.304  0.00  0.00     0.100 A 
ATOM     23  N   UNL d   1      48.916  34.617  51.516  0.00  0.00    -0.297 N 
ATOM     24  C   UNL d   1      49.567  34.291  51.125  0.00  0.00     0.100 A 
ATOM     25  C   UNL d   1      50.287  34.202  51.525  0.00  0.00     0.100 A 
BRANCH  23  26
ATOM     26  C   UNL d   1      48.192  34.707  51.118  0.00  0.00     0.126 C 
BRANCH  26  27
ATOM     27  C   UNL d   1      47.615  35.220  51.411  0.00  0.00     0.253 C 
ATOM     28  O   UNL d   1      46.873  35.230  51.077  0.00  0.00    -0.281 OA
ENDBRANCH  26  27
ENDBRANCH  23  26
ENDBRANCH  19  20
ENDBRANCH  17  19
ENDBRANCH  16  17
ENDBRANCH   3  16
BRANCH   4  29
ATOM     29  C   UNL d   1      52.823  34.811  54.030  0.00  0.00     0.125 C 
ATOM     30  N   UNL d   1      53.114  35.570  54.153  0.00  0.00    -0.146 N 
ENDBRANCH   4  29
TORSDOF 7
ENDMDL
MODEL 3
REMARK VINA RESULT:      -7.3      1.986      4.817
REMARK  7 active torsions:
REMARK  status: ('A' for Active; 'I' for Inactive)
REMARK    1  A    between atoms: C_11  and  N_3 
REMARK    2  A    between atoms: C_10  and  C_4 
REMARK    3  A    between atoms: C_16  and  C_11 
REMARK    4  A    between atoms: N_13  and  C_17 
REMARK    5  A    between atoms: C_26  and  N_14 
REMARK    6  A    between atoms: C_17  and  C_16 
REMARK    7  A    between atoms: C_28  and  C_26 
ROOT
ATOM      1  C   UNL d   1      52.900  33.814  54.147  0.00  0.00     0.137 A 
ATOM      2  N   UNL d   1      52.561  34.564  54.011  0.00  0.00    -0.259 N 
ATOM      3  N   UNL d   1      52.425  33.261  53.762  0.00  0.00    -0.287 N 
ATOM      4  C   UNL d   1      53.582  33.747  54.596  0.00  0.00     0.054 A 
ATOM      5  C   UNL d   1      52.918  35.239  54.331  0.00  0.00     0.266 A 
ATOM      6  C   UNL d   1      51.886  34.466  53.547  0.00  0.00     0.084 A 
ATOM      7  C   UNL d   1      51.801  33.649  53.391  0.00  0.00     0.082 A 
ATOM      8  C   UNL d   1      53.939  34.418  54.916  0.00  0.00     0.009 A 
ATOM      9  C   UNL d   1      53.611  35.170  54.787  0.00  0.00     0.061 A 
ATOM     10  O   UNL d   1      52.586  35.988  54.199  0.00  0.00    -0.267 OA
ATOM     11  C   UNL d   1      51.336  34.996  53.242  0.00  0.00     0.019 A 
ATOM     12  C   UNL d   1      54.628  34.350  55.370  0.00  0.00     0.000 C 
ATOM     13  C   UNL d   1      51.169  33.396  52.937  0.00  0.00     0.019 A 
ATOM     14  C   UNL d   1      50.711  34.725  52.791  0.00  0.00     0.002 A 
ATOM     15  C   UNL d   1      50.626  33.916  52.636  0.00  0.00     0.002 A 
ENDROOT
BRANCH   3  16
ATOM     16  C   UNL d   1      52.333  32.458  53.604  0.00  0.00     0.125 C 
BRANCH  16  17
ATOM     17  C   UNL d   1      52.740  32.115  52.973  0.00  0.00     0.231 C 
ATOM     18  O   UNL d   1      53.366  32.513  52.616  0.00  0.00    -0.283 OA
BRANCH  17  19
ATOM     19  C   UNL d   1      52.519  31.371  52.699  0.00  0.00     0.124 C 
BRANCH  19  20
ATOM     20  N   UNL d   1      52.810  30.694  53.064  0.00  0.00    -0.297 N 
ATOM     21  C   UNL d   1      52.227  30.213  53.408  0.00  0.00     0.100 A 
ATOM     22  C   UNL d   1      52.443  29.513  53.794  0.00  0.00     0.100 A 
ATOM     23  N   UNL d   1      53.238  29.289  53.839  0.00  0.00    -0.297 N 
ATOM     24  C   UNL d   1      53.818  29.768  53.498  0.00  0.00     0.100 A 
ATOM     25  C   UNL d   1      53.602  30.468  53.111  0.00  0.00     0.100 A 
BRANCH  23  26
ATOM     26  C   UNL d   1      53.451  28.587  54.227  0.00  0.00     0.126 C 
BRANCH  26  27
ATOM     27  C   UNL d   1      53.464  28.553  55.052  0.00  0.00     0.253 C 
ATOM     28  O   UNL d   1      53.513  27.832  55.428  0.00  0.00    -0.281 OA
ENDBRANCH  26  27
ENDBRANCH  23  26
ENDBRANCH  19  20
ENDBRANCH  17  19
ENDBRANCH  16  17
ENDBRANCH   3  16
BRANCH   4  29
ATOM     29  C   UNL d   1      53.915  33.010  54.730  0.00  0.00     0.125 C 
ATOM     30  N   UNL d   1      54.310  32.841  55.432  0.00  0.00    -0.146 N 
ENDBRANCH   4  29
TORSDOF 7
ENDMDL
MODEL 4
REMARK VINA RESULT:      -6.6      1.937      4.845
REMARK  7 active torsions:
REMARK  status: ('A' for Active; 'I' for Inactive)
REMARK    1  A    between atoms: C_11  and  N_3 
REMARK    2  A    between atoms: C_10  and  C_4 
REMARK    3  A    between atoms: C_16  and  C_11 
REMARK    4  A    between atoms: N_13  and  C_17 
REMARK    5  A    between atoms: C_26  and  N_14 
REMARK    6  A    between atoms: C_17  and  C_16 
REMARK    7  A    between atoms: C_28  and  C_26 
ROOT
ATOM      1  C   UNL d   1      52.527  33.871  53.860  0.00  0.00     0.137 A 
ATOM      2  N   UNL d   1      52.927  34.512  54.213  0.00  0.00    -0.259 N 
ATOM      3  N   UNL d   1      52.972  33.194  54.013  0.00  0.00    -0.287 N 
ATOM      4  C   UNL d   1      51.826  33.997  53.455  0.00  0.00     0.054 A 
ATOM      5  C   UNL d   1      52.612  35.276  54.153  0.00  0.00     0.266 A 
ATOM      6  C   UNL d   1      53.610  34.226  54.578  0.00  0.00     0.084 A 
ATOM      7  C   UNL d   1      53.638  33.400  54.453  0.00  0.00     0.082 A 
ATOM      8  C   UNL d   1      51.509  34.756  53.394  0.00  0.00     0.009 A 
ATOM      9  C   UNL d   1      51.899  35.402  53.741  0.00  0.00     0.061 A 
ATOM     10  O   UNL d   1      53.004  35.917  54.501  0.00  0.00    -0.267 OA
ATOM     11  C   UNL d   1      54.209  34.592  55.005  0.00  0.00     0.019 A 
ATOM     12  C   UNL d   1      50.801  34.883  52.985  0.00  0.00     0.000 C 
ATOM     13  C   UNL d   1      54.264  32.974  54.760  0.00  0.00     0.019 A 
ATOM     14  C   UNL d   1      54.828  34.150  55.305  0.00  0.00     0.002 A 
ATOM     15  C   UNL d   1      54.856  33.332  55.181  0.00  0.00     0.002 A 
ENDROOT
BRANCH   3  16
ATOM     16  C   UNL d   1      53.008  32.380  53.895  0.00  0.00     0.125 C 
BRANCH  16  17
ATOM     17  C   UNL d   1      53.183  32.082  53.146  0.00  0.00     0.231 C 
ATOM     18  O   UNL d   1      53.717  32.472  52.657  0.00  0.00    -0.283 OA
BRANCH  17  19
ATOM     19  C   UNL d   1      52.822  31.390  52.886  0.00  0.00     0.124 C 
BRANCH  19  20
ATOM     20  N   UNL d   1      53.026  30.667  53.219  0.00  0.00    -0.297 N 
ATOM     21  C   UNL d   1      52.384  30.230  53.514  0.00  0.00     0.100 A 
ATOM     22  C   UNL d   1      52.512  29.491  53.864  0.00  0.00     0.100 A 
ATOM     23  N   UNL d   1      53.277  29.184  53.923  0.00  0.00    -0.297 N 
ATOM     24  C   UNL d   1      53.916  29.618  53.630  0.00  0.00     0.100 A 
ATOM     25  C   UNL d   1      53.788  30.357  53.279  0.00  0.00     0.100 A 
BRANCH  23  26
ATOM     26  C   UNL d   1      53.402  28.442  54.275  0.00  0.00     0.126 C 
BRANCH  26  27
ATOM     27  C   UNL d   1      53.539  28.383  55.087  0.00  0.00     0.253 C 
ATOM     28  O   UNL d   1      53.361  27.692  55.480  0.00  0.00    -0.281 OA
ENDBRANCH  26  27
ENDBRANCH  23  26
ENDBRANCH  19  20
ENDBRANCH  17  19
ENDBRANCH  16  17
ENDBRANCH   3  16
BRANCH   4  29
ATOM     29  C   UNL d   1      51.432  33.367  53.108  0.00  0.00     0.125 C 
ATOM     30  N   UNL d   1      50.611  33.325  53.106  0.00  0.00    -0.146 N 
ENDBRANCH   4  29
TORSDOF 7
ENDMDL
