MODEL 1
REMARK VINA RESULT:      41.1      0.000      0.000
REMARK  4 active torsions:
REMARK  status: ('A' for Active; 'I' for Inactive)
REMARK    1  A    between atoms: C_5  and  C_4 
REMARK    2  A    between atoms: C_6  and  C_5 
REMARK       I    between atoms: N_11  and  C_6 
REMARK    3  A    between atoms: C_9  and  C_10 
REMARK    4  A    between atoms: C_14  and  N_11 
ROOT
ATOM      1  C   UNL d   1      15.215  15.310  -0.336  0.00  0.00     0.074 C 
ENDROOT
BRANCH   1   2
ATOM      2  C   UNL d   1      15.184  15.816  -0.970  0.00  0.00     0.092 A 
ATOM      3  C   UNL d   1      15.493  16.584  -0.897  0.00  0.00     0.285 A 
ATOM      4  N   UNL d   1      15.464  17.109  -1.544  0.00  0.00    -0.207 NA
ATOM      5  O   UNL d   1      15.829  16.833  -0.191  0.00  0.00    -0.265 OA
ATOM      6  C   UNL d   1      15.131  16.858  -2.242  0.00  0.00     0.091 A 
ATOM      7  C   UNL d   1      14.822  16.090  -2.315  0.00  0.00     0.047 A 
ATOM      8  C   UNL d   1      15.102  17.383  -2.892  0.00  0.00     0.020 A 
ATOM      9  S   UNL d   1      14.851  15.586  -1.690  0.00  0.00    -0.080 SA
ATOM     10  C   UNL d   1      14.493  15.865  -3.027  0.00  0.00     0.008 A 
ATOM     11  C   UNL d   1      14.454  16.369  -3.682  0.00  0.00     0.001 A 
ATOM     12  C   UNL d   1      14.763  17.137  -3.609  0.00  0.00     0.002 A 
ENDBRANCH   1   2
BRANCH   1  13
ATOM     13  C   UNL d   1      14.818  14.603  -0.346  0.00  0.00     0.280 C 
ATOM     14  N   UNL d   1      15.160  13.939  -0.685  0.00  0.00    -0.208 NA
ATOM     15  O   UNL d   1      14.072  14.555  -0.017  0.00  0.00    -0.265 OA
BRANCH  14  16
ATOM     16  C   UNL d   1      14.754  13.229  -0.692  0.00  0.00     0.085 A 
ATOM     17  C   UNL d   1      14.362  12.975  -1.381  0.00  0.00     0.025 A 
ATOM     18  C   UNL d   1      13.960  12.262  -1.369  0.00  0.00     0.066 A 
ATOM     19  C   UNL d   1      13.938  11.812  -0.720  0.00  0.00     0.006 A 
ATOM     20  C   UNL d   1      14.325  12.046  -0.016  0.00  0.00     0.002 A 
ATOM     21  C   UNL d   1      14.731  12.763  -0.021  0.00  0.00     0.019 A 
BRANCH  18  22
ATOM     22  C   UNL d   1      13.569  11.987  -2.022  0.00  0.00     0.211 C 
ATOM     23  O   UNL d   1      12.769  11.802  -2.006  0.00  0.00    -0.644 OA
ATOM     24  O   UNL d   1      14.006  11.900  -2.712  0.00  0.00    -0.644 OA
ENDBRANCH  18  22
ENDBRANCH  14  16
ENDBRANCH   1  13
TORSDOF 4
ENDMDL
MODEL 2
REMARK VINA RESULT:      43.3      1.784      2.844
REMARK  4 active torsions:
REMARK  status: ('A' for Active; 'I' for Inactive)
REMARK    1  A    between atoms: C_5  and  C_4 
REMARK    2  A    between atoms: C_6  and  C_5 
REMARK       I    between atoms: N_11  and  C_6 
REMARK    3  A    between atoms: C_9  and  C_10 
REMARK    4  A    between atoms: C_14  and  N_11 
ROOT
ATOM      1  C   UNL d   1      14.460  13.124  -1.201  0.00  0.00     0.074 C 
ENDROOT
BRANCH   1   2
ATOM      2  C   UNL d   1      14.776  13.854  -1.035  0.00  0.00     0.092 A 
ATOM      3  C   UNL d   1      15.348  13.926  -0.436  0.00  0.00     0.285 A 
ATOM      4  N   UNL d   1      15.676  14.672  -0.261  0.00  0.00    -0.207 NA
ATOM      5  O   UNL d   1      15.595  13.267  -0.014  0.00  0.00    -0.265 OA
ATOM      6  C   UNL d   1      15.428  15.322  -0.681  0.00  0.00     0.091 A 
ATOM      7  C   UNL d   1      14.856  15.250  -1.279  0.00  0.00     0.047 A 
ATOM      8  C   UNL d   1      15.756  16.071  -0.506  0.00  0.00     0.020 A 
ATOM      9  S   UNL d   1      14.541  14.530  -1.447  0.00  0.00    -0.080 SA
ATOM     10  C   UNL d   1      14.626  15.919  -1.686  0.00  0.00     0.008 A 
ATOM     11  C   UNL d   1      14.937  16.669  -1.528  0.00  0.00     0.001 A 
ATOM     12  C   UNL d   1      15.510  16.741  -0.930  0.00  0.00     0.002 A 
ENDBRANCH   1   2
BRANCH   1  13
ATOM     13  C   UNL d   1      14.011  13.006  -1.865  0.00  0.00     0.280 C 
ATOM     14  N   UNL d   1      14.305  12.567  -2.493  0.00  0.00    -0.208 NA
ATOM     15  O   UNL d   1      13.261  13.326  -1.907  0.00  0.00    -0.265 OA
BRANCH  14  16
ATOM     16  C   UNL d   1      13.847  12.451  -3.161  0.00  0.00     0.085 A 
ATOM     17  C   UNL d   1      13.994  12.888  -3.854  0.00  0.00     0.025 A 
ATOM     18  C   UNL d   1      13.525  12.758  -4.512  0.00  0.00     0.066 A 
ATOM     19  C   UNL d   1      12.938  12.230  -4.502  0.00  0.00     0.006 A 
ATOM     20  C   UNL d   1      12.771  11.780  -3.817  0.00  0.00     0.002 A 
ATOM     21  C   UNL d   1      13.239  11.905  -3.151  0.00  0.00     0.019 A 
BRANCH  18  22
ATOM     22  C   UNL d   1      13.643  13.166  -5.202  0.00  0.00     0.211 C 
ATOM     23  O   UNL d   1      13.854  12.791  -5.900  0.00  0.00    -0.644 OA
ATOM     24  O   UNL d   1      13.543  13.981  -5.176  0.00  0.00    -0.644 OA
ENDBRANCH  18  22
ENDBRANCH  14  16
ENDBRANCH   1  13
TORSDOF 4
ENDMDL
