MODEL 1
REMARK VINA RESULT:      83.5      0.000      0.000
REMARK  5 active torsions:
REMARK  status: ('A' for Active; 'I' for Inactive)
REMARK    1  A    between atoms: N_10  and  C_4 
REMARK    2  A    between atoms: C_20  and  N_5 
REMARK    3  A    between atoms: C_12  and  S_19 
REMARK    4  A    between atoms: S_19  and  C_23 
REMARK    5  A    between atoms: C_23  and  C_20 
ROOT
ATOM      1  C   UNL d   1      60.074  49.701  52.079  0.00  0.00     0.191 A 
ATOM      2  C   UNL d   1      60.566  49.701  51.418  0.00  0.00     0.174 A 
ATOM      3  N   UNL d   1      59.295  49.699  51.813  0.00  0.00    -0.042 NA
ATOM      4  C   UNL d   1      59.303  49.698  50.997  0.00  0.00     0.722 A 
ATOM      5  N   UNL d   1      60.091  49.700  50.744  0.00  0.00    -0.132 N 
ATOM      6  N   UNL d   1      60.401  49.702  52.836  0.00  0.00    -0.239 N 
ATOM      7  C   UNL d   1      61.221  49.703  52.933  0.00  0.00     0.358 A 
ATOM      8  N   UNL d   1      61.713  49.704  52.272  0.00  0.00    -0.152 NA
ATOM      9  C   UNL d   1      61.386  49.703  51.514  0.00  0.00     0.303 A 
ATOM     10  O   UNL d   1      61.545  49.704  53.694  0.00  0.00    -0.244 OA
ATOM     11  O   UNL d   1      61.878  49.704  50.853  0.00  0.00    -0.263 OA
ATOM     12  C   UNL d   1      59.914  49.701  53.491  0.00  0.00     0.105 C 
ENDROOT
BRANCH   5  13
ATOM     13  C   UNL d   1      60.357  49.700  49.959  0.00  0.00     0.105 C 
BRANCH  13  14
ATOM     14  C   UNL d   1      60.791  49.057  49.666  0.00  0.00     0.058 C 
BRANCH  14  15
ATOM     15  S   UNL d   1      60.475  48.285  49.723  0.00  0.00    -0.041 SA
BRANCH  15  16
ATOM     16  C   UNL d   1      60.983  47.636  49.644  0.00  0.00     0.215 A 
ATOM     17  N   UNL d   1      60.771  46.902  49.934  0.00  0.00    -0.214 NA
ATOM     18  C   UNL d   1      61.375  46.382  49.776  0.00  0.00     0.107 A 
ATOM     19  C   UNL d   1      61.453  45.573  49.945  0.00  0.00     0.021 A 
ATOM     20  C   UNL d   1      61.967  46.774  49.389  0.00  0.00     0.120 A 
ATOM     21  C   UNL d   1      62.141  45.170  49.716  0.00  0.00     0.002 A 
ATOM     22  C   UNL d   1      62.731  45.566  49.330  0.00  0.00     0.002 A 
ATOM     23  C   UNL d   1      62.645  46.372  49.165  0.00  0.00     0.026 A 
ATOM     24  O   UNL d   1      61.724  47.568  49.303  0.00  0.00    -0.283 OA
ENDBRANCH  15  16
ENDBRANCH  14  15
ENDBRANCH  13  14
ENDBRANCH   5  13
BRANCH   4  25
ATOM     25  N   UNL d   1      58.621  49.697  50.541  0.00  0.00    -0.139 N 
ATOM     26  C   UNL d   1      57.884  49.687  50.906  0.00  0.00     0.098 A 
ATOM     27  C   UNL d   1      57.193  49.685  50.454  0.00  0.00     0.018 A 
ATOM     28  C   UNL d   1      56.439  49.675  50.803  0.00  0.00     0.002 C 
ATOM     29  C   UNL d   1      57.242  49.693  49.634  0.00  0.00     0.003 A 
ATOM     30  C   UNL d   1      57.979  49.704  49.260  0.00  0.00     0.020 A 
ATOM     31  C   UNL d   1      58.674  49.705  49.724  0.00  0.00     0.098 A 
ENDBRANCH   4  25
TORSDOF 5
ENDMDL
