MODEL 1
REMARK VINA RESULT:      65.0      0.000      0.000
REMARK  6 active torsions:
REMARK  status: ('A' for Active; 'I' for Inactive)
REMARK    1  A    between atoms: C_16  and  N_1 
REMARK    2  A    between atoms: C_11  and  C_2 
REMARK    3  A    between atoms: S_15  and  C_3 
REMARK    4  A    between atoms: C_8  and  C_11 
REMARK    5  A    between atoms: C_13  and  C_17 
REMARK       I    between atoms: N_14  and  C_13 
REMARK    6  A    between atoms: C_17  and  S_15 
ROOT
ATOM      1  N   UNL d   1      45.905 -18.211  41.056  0.00  0.00    -0.269 N 
ATOM      2  C   UNL d   1      46.095 -17.947  41.822  0.00  0.00     0.172 A 
ATOM      3  C   UNL d   1      45.425 -17.637  40.713  0.00  0.00     0.201 A 
ATOM      4  N   UNL d   1      45.735 -17.222  41.939  0.00  0.00    -0.128 NA
ATOM      5  N   UNL d   1      45.319 -17.032  41.248  0.00  0.00    -0.121 NA
ENDROOT
BRANCH   3   6
ATOM      6  S   UNL d   1      45.096 -17.661  39.944  0.00  0.00    -0.043 SA
BRANCH   6   7
ATOM      7  C   UNL d   1      45.116 -16.981  39.463  0.00  0.00     0.099 C 
BRANCH   7   8
ATOM      8  C   UNL d   1      44.522 -16.861  38.909  0.00  0.00     0.271 C 
ATOM      9  N   UNL d   1      44.637 -16.333  38.286  0.00  0.00    -0.272 N 
ATOM     10  C   UNL d   1      44.039 -16.209  37.725  0.00  0.00     0.083 A 
ATOM     11  C   UNL d   1      45.350 -15.921  38.217  0.00  0.00     0.083 A 
ATOM     12  C   UNL d   1      44.154 -15.681  37.102  0.00  0.00     0.019 A 
ATOM     13  C   UNL d   1      44.871 -15.273  37.040  0.00  0.00     0.003 A 
ATOM     14  C   UNL d   1      45.465 -15.393  37.594  0.00  0.00     0.019 A 
ATOM     15  O   UNL d   1      43.801 -17.272  38.972  0.00  0.00    -0.266 OA
ENDBRANCH   7   8
ENDBRANCH   6   7
ENDBRANCH   3   6
BRANCH   1  16
ATOM     16  C   UNL d   1      46.132 -18.906  40.680  0.00  0.00     0.067 A 
ATOM     17  C   UNL d   1      46.367 -19.561  41.141  0.00  0.00     0.018 A 
ATOM     18  C   UNL d   1      46.599 -20.267  40.769  0.00  0.00     0.002 A 
ATOM     19  C   UNL d   1      46.591 -20.304  39.944  0.00  0.00     0.000 A 
ATOM     20  C   UNL d   1      46.363 -19.666  39.488  0.00  0.00     0.002 A 
ATOM     21  C   UNL d   1      46.131 -18.959  39.861  0.00  0.00     0.018 A 
ENDBRANCH   1  16
BRANCH   2  22
ATOM     22  C   UNL d   1      46.580 -18.419  42.307  0.00  0.00     0.059 C 
BRANCH  22  23
ATOM     23  C   UNL d   1      46.480 -18.396  43.132  0.00  0.00     0.094 A 
ATOM     24  C   UNL d   1      46.570 -19.079  43.586  0.00  0.00     0.082 A 
ATOM     25  C   UNL d   1      46.469 -19.046  44.401  0.00  0.00     0.285 A 
ATOM     26  O   UNL d   1      46.560 -19.729  44.856  0.00  0.00    -0.265 OA
ATOM     27  N   UNL d   1      46.277 -18.331  44.764  0.00  0.00    -0.152 NA
ATOM     28  C   UNL d   1      46.186 -17.655  44.322  0.00  0.00     0.371 A 
ATOM     29  N   UNL d   1      46.288 -17.680  43.494  0.00  0.00    -0.191 NA
ATOM     30  O   UNL d   1      45.991 -16.938  44.713  0.00  0.00    -0.242 OA
ENDBRANCH  22  23
ENDBRANCH   2  22
TORSDOF 6
ENDMDL
