MODEL 1
REMARK VINA RESULT:      38.4      0.000      0.000
REMARK  4 active torsions:
REMARK  status: ('A' for Active; 'I' for Inactive)
REMARK    1  A    between atoms: C_8  and  N_2 
REMARK    2  A    between atoms: C_13  and  C_8 
REMARK    3  A    between atoms: O_17  and  C_13 
REMARK    4  A    between atoms: O_18  and  C_15 
ROOT
ATOM      1  C   UNL d   1     -58.129 -98.757 -45.116  0.00  0.00     0.166 A 
ATOM      2  N   UNL d   1     -57.644 -98.758 -44.449  0.00  0.00    -0.285 N 
ATOM      3  C   UNL d   1     -58.916 -98.757 -44.856  0.00  0.00     0.117 A 
ATOM      4  C   UNL d   1     -58.918 -98.756 -44.032  0.00  0.00     0.039 A 
ATOM      5  C   UNL d   1     -58.133 -98.757 -43.781  0.00  0.00     0.067 A 
ATOM      6  N   UNL d   1     -57.952 -98.758 -45.915  0.00  0.00    -0.225 NA
ATOM      7  N   UNL d   1     -59.527 -98.756 -45.406  0.00  0.00    -0.241 NA
ATOM      8  C   UNL d   1     -58.563 -98.757 -46.477  0.00  0.00     0.101 A 
ATOM      9  C   UNL d   1     -59.350 -98.757 -46.217  0.00  0.00     0.099 A 
ATOM     10  C   UNL d   1     -57.947 -98.757 -42.969  0.00  0.00     0.020 A 
ATOM     11  C   UNL d   1     -59.518 -98.756 -43.480  0.00  0.00     0.027 A 
ATOM     12  C   UNL d   1     -59.345 -98.756 -42.673  0.00  0.00     0.094 A 
ATOM     13  C   UNL d   1     -58.560 -98.756 -42.421  0.00  0.00     0.026 A 
ATOM     14  C   UNL d   1     -59.960 -98.756 -46.768  0.00  0.00     0.021 A 
ATOM     15  C   UNL d   1     -58.398 -98.758 -47.276  0.00  0.00     0.021 A 
ATOM     16  C   UNL d   1     -59.009 -98.757 -47.835  0.00  0.00     0.002 A 
ATOM     17  C   UNL d   1     -59.795 -98.756 -47.575  0.00  0.00     0.002 A 
ENDROOT
BRANCH   2  18
ATOM     18  C   UNL d   1     -56.820 -98.758 -44.447  0.00  0.00     0.150 C 
BRANCH  18  19
ATOM     19  C   UNL d   1     -56.409 -99.478 -44.458  0.00  0.00     0.314 C 
ATOM     20  O   UNL d   1     -56.828-100.187 -44.363  0.00  0.00    -0.257 OA
BRANCH  19  21
ATOM     21  O   UNL d   1     -55.604 -99.486 -44.560  0.00  0.00    -0.295 OA
ATOM     22  C   UNL d   1     -55.185-100.200 -44.535  0.00  0.00     0.185 C 
ENDBRANCH  19  21
ENDBRANCH  18  19
ENDBRANCH   2  18
BRANCH  12  23
ATOM     23  O   UNL d   1     -59.959 -98.755 -42.125  0.00  0.00    -0.328 OA
ATOM     24  C   UNL d   1     -59.804 -98.868 -41.323  0.00  0.00     0.181 C 
ENDBRANCH  12  23
TORSDOF 4
ENDMDL
MODEL 2
REMARK VINA RESULT:      40.0      1.052      3.428
REMARK  4 active torsions:
REMARK  status: ('A' for Active; 'I' for Inactive)
REMARK    1  A    between atoms: C_8  and  N_2 
REMARK    2  A    between atoms: C_13  and  C_8 
REMARK    3  A    between atoms: O_17  and  C_13 
REMARK    4  A    between atoms: O_18  and  C_15 
ROOT
ATOM      1  C   UNL d   1     -58.118 -98.758 -44.053  0.00  0.00     0.166 A 
ATOM      2  N   UNL d   1     -57.630 -98.757 -44.718  0.00  0.00    -0.285 N 
ATOM      3  C   UNL d   1     -58.903 -98.757 -44.315  0.00  0.00     0.117 A 
ATOM      4  C   UNL d   1     -58.902 -98.757 -45.139  0.00  0.00     0.039 A 
ATOM      5  C   UNL d   1     -58.116 -98.757 -45.388  0.00  0.00     0.067 A 
ATOM      6  N   UNL d   1     -57.944 -98.758 -43.253  0.00  0.00    -0.225 NA
ATOM      7  N   UNL d   1     -59.516 -98.758 -43.767  0.00  0.00    -0.241 NA
ATOM      8  C   UNL d   1     -58.556 -98.758 -42.693  0.00  0.00     0.101 A 
ATOM      9  C   UNL d   1     -59.342 -98.758 -42.956  0.00  0.00     0.099 A 
ATOM     10  C   UNL d   1     -57.927 -98.757 -46.199  0.00  0.00     0.020 A 
ATOM     11  C   UNL d   1     -59.501 -98.757 -45.693  0.00  0.00     0.027 A 
ATOM     12  C   UNL d   1     -59.325 -98.757 -46.500  0.00  0.00     0.094 A 
ATOM     13  C   UNL d   1     -58.539 -98.757 -46.749  0.00  0.00     0.026 A 
ATOM     14  C   UNL d   1     -59.955 -98.758 -42.408  0.00  0.00     0.021 A 
ATOM     15  C   UNL d   1     -58.394 -98.758 -41.894  0.00  0.00     0.021 A 
ATOM     16  C   UNL d   1     -59.007 -98.758 -41.337  0.00  0.00     0.002 A 
ATOM     17  C   UNL d   1     -59.793 -98.758 -41.599  0.00  0.00     0.002 A 
ENDROOT
BRANCH   2  18
ATOM     18  C   UNL d   1     -56.806 -98.757 -44.717  0.00  0.00     0.150 C 
BRANCH  18  19
ATOM     19  C   UNL d   1     -56.394 -99.476 -44.700  0.00  0.00     0.314 C 
ATOM     20  O   UNL d   1     -56.757-100.145 -44.371  0.00  0.00    -0.257 OA
BRANCH  19  21
ATOM     21  O   UNL d   1     -55.643 -99.523 -45.002  0.00  0.00    -0.295 OA
ATOM     22  C   UNL d   1     -55.071 -99.996 -44.633  0.00  0.00     0.185 C 
ENDBRANCH  19  21
ENDBRANCH  18  19
ENDBRANCH   2  18
BRANCH  12  23
ATOM     23  O   UNL d   1     -59.936 -98.757 -47.050  0.00  0.00    -0.328 OA
ATOM     24  C   UNL d   1     -59.773 -98.791 -47.857  0.00  0.00     0.181 C 
ENDBRANCH  12  23
TORSDOF 4
ENDMDL
