MODEL 1
REMARK VINA RESULT:      -6.3      0.000      0.000
REMARK  5 active torsions:
REMARK  status: ('A' for Active; 'I' for Inactive)
REMARK    1  A    between atoms: C_3  and  C_1 
REMARK       I    between atoms: N_2  and  C_4 
REMARK    2  A    between atoms: C_5  and  N_2 
REMARK       I    between atoms: N_6  and  C_3 
REMARK    3  A    between atoms: C_4  and  C_7 
REMARK    4  A    between atoms: C_7  and  N_6 
REMARK    5  A    between atoms: C_21  and  C_7 
ROOT
ATOM      1  C   UNL d   1      57.376  -0.312  30.836  0.00  0.00     0.263 C 
ATOM      2  N   UNL d   1      58.146  -0.582  30.780  0.00  0.00    -0.206 NA
ATOM      3  O   UNL d   1      57.035   0.065  30.183  0.00  0.00    -0.270 OA
ENDROOT
BRANCH   2   4
ATOM      4  C   UNL d   1      58.573  -0.483  30.092  0.00  0.00     0.142 C 
BRANCH   4   5
ATOM      5  C   UNL d   1      58.689  -1.123  29.569  0.00  0.00     0.299 C 
ATOM      6  N   UNL d   1      59.007  -1.820  29.834  0.00  0.00    -0.181 NA
ATOM      7  O   UNL d   1      58.471  -1.029  28.779  0.00  0.00    -0.263 OA
BRANCH   6   8
ATOM      8  C   UNL d   1      59.123  -2.455  29.321  0.00  0.00     0.197 A 
ATOM      9  N   UNL d   1      58.512  -3.011  29.177  0.00  0.00    -0.219 NA
ATOM     10  C   UNL d   1      58.810  -3.568  28.643  0.00  0.00     0.108 A 
ATOM     11  C   UNL d   1      59.555  -3.388  28.455  0.00  0.00     0.059 A 
ATOM     12  S   UNL d   1      59.790  -2.676  28.873  0.00  0.00    -0.046 SA
ENDBRANCH   6   8
ENDBRANCH   4   5
BRANCH   4  13
ATOM     13  C   UNL d   1      58.889   0.251  29.920  0.00  0.00     0.022 C 
ATOM     14  C   UNL d   1      58.595   0.682  29.279  0.00  0.00     0.002 C 
ATOM     15  C   UNL d   1      59.481   0.527  30.390  0.00  0.00     0.002 C 
ENDBRANCH   4  13
ENDBRANCH   2   4
BRANCH   1  16
ATOM     16  C   UNL d   1      56.954  -0.409  31.516  0.00  0.00     0.111 A 
ATOM     17  C   UNL d   1      56.974   0.296  31.630  0.00  0.00     0.026 A 
ATOM     18  C   UNL d   1      56.639   0.594  32.248  0.00  0.00     0.045 A 
ATOM     19  C   UNL d   1      56.265  -0.102  32.723  0.00  0.00    -0.022 A 
ATOM     20  C   UNL d   1      56.193   0.192  32.905  0.00  0.00    -0.022 A 
ATOM     21  C   UNL d   1      56.242  -0.928  32.590  0.00  0.00    -0.007 A 
ATOM     22  C   UNL d   1      56.655  -1.109  31.868  0.00  0.00    -0.014 A 
ATOM     23  C   UNL d   1      55.852  -1.294  33.161  0.00  0.00    -0.001 A 
ATOM     24  C   UNL d   1      56.172  -0.554  32.785  0.00  0.00    -0.007 A 
ATOM     25  C   UNL d   1      56.600  -0.769  32.029  0.00  0.00    -0.014 A 
ENDBRANCH   1  16
TORSDOF 5
ENDMDL
MODEL 2
REMARK VINA RESULT:      -4.4      1.344      4.285
REMARK  5 active torsions:
REMARK  status: ('A' for Active; 'I' for Inactive)
REMARK    1  A    between atoms: C_3  and  C_1 
REMARK       I    between atoms: N_2  and  C_4 
REMARK    2  A    between atoms: C_5  and  N_2 
REMARK       I    between atoms: N_6  and  C_3 
REMARK    3  A    between atoms: C_4  and  C_7 
REMARK    4  A    between atoms: C_7  and  N_6 
REMARK    5  A    between atoms: C_21  and  C_7 
ROOT
ATOM      1  C   UNL d   1      59.208  -1.456  29.511  0.00  0.00     0.263 C 
ATOM      2  N   UNL d   1      58.510  -1.034  29.444  0.00  0.00    -0.206 NA
ATOM      3  O   UNL d   1      59.845  -1.115  29.917  0.00  0.00    -0.270 OA
ENDROOT
BRANCH   2   4
ATOM      4  C   UNL d   1      58.439  -0.290  29.771  0.00  0.00     0.142 C 
BRANCH   4   5
ATOM      5  C   UNL d   1      58.112  -0.191  30.532  0.00  0.00     0.299 C 
ATOM      6  N   UNL d   1      57.343  -0.402  30.680  0.00  0.00    -0.181 NA
ATOM      7  O   UNL d   1      58.587   0.126  31.126  0.00  0.00    -0.263 OA
BRANCH   6   8
ATOM      8  C   UNL d   1      57.015  -0.307  31.430  0.00  0.00     0.197 A 
ATOM      9  N   UNL d   1      56.760  -0.969  31.878  0.00  0.00    -0.219 NA
ATOM     10  C   UNL d   1      56.463  -0.679  32.594  0.00  0.00     0.108 A 
ATOM     11  C   UNL d   1      56.520   0.109  32.609  0.00  0.00     0.059 A 
ATOM     12  S   UNL d   1      56.871   0.383  31.876  0.00  0.00    -0.046 SA
ENDBRANCH   6   8
ENDBRANCH   4   5
BRANCH   4  13
ATOM     13  C   UNL d   1      58.693   0.359  29.344  0.00  0.00     0.022 C 
ATOM     14  C   UNL d   1      58.219   0.660  28.738  0.00  0.00     0.002 C 
ATOM     15  C   UNL d   1      59.405   0.682  29.536  0.00  0.00     0.002 C 
ENDBRANCH   4  13
ENDBRANCH   2   4
BRANCH   1  16
ATOM     16  C   UNL d   1      59.279  -2.191  29.187  0.00  0.00     0.111 A 
ATOM     17  C   UNL d   1      59.976  -2.076  29.078  0.00  0.00     0.026 A 
ATOM     18  C   UNL d   1      60.406  -2.617  28.754  0.00  0.00     0.045 A 
ATOM     19  C   UNL d   1      59.860  -3.337  28.577  0.00  0.00    -0.022 A 
ATOM     20  C   UNL d   1      60.182  -3.428  28.466  0.00  0.00    -0.022 A 
ATOM     21  C   UNL d   1      59.043  -3.471  28.705  0.00  0.00    -0.007 A 
ATOM     22  C   UNL d   1      58.698  -2.784  29.070  0.00  0.00    -0.014 A 
ATOM     23  C   UNL d   1      58.832  -4.182  28.455  0.00  0.00    -0.001 A 
ATOM     24  C   UNL d   1      59.445  -3.550  28.581  0.00  0.00    -0.007 A 
ATOM     25  C   UNL d   1      59.059  -2.839  28.966  0.00  0.00    -0.014 A 
ENDBRANCH   1  16
TORSDOF 5
ENDMDL
