MODEL 1
REMARK VINA RESULT:      32.5      0.000      0.000
REMARK  4 active torsions:
REMARK  status: ('A' for Active; 'I' for Inactive)
REMARK    1  A    between atoms: C_3  and  C_1 
REMARK    2  A    between atoms: C_2  and  C_3 
REMARK    3  A    between atoms: C_6  and  C_2 
REMARK    4  A    between atoms: C_16  and  C_6 
ROOT
ATOM      1  C   UNL d   1      57.367  49.704  49.868  0.00  0.00     0.119 A 
ATOM      2  C   UNL d   1      56.743  49.699  50.402  0.00  0.00     0.119 A 
ATOM      3  O   UNL d   1      57.046  49.707  49.110  0.00  0.00    -0.300 OA
ATOM      4  O   UNL d   1      56.037  49.700  49.979  0.00  0.00    -0.300 OA
ATOM      5  C   UNL d   1      56.231  49.705  49.173  0.00  0.00     0.304 A 
ATOM      6  C   UNL d   1      58.146  49.704  50.142  0.00  0.00     0.026 A 
ATOM      7  C   UNL d   1      58.299  49.699  50.966  0.00  0.00     0.002 A 
ATOM      8  C   UNL d   1      56.896  49.695  51.226  0.00  0.00     0.026 A 
ATOM      9  C   UNL d   1      57.672  49.695  51.509  0.00  0.00     0.002 A 
ENDROOT
BRANCH   7  10
ATOM     10  C   UNL d   1      59.091  49.700  51.260  0.00  0.00     0.003 C 
BRANCH  10  11
ATOM     11  C   UNL d   1      59.498  48.980  51.307  0.00  0.00     0.043 C 
BRANCH  11  12
ATOM     12  C   UNL d   1      60.316  48.988  51.411  0.00  0.00     0.202 C 
ATOM     13  O   UNL d   1      60.667  49.591  51.850  0.00  0.00    -0.286 OA
BRANCH  12  14
ATOM     14  C   UNL d   1      60.786  48.398  51.081  0.00  0.00     0.068 A 
ATOM     15  S   UNL d   1      60.926  47.607  51.300  0.00  0.00    -0.083 SA
ATOM     16  C   UNL d   1      61.449  47.288  50.760  0.00  0.00     0.035 A 
ATOM     17  C   UNL d   1      61.634  47.862  50.217  0.00  0.00     0.008 A 
ATOM     18  C   UNL d   1      61.233  48.548  50.405  0.00  0.00     0.010 A 
ENDBRANCH  12  14
ENDBRANCH  11  12
ENDBRANCH  10  11
ENDBRANCH   7  10
TORSDOF 4
ENDMDL
MODEL 2
REMARK VINA RESULT:      34.4      1.698      4.087
REMARK  4 active torsions:
REMARK  status: ('A' for Active; 'I' for Inactive)
REMARK    1  A    between atoms: C_3  and  C_1 
REMARK    2  A    between atoms: C_2  and  C_3 
REMARK    3  A    between atoms: C_6  and  C_2 
REMARK    4  A    between atoms: C_16  and  C_6 
ROOT
ATOM      1  C   UNL d   1      60.844  49.197  50.255  0.00  0.00     0.119 A 
ATOM      2  C   UNL d   1      61.364  49.269  50.887  0.00  0.00     0.119 A 
ATOM      3  O   UNL d   1      61.288  49.005  49.589  0.00  0.00    -0.300 OA
ATOM      4  O   UNL d   1      62.127  49.124  50.615  0.00  0.00    -0.300 OA
ATOM      5  C   UNL d   1      62.074  48.959  49.804  0.00  0.00     0.304 A 
ATOM      6  C   UNL d   1      60.035  49.314  50.370  0.00  0.00     0.026 A 
ATOM      7  C   UNL d   1      59.745  49.508  51.132  0.00  0.00     0.002 A 
ATOM      8  C   UNL d   1      61.074  49.463  51.649  0.00  0.00     0.026 A 
ATOM      9  C   UNL d   1      60.266  49.582  51.773  0.00  0.00     0.002 A 
ENDROOT
BRANCH   7  10
ATOM     10  C   UNL d   1      58.919  49.631  51.263  0.00  0.00     0.003 C 
BRANCH  10  11
ATOM     11  C   UNL d   1      58.394  49.504  50.636  0.00  0.00     0.043 C 
BRANCH  11  12
ATOM     12  C   UNL d   1      57.584  49.488  50.790  0.00  0.00     0.202 C 
ATOM     13  O   UNL d   1      57.308  49.643  51.551  0.00  0.00    -0.286 OA
BRANCH  12  14
ATOM     14  C   UNL d   1      57.047  49.317  50.189  0.00  0.00     0.068 A 
ATOM     15  S   UNL d   1      56.357  49.705  49.929  0.00  0.00    -0.083 SA
ATOM     16  C   UNL d   1      56.051  49.276  49.306  0.00  0.00     0.035 A 
ATOM     17  C   UNL d   1      56.533  48.636  49.177  0.00  0.00     0.008 A 
ATOM     18  C   UNL d   1      57.148  48.652  49.713  0.00  0.00     0.010 A 
ENDBRANCH  12  14
ENDBRANCH  11  12
ENDBRANCH  10  11
ENDBRANCH   7  10
TORSDOF 4
ENDMDL
