MODEL 1
REMARK VINA RESULT:      -2.8      0.000      0.000
REMARK  6 active torsions:
REMARK  status: ('A' for Active; 'I' for Inactive)
REMARK    1  A    between atoms: N_2  and  S_1 
REMARK    2  A    between atoms: C_6  and  S_1 
REMARK    3  A    between atoms: S_9  and  C_3 
REMARK    4  A    between atoms: N_4  and  C_10 
REMARK    5  A    between atoms: C_19  and  S_9 
REMARK    6  A    between atoms: C_21  and  C_19 
ROOT
ATOM      1  N   UNL d   1      32.774  18.027 -23.589  0.00  0.00    -0.208 N 
ATOM      2  C   UNL d   1      32.900  18.465 -22.894  0.00  0.00     0.189 A 
ATOM      3  N   UNL d   1      33.074  17.935 -22.282  0.00  0.00    -0.219 NA
ATOM      4  C   UNL d   1      32.871  17.221 -23.403  0.00  0.00     0.114 A 
ATOM      5  C   UNL d   1      33.056  17.170 -22.600  0.00  0.00     0.121 A 
ENDROOT
BRANCH   1   6
ATOM      6  S   UNL d   1      32.585  18.341 -24.333  0.00  0.00     0.273 S 
ATOM      7  O   UNL d   1      33.238  18.827 -24.254  0.00  0.00    -0.200 OA
ATOM      8  O   UNL d   1      32.602  18.793 -25.026  0.00  0.00    -0.200 OA
BRANCH   6   9
ATOM      9  C   UNL d   1      31.921  17.858 -24.431  0.00  0.00     0.104 A 
ATOM     10  C   UNL d   1      31.172  18.195 -24.418  0.00  0.00     0.015 A 
ATOM     11  C   UNL d   1      30.505  17.715 -24.515  0.00  0.00     0.024 A 
ATOM     12  C   UNL d   1      30.607  16.903 -24.624  0.00  0.00     0.127 A 
ATOM     13  C   UNL d   1      31.360  16.573 -24.636  0.00  0.00     0.024 A 
ATOM     14  C   UNL d   1      32.024  17.049 -24.539  0.00  0.00     0.015 A 
BRANCH  12  15
ATOM     15  N   UNL d   1      29.933  16.417 -24.723  0.00  0.00    -0.114 N 
ATOM     16  O   UNL d   1      30.015  15.677 -25.085  0.00  0.00    -0.532 OA
ATOM     17  O   UNL d   1      29.196  16.673 -24.462  0.00  0.00    -0.532 OA
ENDBRANCH  12  15
ENDBRANCH   6   9
ENDBRANCH   1   6
BRANCH   2  18
ATOM     18  S   UNL d   1      32.858  19.294 -22.826  0.00  0.00    -0.049 SA
BRANCH  18  19
ATOM     19  C   UNL d   1      33.240  19.674 -22.200  0.00  0.00     0.038 C 
BRANCH  19  20
ATOM     20  C   UNL d   1      32.979  20.415 -21.951  0.00  0.00     0.007 A 
ATOM     21  C   UNL d   1      33.195  21.095 -22.360  0.00  0.00     0.003 A 
ATOM     22  C   UNL d   1      32.922  21.837 -22.095  0.00  0.00     0.030 A 
ATOM     23  C   UNL d   1      32.439  21.888 -21.427  0.00  0.00     0.140 A 
ATOM     24  C   UNL d   1      32.222  21.211 -21.017  0.00  0.00     0.030 A 
ATOM     25  F   UNL d   1      32.173  22.625 -21.170  0.00  0.00    -0.204 F 
ATOM     26  C   UNL d   1      32.487  20.478 -21.273  0.00  0.00     0.003 A 
ENDBRANCH  19  20
ENDBRANCH  18  19
ENDBRANCH   2  18
TORSDOF 6
ENDMDL
MODEL 2
REMARK VINA RESULT:      -2.2      2.449      4.698
REMARK  6 active torsions:
REMARK  status: ('A' for Active; 'I' for Inactive)
REMARK    1  A    between atoms: N_2  and  S_1 
REMARK    2  A    between atoms: C_6  and  S_1 
REMARK    3  A    between atoms: S_9  and  C_3 
REMARK    4  A    between atoms: N_4  and  C_10 
REMARK    5  A    between atoms: C_19  and  S_9 
REMARK    6  A    between atoms: C_21  and  C_19 
ROOT
ATOM      1  N   UNL d   1      32.441  17.091 -23.887  0.00  0.00    -0.208 N 
ATOM      2  C   UNL d   1      31.944  16.446 -23.717  0.00  0.00     0.189 A 
ATOM      3  N   UNL d   1      32.350  15.934 -23.208  0.00  0.00    -0.219 NA
ATOM      4  C   UNL d   1      33.157  16.974 -23.479  0.00  0.00     0.114 A 
ATOM      5  C   UNL d   1      33.097  16.263 -23.064  0.00  0.00     0.121 A 
ENDROOT
BRANCH   1   6
ATOM      6  S   UNL d   1      32.252  17.734 -24.376  0.00  0.00     0.273 S 
ATOM      7  O   UNL d   1      32.136  17.194 -24.979  0.00  0.00    -0.200 OA
ATOM      8  O   UNL d   1      32.035  18.188 -25.033  0.00  0.00    -0.200 OA
BRANCH   6   9
ATOM      9  C   UNL d   1      32.365  18.294 -23.778  0.00  0.00     0.104 A 
ATOM     10  C   UNL d   1      33.124  18.560 -23.613  0.00  0.00     0.015 A 
ATOM     11  C   UNL d   1      33.241  19.120 -23.015  0.00  0.00     0.024 A 
ATOM     12  C   UNL d   1      32.589  19.402 -22.596  0.00  0.00     0.127 A 
ATOM     13  C   UNL d   1      31.831  19.132 -22.768  0.00  0.00     0.024 A 
ATOM     14  C   UNL d   1      31.713  18.574 -23.362  0.00  0.00     0.015 A 
BRANCH  12  15
ATOM     15  N   UNL d   1      32.705  19.969 -21.992  0.00  0.00    -0.114 N 
ATOM     16  O   UNL d   1      33.241  19.809 -21.381  0.00  0.00    -0.532 OA
ATOM     17  O   UNL d   1      32.290  20.680 -22.007  0.00  0.00    -0.532 OA
ENDBRANCH  12  15
ENDBRANCH   6   9
ENDBRANCH   1   6
BRANCH   2  18
ATOM     18  S   UNL d   1      31.171  16.337 -24.009  0.00  0.00    -0.049 SA
BRANCH  18  19
ATOM     19  C   UNL d   1      30.720  15.697 -23.744  0.00  0.00     0.038 C 
BRANCH  19  20
ATOM     20  C   UNL d   1      29.900  15.721 -23.811  0.00  0.00     0.007 A 
ATOM     21  C   UNL d   1      29.436  16.005 -23.193  0.00  0.00     0.003 A 
ATOM     22  C   UNL d   1      28.607  16.022 -23.276  0.00  0.00     0.030 A 
ATOM     23  C   UNL d   1      28.254  15.757 -23.974  0.00  0.00     0.140 A 
ATOM     24  C   UNL d   1      28.713  15.473 -24.592  0.00  0.00     0.030 A 
ATOM     25  F   UNL d   1      27.433  15.777 -24.049  0.00  0.00    -0.204 F 
ATOM     26  C   UNL d   1      29.529  15.453 -24.516  0.00  0.00     0.003 A 
ENDBRANCH  19  20
ENDBRANCH  18  19
ENDBRANCH   2  18
TORSDOF 6
ENDMDL
MODEL 3
REMARK VINA RESULT:      -1.5      2.711      5.047
REMARK  6 active torsions:
REMARK  status: ('A' for Active; 'I' for Inactive)
REMARK    1  A    between atoms: N_2  and  S_1 
REMARK    2  A    between atoms: C_6  and  S_1 
REMARK    3  A    between atoms: S_9  and  C_3 
REMARK    4  A    between atoms: N_4  and  C_10 
REMARK    5  A    between atoms: C_19  and  S_9 
REMARK    6  A    between atoms: C_21  and  C_19 
ROOT
ATOM      1  N   UNL d   1      32.990  20.058 -22.631  0.00  0.00    -0.208 N 
ATOM      2  C   UNL d   1      32.800  19.557 -23.267  0.00  0.00     0.189 A 
ATOM      3  N   UNL d   1      32.885  19.987 -23.970  0.00  0.00    -0.219 NA
ATOM      4  C   UNL d   1      33.192  20.802 -22.946  0.00  0.00     0.114 A 
ATOM      5  C   UNL d   1      33.126  20.753 -23.767  0.00  0.00     0.121 A 
ENDROOT
BRANCH   1   6
ATOM      6  S   UNL d   1      32.978  19.850 -21.829  0.00  0.00     0.273 S 
ATOM      7  O   UNL d   1      33.241  19.109 -22.055  0.00  0.00    -0.200 OA
ATOM      8  O   UNL d   1      33.047  19.422 -21.124  0.00  0.00    -0.200 OA
BRANCH   6   9
ATOM      9  C   UNL d   1      32.713  20.593 -21.582  0.00  0.00     0.104 A 
ATOM     10  C   UNL d   1      31.929  20.687 -21.356  0.00  0.00     0.015 A 
ATOM     11  C   UNL d   1      31.660  21.429 -21.109  0.00  0.00     0.024 A 
ATOM     12  C   UNL d   1      32.187  22.063 -21.093  0.00  0.00     0.127 A 
ATOM     13  C   UNL d   1      32.972  21.961 -21.320  0.00  0.00     0.024 A 
ATOM     14  C   UNL d   1      33.241  21.224 -21.567  0.00  0.00     0.015 A 
BRANCH  12  15
ATOM     15  N   UNL d   1      31.917  22.814 -20.843  0.00  0.00    -0.114 N 
ATOM     16  O   UNL d   1      31.851  22.974 -20.033  0.00  0.00    -0.532 OA
ATOM     17  O   UNL d   1      31.717  23.387 -21.398  0.00  0.00    -0.532 OA
ENDBRANCH  12  15
ENDBRANCH   6   9
ENDBRANCH   1   6
BRANCH   2  18
ATOM     18  S   UNL d   1      32.566  18.759 -23.206  0.00  0.00    -0.049 SA
BRANCH  18  19
ATOM     19  C   UNL d   1      32.385  18.332 -23.888  0.00  0.00     0.038 C 
BRANCH  19  20
ATOM     20  C   UNL d   1      31.963  17.627 -23.829  0.00  0.00     0.007 A 
ATOM     21  C   UNL d   1      32.302  16.963 -23.480  0.00  0.00     0.003 A 
ATOM     22  C   UNL d   1      31.862  16.257 -23.427  0.00  0.00     0.030 A 
ATOM     23  C   UNL d   1      31.092  16.225 -23.724  0.00  0.00     0.140 A 
ATOM     24  C   UNL d   1      30.751  16.885 -24.073  0.00  0.00     0.030 A 
ATOM     25  F   UNL d   1      30.662  15.523 -23.669  0.00  0.00    -0.204 F 
ATOM     26  C   UNL d   1      31.179  17.582 -24.128  0.00  0.00     0.003 A 
ENDBRANCH  19  20
ENDBRANCH  18  19
ENDBRANCH   2  18
TORSDOF 6
ENDMDL
MODEL 4
REMARK VINA RESULT:      -0.9      2.418      4.816
REMARK  6 active torsions:
REMARK  status: ('A' for Active; 'I' for Inactive)
REMARK    1  A    between atoms: N_2  and  S_1 
REMARK    2  A    between atoms: C_6  and  S_1 
REMARK    3  A    between atoms: S_9  and  C_3 
REMARK    4  A    between atoms: N_4  and  C_10 
REMARK    5  A    between atoms: C_19  and  S_9 
REMARK    6  A    between atoms: C_21  and  C_19 
ROOT
ATOM      1  N   UNL d   1      32.829  18.827 -23.744  0.00  0.00    -0.208 N 
ATOM      2  C   UNL d   1      32.303  18.580 -24.339  0.00  0.00     0.189 A 
ATOM      3  N   UNL d   1      32.388  19.088 -24.987  0.00  0.00    -0.219 NA
ATOM      4  C   UNL d   1      33.241  19.492 -24.029  0.00  0.00     0.114 A 
ATOM      5  C   UNL d   1      32.967  19.649 -24.792  0.00  0.00     0.121 A 
ENDROOT
BRANCH   1   6
ATOM      6  S   UNL d   1      32.923  18.471 -23.001  0.00  0.00     0.273 S 
ATOM      7  O   UNL d   1      33.028  17.762 -23.395  0.00  0.00    -0.200 OA
ATOM      8  O   UNL d   1      33.046  17.910 -22.405  0.00  0.00    -0.200 OA
BRANCH   6   9
ATOM      9  C   UNL d   1      32.820  19.179 -22.586  0.00  0.00     0.104 A 
ATOM     10  C   UNL d   1      33.235  19.302 -21.889  0.00  0.00     0.015 A 
ATOM     11  C   UNL d   1      33.134  20.009 -21.471  0.00  0.00     0.024 A 
ATOM     12  C   UNL d   1      32.615  20.579 -21.765  0.00  0.00     0.127 A 
ATOM     13  C   UNL d   1      32.202  20.448 -22.464  0.00  0.00     0.024 A 
ATOM     14  C   UNL d   1      32.301  19.746 -22.881  0.00  0.00     0.015 A 
BRANCH  12  15
ATOM     15  N   UNL d   1      32.512  21.294 -21.343  0.00  0.00    -0.114 N 
ATOM     16  O   UNL d   1      33.055  21.911 -21.448  0.00  0.00    -0.532 OA
ATOM     17  O   UNL d   1      31.876  21.382 -20.829  0.00  0.00    -0.532 OA
ENDBRANCH  12  15
ENDBRANCH   6   9
ENDBRANCH   1   6
BRANCH   2  18
ATOM     18  S   UNL d   1      31.780  17.933 -24.289  0.00  0.00    -0.049 SA
BRANCH  18  19
ATOM     19  C   UNL d   1      31.277  17.763 -24.922  0.00  0.00     0.038 C 
BRANCH  19  20
ATOM     20  C   UNL d   1      30.686  17.197 -24.832  0.00  0.00     0.007 A 
ATOM     21  C   UNL d   1      30.832  16.406 -25.010  0.00  0.00     0.003 A 
ATOM     22  C   UNL d   1      30.223  15.845 -24.914  0.00  0.00     0.030 A 
ATOM     23  C   UNL d   1      29.479  16.081 -24.644  0.00  0.00     0.140 A 
ATOM     24  C   UNL d   1      29.331  16.869 -24.467  0.00  0.00     0.030 A 
ATOM     25  F   UNL d   1      28.881  15.521 -24.552  0.00  0.00    -0.204 F 
ATOM     26  C   UNL d   1      29.925  17.425 -24.558  0.00  0.00     0.003 A 
ENDBRANCH  19  20
ENDBRANCH  18  19
ENDBRANCH   2  18
TORSDOF 6
ENDMDL
