MODEL 1
REMARK VINA RESULT:      -5.0      0.000      0.000
REMARK  5 active torsions:
REMARK  status: ('A' for Active; 'I' for Inactive)
REMARK    1  A    between atoms: C_4  and  S_1 
REMARK    2  A    between atoms: N_7  and  S_1 
REMARK    3  A    between atoms: C_8  and  C_2 
REMARK    4  A    between atoms: C_6  and  C_13 
REMARK    5  A    between atoms: C_13  and  N_7 
ROOT
ATOM      1  C   UNL d   1      56.077  -0.119  32.956  0.00  0.00     0.112 A 
ATOM      2  N   UNL d   1      56.526   0.351  32.436  0.00  0.00    -0.237 NA
ATOM      3  S   UNL d   1      56.147  -0.899  32.704  0.00  0.00    -0.066 SA
ATOM      4  C   UNL d   1      56.864  -0.142  31.874  0.00  0.00     0.108 A 
ATOM      5  C   UNL d   1      56.634  -0.913  32.034  0.00  0.00     0.058 A 
ENDROOT
BRANCH   4   6
ATOM      6  C   UNL d   1      57.356   0.102  31.250  0.00  0.00     0.132 C 
BRANCH   6   7
ATOM      7  N   UNL d   1      57.471  -0.384  30.597  0.00  0.00    -0.155 NA
BRANCH   7   8
ATOM      8  S   UNL d   1      58.028  -0.184  30.011  0.00  0.00     0.291 S 
ATOM      9  O   UNL d   1      57.643   0.534  29.889  0.00  0.00    -0.198 OA
ATOM     10  O   UNL d   1      58.414  -0.916  30.142  0.00  0.00    -0.198 OA
BRANCH   8  11
ATOM     11  C   UNL d   1      58.582   0.006  29.435  0.00  0.00     0.135 A 
ATOM     12  S   UNL d   1      58.573   0.658  28.969  0.00  0.00    -0.073 SA
ATOM     13  C   UNL d   1      59.224   0.639  28.467  0.00  0.00     0.036 A 
ATOM     14  C   UNL d   1      59.643  -0.053  28.638  0.00  0.00     0.008 A 
ATOM     15  C   UNL d   1      59.247  -0.449  29.239  0.00  0.00     0.020 A 
ENDBRANCH   8  11
ENDBRANCH   7   8
ENDBRANCH   6   7
ENDBRANCH   4   6
BRANCH   1  16
ATOM     16  C   UNL d   1      55.639   0.151  33.609  0.00  0.00     0.043 A 
ATOM     17  C   UNL d   1      56.042   0.344  34.302  0.00  0.00     0.101 A 
ATOM     18  N   UNL d   1      55.612   0.615  34.958  0.00  0.00    -0.242 NA
ATOM     19  C   UNL d   1      54.800   0.682  34.896  0.00  0.00     0.099 A 
ATOM     20  C   UNL d   1      54.398   0.486  34.195  0.00  0.00     0.021 A 
ATOM     21  C   UNL d   1      54.825   0.220  33.551  0.00  0.00     0.005 A 
ENDBRANCH   1  16
TORSDOF 5
ENDMDL
MODEL 2
REMARK VINA RESULT:      -4.8      1.553      5.204
REMARK  5 active torsions:
REMARK  status: ('A' for Active; 'I' for Inactive)
REMARK    1  A    between atoms: C_4  and  S_1 
REMARK    2  A    between atoms: N_7  and  S_1 
REMARK    3  A    between atoms: C_8  and  C_2 
REMARK    4  A    between atoms: C_6  and  C_13 
REMARK    5  A    between atoms: C_13  and  N_7 
ROOT
ATOM      1  C   UNL d   1      58.602  -0.516  29.579  0.00  0.00     0.112 A 
ATOM      2  N   UNL d   1      58.099  -0.624  30.233  0.00  0.00    -0.237 NA
ATOM      3  S   UNL d   1      58.574   0.282  29.378  0.00  0.00    -0.066 SA
ATOM      4  C   UNL d   1      57.771   0.102  30.425  0.00  0.00     0.108 A 
ATOM      5  C   UNL d   1      58.059   0.664  29.902  0.00  0.00     0.058 A 
ENDROOT
BRANCH   4   6
ATOM      6  C   UNL d   1      57.236   0.242  31.046  0.00  0.00     0.132 C 
BRANCH   6   7
ATOM      7  N   UNL d   1      57.309  -0.163  31.758  0.00  0.00    -0.155 NA
BRANCH   7   8
ATOM      8  S   UNL d   1      56.760  -0.044  32.373  0.00  0.00     0.291 S 
ATOM      9  O   UNL d   1      56.270  -0.621  32.049  0.00  0.00    -0.198 OA
ATOM     10  O   UNL d   1      57.264   0.542  32.696  0.00  0.00    -0.198 OA
BRANCH   8  11
ATOM     11  C   UNL d   1      56.224   0.080  32.983  0.00  0.00     0.135 A 
ATOM     12  S   UNL d   1      56.288   0.629  33.562  0.00  0.00    -0.073 SA
ATOM     13  C   UNL d   1      55.636   0.570  34.062  0.00  0.00     0.036 A 
ATOM     14  C   UNL d   1      55.161  -0.040  33.771  0.00  0.00     0.008 A 
ATOM     15  C   UNL d   1      55.522  -0.348  33.101  0.00  0.00     0.020 A 
ENDBRANCH   8  11
ENDBRANCH   7   8
ENDBRANCH   6   7
ENDBRANCH   4   6
BRANCH   1  16
ATOM     16  C   UNL d   1      59.050  -1.105  29.200  0.00  0.00     0.043 A 
ATOM     17  C   UNL d   1      59.782  -0.902  28.881  0.00  0.00     0.101 A 
ATOM     18  N   UNL d   1      60.233  -1.485  28.501  0.00  0.00    -0.242 NA
ATOM     19  C   UNL d   1      59.937  -2.245  28.455  0.00  0.00     0.099 A 
ATOM     20  C   UNL d   1      59.197  -2.445  28.778  0.00  0.00     0.021 A 
ATOM     21  C   UNL d   1      58.756  -1.868  29.151  0.00  0.00     0.005 A 
ENDBRANCH   1  16
TORSDOF 5
ENDMDL
MODEL 3
REMARK VINA RESULT:      -4.2      1.492      1.867
REMARK  5 active torsions:
REMARK  status: ('A' for Active; 'I' for Inactive)
REMARK    1  A    between atoms: C_4  and  S_1 
REMARK    2  A    between atoms: N_7  and  S_1 
REMARK    3  A    between atoms: C_8  and  C_2 
REMARK    4  A    between atoms: C_6  and  C_13 
REMARK    5  A    between atoms: C_13  and  N_7 
ROOT
ATOM      1  C   UNL d   1      56.713   0.084  32.135  0.00  0.00     0.112 A 
ATOM      2  N   UNL d   1      56.988  -0.641  31.830  0.00  0.00    -0.237 NA
ATOM      3  S   UNL d   1      56.948   0.674  31.612  0.00  0.00    -0.066 SA
ATOM      4  C   UNL d   1      57.384  -0.488  31.129  0.00  0.00     0.108 A 
ATOM      5  C   UNL d   1      57.363   0.320  30.989  0.00  0.00     0.058 A 
ENDROOT
BRANCH   4   6
ATOM      6  C   UNL d   1      57.746  -1.058  30.644  0.00  0.00     0.132 C 
BRANCH   6   7
ATOM      7  N   UNL d   1      58.219  -0.828  30.012  0.00  0.00    -0.155 NA
BRANCH   7   8
ATOM      8  S   UNL d   1      58.663  -1.390  29.587  0.00  0.00     0.291 S 
ATOM      9  O   UNL d   1      59.273  -0.844  29.501  0.00  0.00    -0.198 OA
ATOM     10  O   UNL d   1      58.037  -1.939  29.678  0.00  0.00    -0.198 OA
BRANCH   8  11
ATOM     11  C   UNL d   1      59.094  -1.950  29.168  0.00  0.00     0.135 A 
ATOM     12  S   UNL d   1      59.804  -1.831  28.816  0.00  0.00    -0.073 SA
ATOM     13  C   UNL d   1      60.046  -2.530  28.456  0.00  0.00     0.036 A 
ATOM     14  C   UNL d   1      59.458  -3.094  28.598  0.00  0.00     0.008 A 
ATOM     15  C   UNL d   1      58.864  -2.737  29.040  0.00  0.00     0.020 A 
ENDBRANCH   8  11
ENDBRANCH   7   8
ENDBRANCH   6   7
ENDBRANCH   4   6
BRANCH   1  16
ATOM     16  C   UNL d   1      56.282   0.189  32.839  0.00  0.00     0.043 A 
ATOM     17  C   UNL d   1      55.514  -0.105  32.879  0.00  0.00     0.101 A 
ATOM     18  N   UNL d   1      55.078  -0.004  33.577  0.00  0.00    -0.242 NA
ATOM     19  C   UNL d   1      55.426   0.387  34.206  0.00  0.00     0.099 A 
ATOM     20  C   UNL d   1      56.202   0.682  34.160  0.00  0.00     0.021 A 
ATOM     21  C   UNL d   1      56.628   0.580  33.470  0.00  0.00     0.005 A 
ENDBRANCH   1  16
TORSDOF 5
ENDMDL
