MODEL 1
REMARK VINA RESULT:      -1.8      0.000      0.000
REMARK  4 active torsions:
REMARK  status: ('A' for Active; 'I' for Inactive)
REMARK    1  A    between atoms: C_7  and  C_1 
REMARK    2  A    between atoms: C_9  and  C_3 
REMARK    3  A    between atoms: O_13  and  C_7 
REMARK    4  A    between atoms: C_18  and  O_13 
ROOT
ATOM      1  C   UNL d   1      31.199  17.191 -24.513  0.00  0.00     0.099 A 
ATOM      2  C   UNL d   1      30.797  17.786 -24.890  0.00  0.00     0.093 A 
ATOM      3  C   UNL d   1      32.010  17.298 -24.305  0.00  0.00     0.093 A 
ATOM      4  C   UNL d   1      31.977  18.599 -24.865  0.00  0.00     0.369 A 
ATOM      5  N   UNL d   1      31.192  18.509 -25.072  0.00  0.00    -0.191 NA
ATOM      6  N   UNL d   1      32.390  17.989 -24.478  0.00  0.00    -0.191 NA
ATOM      7  O   UNL d   1      32.353  19.324 -25.054  0.00  0.00    -0.242 OA
ATOM      8  C   UNL d   1      30.007  17.692 -25.097  0.00  0.00     0.021 C 
ENDROOT
BRANCH   3   9
ATOM      9  C   UNL d   1      32.424  16.684 -23.917  0.00  0.00     0.018 A 
ATOM     10  C   UNL d   1      32.753  16.055 -24.368  0.00  0.00     0.002 A 
ATOM     11  C   UNL d   1      33.160  15.453 -23.987  0.00  0.00     0.000 A 
ATOM     12  C   UNL d   1      33.241  15.475 -23.151  0.00  0.00     0.000 A 
ATOM     13  C   UNL d   1      32.919  16.089 -22.724  0.00  0.00     0.000 A 
ATOM     14  C   UNL d   1      32.506  16.699 -23.111  0.00  0.00     0.002 A 
ENDBRANCH   3   9
BRANCH   1  15
ATOM     15  C   UNL d   1      30.810  16.471 -24.330  0.00  0.00     0.303 C 
ATOM     16  O   UNL d   1      30.964  15.786 -24.761  0.00  0.00    -0.259 OA
BRANCH  15  17
ATOM     17  O   UNL d   1      30.276  16.461 -23.720  0.00  0.00    -0.271 OA
BRANCH  17  18
ATOM     18  C   UNL d   1      29.706  15.863 -23.684  0.00  0.00     0.126 C 
ATOM     19  C   UNL d   1      29.215  15.806 -23.044  0.00  0.00     0.029 C 
ENDBRANCH  17  18
ENDBRANCH  15  17
ENDBRANCH   1  15
TORSDOF 4
ENDMDL
MODEL 2
REMARK VINA RESULT:      -1.6      1.296      2.382
REMARK  4 active torsions:
REMARK  status: ('A' for Active; 'I' for Inactive)
REMARK    1  A    between atoms: C_7  and  C_1 
REMARK    2  A    between atoms: C_9  and  C_3 
REMARK    3  A    between atoms: O_13  and  C_7 
REMARK    4  A    between atoms: C_18  and  O_13 
ROOT
ATOM      1  C   UNL d   1      30.897  17.193 -24.359  0.00  0.00     0.099 A 
ATOM      2  C   UNL d   1      30.160  17.496 -24.509  0.00  0.00     0.093 A 
ATOM      3  C   UNL d   1      30.983  16.380 -24.150  0.00  0.00     0.093 A 
ATOM      4  C   UNL d   1      29.579  16.210 -24.251  0.00  0.00     0.369 A 
ATOM      5  N   UNL d   1      29.483  16.996 -24.455  0.00  0.00    -0.191 NA
ATOM      6  N   UNL d   1      30.336  15.900 -24.098  0.00  0.00    -0.191 NA
ATOM      7  O   UNL d   1      28.895  15.730 -24.203  0.00  0.00    -0.242 OA
ATOM      8  C   UNL d   1      30.065  18.286 -24.714  0.00  0.00     0.021 C 
ENDROOT
BRANCH   3   9
ATOM      9  C   UNL d   1      31.743  16.068 -23.996  0.00  0.00     0.018 A 
ATOM     10  C   UNL d   1      32.241  15.852 -24.639  0.00  0.00     0.002 A 
ATOM     11  C   UNL d   1      32.987  15.545 -24.487  0.00  0.00     0.000 A 
ATOM     12  C   UNL d   1      33.241  15.453 -23.692  0.00  0.00     0.000 A 
ATOM     13  C   UNL d   1      32.750  15.665 -23.078  0.00  0.00     0.000 A 
ATOM     14  C   UNL d   1      31.994  15.976 -23.231  0.00  0.00     0.002 A 
ENDBRANCH   3   9
BRANCH   1  15
ATOM     15  C   UNL d   1      31.572  17.686 -24.412  0.00  0.00     0.303 C 
ATOM     16  O   UNL d   1      32.032  17.704 -25.096  0.00  0.00    -0.259 OA
BRANCH  15  17
ATOM     17  O   UNL d   1      31.768  18.149 -23.775  0.00  0.00    -0.271 OA
BRANCH  17  18
ATOM     18  C   UNL d   1      32.303  18.772 -23.871  0.00  0.00     0.126 C 
ATOM     19  C   UNL d   1      32.500  19.240 -23.241  0.00  0.00     0.029 C 
ENDBRANCH  17  18
ENDBRANCH  15  17
ENDBRANCH   1  15
TORSDOF 4
ENDMDL
MODEL 3
REMARK VINA RESULT:      -1.5      1.509      2.669
REMARK  4 active torsions:
REMARK  status: ('A' for Active; 'I' for Inactive)
REMARK    1  A    between atoms: C_7  and  C_1 
REMARK    2  A    between atoms: C_9  and  C_3 
REMARK    3  A    between atoms: O_13  and  C_7 
REMARK    4  A    between atoms: C_18  and  O_13 
ROOT
ATOM      1  C   UNL d   1      31.716  16.709 -23.800  0.00  0.00     0.099 A 
ATOM      2  C   UNL d   1      31.511  15.968 -23.541  0.00  0.00     0.093 A 
ATOM      3  C   UNL d   1      32.447  17.052 -23.556  0.00  0.00     0.093 A 
ATOM      4  C   UNL d   1      32.736  15.890 -22.799  0.00  0.00     0.369 A 
ATOM      5  N   UNL d   1      32.031  15.545 -23.028  0.00  0.00    -0.191 NA
ATOM      6  N   UNL d   1      32.946  16.649 -23.065  0.00  0.00    -0.191 NA
ATOM      7  O   UNL d   1      33.239  15.454 -22.289  0.00  0.00    -0.242 OA
ATOM      8  C   UNL d   1      30.802  15.624 -23.773  0.00  0.00     0.021 C 
ENDROOT
BRANCH   3   9
ATOM      9  C   UNL d   1      32.658  17.816 -23.823  0.00  0.00     0.018 A 
ATOM     10  C   UNL d   1      32.562  18.476 -23.310  0.00  0.00     0.002 A 
ATOM     11  C   UNL d   1      32.769  19.226 -23.573  0.00  0.00     0.000 A 
ATOM     12  C   UNL d   1      33.073  19.321 -24.350  0.00  0.00     0.000 A 
ATOM     13  C   UNL d   1      33.161  18.675 -24.837  0.00  0.00     0.000 A 
ATOM     14  C   UNL d   1      32.951  17.915 -24.571  0.00  0.00     0.002 A 
ENDBRANCH   3   9
BRANCH   1  15
ATOM     15  C   UNL d   1      31.202  17.132 -24.310  0.00  0.00     0.303 C 
ATOM     16  O   UNL d   1      31.405  17.268 -25.097  0.00  0.00    -0.259 OA
BRANCH  15  17
ATOM     17  O   UNL d   1      30.499  17.407 -24.014  0.00  0.00    -0.271 OA
BRANCH  17  18
ATOM     18  C   UNL d   1      29.834  17.442 -24.503  0.00  0.00     0.126 C 
ATOM     19  C   UNL d   1      29.237  17.963 -24.343  0.00  0.00     0.029 C 
ENDBRANCH  17  18
ENDBRANCH  15  17
ENDBRANCH   1  15
TORSDOF 4
ENDMDL
MODEL 4
REMARK VINA RESULT:       0.8      5.300      6.791
REMARK  4 active torsions:
REMARK  status: ('A' for Active; 'I' for Inactive)
REMARK    1  A    between atoms: C_7  and  C_1 
REMARK    2  A    between atoms: C_9  and  C_3 
REMARK    3  A    between atoms: O_13  and  C_7 
REMARK    4  A    between atoms: C_18  and  O_13 
ROOT
ATOM      1  C   UNL d   1      32.876  22.111 -21.995  0.00  0.00     0.099 A 
ATOM      2  C   UNL d   1      33.054  21.544 -22.547  0.00  0.00     0.093 A 
ATOM      3  C   UNL d   1      32.783  21.895 -21.185  0.00  0.00     0.093 A 
ATOM      4  C   UNL d   1      33.054  20.544 -21.519  0.00  0.00     0.369 A 
ATOM      5  N   UNL d   1      33.147  20.741 -22.307  0.00  0.00    -0.191 NA
ATOM      6  N   UNL d   1      32.871  21.126 -20.953  0.00  0.00    -0.191 NA
ATOM      7  O   UNL d   1      33.150  19.741 -21.300  0.00  0.00    -0.242 OA
ATOM      8  C   UNL d   1      33.147  21.744 -23.339  0.00  0.00     0.021 C 
ENDROOT
BRANCH   3   9
ATOM      9  C   UNL d   1      32.599  22.479 -20.616  0.00  0.00     0.018 A 
ATOM     10  C   UNL d   1      33.200  22.757 -20.097  0.00  0.00     0.002 A 
ATOM     11  C   UNL d   1      33.019  23.331 -19.538  0.00  0.00     0.000 A 
ATOM     12  C   UNL d   1      32.236  23.631 -19.495  0.00  0.00     0.000 A 
ATOM     13  C   UNL d   1      31.663  23.356 -20.003  0.00  0.00     0.000 A 
ATOM     14  C   UNL d   1      31.846  22.774 -20.569  0.00  0.00     0.002 A 
ENDBRANCH   3   9
BRANCH   1  15
ATOM     15  C   UNL d   1      32.783  22.911 -22.229  0.00  0.00     0.303 C 
ATOM     16  O   UNL d   1      33.240  23.507 -21.891  0.00  0.00    -0.259 OA
BRANCH  15  17
ATOM     17  O   UNL d   1      32.233  23.089 -22.798  0.00  0.00    -0.271 OA
BRANCH  17  18
ATOM     18  C   UNL d   1      32.384  23.696 -23.338  0.00  0.00     0.126 C 
ATOM     19  C   UNL d   1      32.043  23.684 -24.071  0.00  0.00     0.029 C 
ENDBRANCH  17  18
ENDBRANCH  15  17
ENDBRANCH   1  15
TORSDOF 4
ENDMDL
