MODEL 1
REMARK VINA RESULT:      97.2      0.000      0.000
REMARK  4 active torsions:
REMARK  status: ('A' for Active; 'I' for Inactive)
REMARK    1  A    between atoms: C_11  and  N_3 
REMARK    2  A    between atoms: C_10  and  C_5 
REMARK    3  A    between atoms: C_21  and  C_11 
REMARK    4  A    between atoms: N_12  and  C_21 
ROOT
ATOM      1  C   UNL d   1      58.999  49.692  51.538  0.00  0.00     0.085 A 
ATOM      2  C   UNL d   1      59.552  49.694  50.911  0.00  0.00     0.161 A 
ATOM      3  N   UNL d   1      60.225  49.688  52.071  0.00  0.00    -0.268 N 
ATOM      4  C   UNL d   1      60.305  49.691  51.244  0.00  0.00     0.288 A 
ATOM      5  C   UNL d   1      59.419  49.689  52.248  0.00  0.00     0.095 A 
ATOM      6  C   UNL d   1      58.185  49.694  51.368  0.00  0.00     0.201 A 
ATOM      7  O   UNL d   1      59.288  49.697  50.130  0.00  0.00    -0.302 OA
ATOM      8  C   UNL d   1      57.932  49.697  50.579  0.00  0.00     0.063 A 
ATOM      9  C   UNL d   1      58.482  49.699  49.956  0.00  0.00     0.103 A 
ATOM     10  O   UNL d   1      61.022  49.692  50.828  0.00  0.00    -0.264 OA
ATOM     11  O   UNL d   1      57.636  49.692  51.982  0.00  0.00    -0.286 OA
ATOM     12  C   UNL d   1      57.124  49.699  50.415  0.00  0.00     0.017 A 
ATOM     13  C   UNL d   1      58.213  49.702  49.181  0.00  0.00     0.026 A 
ATOM     14  C   UNL d   1      56.863  49.702  49.636  0.00  0.00     0.058 A 
ATOM     15  C   UNL d   1      57.408  49.704  49.019  0.00  0.00     0.013 A 
ATOM     16 CL   UNL d   1      56.058  49.704  49.474  0.00  0.00    -0.082 Cl
ENDROOT
BRANCH   3  17
ATOM     17  C   UNL d   1      60.842  49.685  52.616  0.00  0.00     0.102 C 
BRANCH  17  18
ATOM     18  C   UNL d   1      61.576  49.364  52.417  0.00  0.00     0.100 C 
BRANCH  18  19
ATOM     19  N   UNL d   1      61.958  48.844  52.928  0.00  0.00    -0.298 N 
ATOM     20  C   UNL d   1      62.403  49.139  53.545  0.00  0.00     0.107 A 
ATOM     21  C   UNL d   1      62.784  48.619  54.057  0.00  0.00     0.142 A 
ATOM     22  O   UNL d   1      62.717  47.809  53.945  0.00  0.00    -0.300 OA
ATOM     23  C   UNL d   1      62.267  47.518  53.322  0.00  0.00     0.142 A 
ATOM     24  C   UNL d   1      61.886  48.038  52.811  0.00  0.00     0.107 A 
ENDBRANCH  18  19
ENDBRANCH  17  18
ENDBRANCH   3  17
BRANCH   5  25
ATOM     25  C   UNL d   1      59.051  49.686  52.987  0.00  0.00     0.116 A 
ATOM     26  O   UNL d   1      58.232  49.686  53.133  0.00  0.00    -0.304 OA
ATOM     27  C   UNL d   1      58.116  49.683  53.950  0.00  0.00     0.123 A 
ATOM     28  C   UNL d   1      58.855  49.682  54.317  0.00  0.00     0.029 A 
ATOM     29  C   UNL d   1      59.435  49.684  53.723  0.00  0.00     0.028 A 
ENDBRANCH   5  25
TORSDOF 4
ENDMDL
