MODEL 1
REMARK VINA RESULT:      28.5      0.000      0.000
REMARK  5 active torsions:
REMARK  status: ('A' for Active; 'I' for Inactive)
REMARK    1  A    between atoms: C_13  and  C_5 
REMARK    2  A    between atoms: C_16  and  C_13 
REMARK    3  A    between atoms: C_19  and  C_16 
REMARK    4  A    between atoms: C_17  and  C_18 
REMARK    5  A    between atoms: C_18  and  C_19 
ROOT
ATOM      1  C   UNL d   1      59.891  49.705  50.277  0.00  0.00     0.111 A 
ATOM      2  C   UNL d   1      60.354  49.705  51.642  0.00  0.00     0.062 A 
ATOM      3  C   UNL d   1      60.660  49.703  50.016  0.00  0.00     0.213 A 
ATOM      4  C   UNL d   1      61.158  49.703  51.353  0.00  0.00     0.105 A 
ATOM      5  C   UNL d   1      59.728  49.706  51.105  0.00  0.00     0.018 A 
ATOM      6  O   UNL d   1      61.321  49.702  50.575  0.00  0.00    -0.287 OA
ATOM      7  C   UNL d   1      59.265  49.705  49.738  0.00  0.00     0.105 C 
ATOM      8  C   UNL d   1      60.218  49.706  52.450  0.00  0.00     0.198 A 
ATOM      9  N   UNL d   1      58.624  49.706  49.189  0.00  0.00    -0.191 NA
ATOM     10  N   UNL d   1      60.844  49.702  49.169  0.00  0.00    -0.120 N 
ATOM     11  O   UNL d   1      59.420  49.708  52.709  0.00  0.00    -0.286 OA
ATOM     12  C   UNL d   1      61.795  49.703  51.903  0.00  0.00     0.025 A 
ATOM     13  C   UNL d   1      60.850  49.705  52.985  0.00  0.00     0.042 A 
ATOM     14  C   UNL d   1      61.638  49.704  52.718  0.00  0.00     0.005 A 
ENDROOT
BRANCH   5  15
ATOM     15  C   UNL d   1      58.964  49.707  51.364  0.00  0.00     0.001 C 
BRANCH  15  16
ATOM     16  C   UNL d   1      58.356  49.473  50.881  0.00  0.00     0.000 C 
BRANCH  16  17
ATOM     17  C   UNL d   1      57.542  49.468  51.142  0.00  0.00     0.000 C 
BRANCH  17  18
ATOM     18  C   UNL d   1      56.952  49.258  50.613  0.00  0.00     0.000 C 
BRANCH  18  19
ATOM     19  C   UNL d   1      56.982  49.569  49.852  0.00  0.00     0.000 C 
ATOM     20  C   UNL d   1      56.302  49.660  49.426  0.00  0.00     0.000 C 
ENDBRANCH  18  19
ENDBRANCH  17  18
ENDBRANCH  16  17
ENDBRANCH  15  16
ENDBRANCH   5  15
TORSDOF 5
ENDMDL
