MODEL 1
REMARK VINA RESULT:      34.7      0.000      0.000
REMARK  9 active torsions:
REMARK  status: ('A' for Active; 'I' for Inactive)
REMARK    1  A    between atoms: C_17  and  N_4 
REMARK    2  A    between atoms: S_16  and  C_7 
REMARK    3  A    between atoms: S_15  and  C_8 
REMARK    4  A    between atoms: C_11  and  C_19 
REMARK    5  A    between atoms: C_22  and  S_15 
REMARK    6  A    between atoms: C_19  and  S_16 
REMARK    7  A    between atoms: C_20  and  C_22 
REMARK    8  A    between atoms: O_25  and  C_20 
REMARK    9  A    between atoms: C_29  and  O_25 
ROOT
ATOM      1  N   UNL d   1      46.113 -18.261  43.529  0.00  0.00    -0.269 N 
ATOM      2  C   UNL d   1      46.391 -18.273  42.740  0.00  0.00     0.201 A 
ATOM      3  C   UNL d   1      45.995 -17.481  43.747  0.00  0.00     0.177 A 
ATOM      4  N   UNL d   1      46.444 -17.493  42.473  0.00  0.00    -0.121 NA
ATOM      5  N   UNL d   1      46.198 -17.015  43.101  0.00  0.00    -0.127 NA
ENDROOT
BRANCH   3   6
ATOM      6  C   UNL d   1      45.723 -17.306  44.496  0.00  0.00     0.078 C 
BRANCH   6   7
ATOM      7  S   UNL d   1      46.087 -16.717  44.954  0.00  0.00    -0.045 SA
BRANCH   7   8
ATOM      8  C   UNL d   1      45.876 -15.906  44.878  0.00  0.00     0.198 A 
ATOM      9  N   UNL d   1      45.079 -15.694  44.728  0.00  0.00    -0.183 NA
ATOM     10  C   UNL d   1      44.868 -14.908  44.652  0.00  0.00     0.283 A 
ATOM     11  C   UNL d   1      45.425 -14.308  44.721  0.00  0.00     0.082 A 
ATOM     12  O   UNL d   1      44.051 -14.714  44.500  0.00  0.00    -0.265 OA
ATOM     13  C   UNL d   1      46.214 -14.497  44.869  0.00  0.00     0.117 A 
ATOM     14  C   UNL d   1      45.372 -13.502  44.672  0.00  0.00     0.013 A 
ATOM     15  N   UNL d   1      46.455 -15.282  44.949  0.00  0.00    -0.214 NA
ATOM     16  S   UNL d   1      46.647 -13.813  44.911  0.00  0.00    -0.068 SA
ATOM     17  C   UNL d   1      46.122 -13.192  44.789  0.00  0.00     0.031 A 
ATOM     18  C   UNL d   1      46.045 -12.371  44.735  0.00  0.00     0.006 A 
ATOM     19  C   UNL d   1      45.280 -12.162  44.591  0.00  0.00     0.001 A 
ATOM     20  C   UNL d   1      44.848 -12.882  44.550  0.00  0.00     0.001 A 
ENDBRANCH   7   8
ENDBRANCH   6   7
ENDBRANCH   3   6
BRANCH   1  21
ATOM     21  C   UNL d   1      45.991 -18.943  43.981  0.00  0.00     0.067 A 
ATOM     22  C   UNL d   1      45.264 -19.334  43.957  0.00  0.00     0.018 A 
ATOM     23  C   UNL d   1      45.163 -20.033  44.431  0.00  0.00     0.002 A 
ATOM     24  C   UNL d   1      45.767 -20.316  44.902  0.00  0.00     0.000 A 
ATOM     25  C   UNL d   1      46.503 -19.921  44.928  0.00  0.00     0.002 A 
ATOM     26  C   UNL d   1      46.617 -19.240  44.472  0.00  0.00     0.018 A 
ENDBRANCH   1  21
BRANCH   2  27
ATOM     27  S   UNL d   1      46.597 -18.945  42.255  0.00  0.00    -0.042 SA
BRANCH  27  28
ATOM     28  C   UNL d   1      46.644 -18.839  41.441  0.00  0.00     0.107 C 
BRANCH  28  29
ATOM     29  C   UNL d   1      46.121 -19.245  40.933  0.00  0.00     0.307 C 
ATOM     30  O   UNL d   1      46.204 -20.059  40.810  0.00  0.00    -0.258 OA
BRANCH  29  31
ATOM     31  O   UNL d   1      45.526 -18.816  40.560  0.00  0.00    -0.271 OA
BRANCH  31  32
ATOM     32  C   UNL d   1      45.367 -18.903  39.750  0.00  0.00     0.126 C 
ATOM     33  C   UNL d   1      44.887 -18.370  39.343  0.00  0.00     0.029 C 
ENDBRANCH  31  32
ENDBRANCH  29  31
ENDBRANCH  28  29
ENDBRANCH  27  28
ENDBRANCH   2  27
TORSDOF 9
ENDMDL
