MODEL 1
REMARK VINA RESULT:      57.9      0.000      0.000
REMARK  4 active torsions:
REMARK  status: ('A' for Active; 'I' for Inactive)
REMARK    1  A    between atoms: C_9  and  C_3 
REMARK    2  A    between atoms: C_11  and  C_8 
REMARK    3  A    between atoms: N_10  and  C_11 
REMARK    4  A    between atoms: C_18  and  N_10 
ROOT
ATOM      1  N   UNL d   1     -47.900  29.988  35.111  0.00  0.00    -0.267 N 
ATOM      2  C   UNL d   1     -47.685  29.501  35.741  0.00  0.00     0.201 A 
ATOM      3  C   UNL d   1     -47.615  30.749  35.271  0.00  0.00     0.171 A 
ATOM      4  N   UNL d   1     -47.229  30.724  35.993  0.00  0.00    -0.128 NA
ATOM      5  N   UNL d   1     -47.272  29.954  36.283  0.00  0.00    -0.121 NA
ATOM      6  S   UNL d   1     -47.971  28.740  35.582  0.00  0.00    -0.045 SA
ATOM      7  C   UNL d   1     -48.318  29.533  34.563  0.00  0.00     0.091 A 
ATOM      8  C   UNL d   1     -48.361  28.763  34.853  0.00  0.00     0.069 A 
ENDROOT
BRANCH   3   9
ATOM      9  C   UNL d   1     -47.708  31.412  34.781  0.00  0.00     0.036 A 
ATOM     10  C   UNL d   1     -47.049  31.734  34.405  0.00  0.00     0.004 A 
ATOM     11  C   UNL d   1     -47.134  32.394  33.915  0.00  0.00     0.007 A 
ATOM     12  C   UNL d   1     -47.881  32.727  33.807  0.00  0.00     0.035 A 
ATOM     13  C   UNL d   1     -48.539  32.411  34.179  0.00  0.00     0.007 A 
ATOM     14 BR   UNL d   1     -47.976  33.383  33.323  0.00  0.00    -0.049 Br
ATOM     15  C   UNL d   1     -48.445  31.749  34.668  0.00  0.00     0.004 A 
ENDBRANCH   3   9
BRANCH   8  16
ATOM     16  C   UNL d   1     -48.727  28.125  34.487  0.00  0.00     0.107 C 
BRANCH  16  17
ATOM     17  N   UNL d   1     -49.383  28.253  33.997  0.00  0.00    -0.243 NA
BRANCH  17  18
ATOM     18  C   UNL d   1     -49.842  27.613  33.740  0.00  0.00     0.081 A 
ATOM     19  C   UNL d   1     -50.614  27.827  33.551  0.00  0.00     0.019 A 
ATOM     20  C   UNL d   1     -51.003  27.135  33.306  0.00  0.00     0.002 A 
ATOM     21  C   UNL d   1     -50.464  26.507  33.347  0.00  0.00     0.002 A 
ATOM     22  C   UNL d   1     -49.746  26.802  33.616  0.00  0.00     0.019 A 
ENDBRANCH  17  18
ENDBRANCH  16  17
ENDBRANCH   8  16
TORSDOF 4
ENDMDL
MODEL 2
REMARK VINA RESULT:      58.5      3.333      6.471
REMARK  4 active torsions:
REMARK  status: ('A' for Active; 'I' for Inactive)
REMARK    1  A    between atoms: C_9  and  C_3 
REMARK    2  A    between atoms: C_11  and  C_8 
REMARK    3  A    between atoms: N_10  and  C_11 
REMARK    4  A    between atoms: C_18  and  N_10 
ROOT
ATOM      1  N   UNL d   1     -50.645  25.365  33.698  0.00  0.00    -0.267 N 
ATOM      2  C   UNL d   1     -49.851  25.149  33.638  0.00  0.00     0.201 A 
ATOM      3  C   UNL d   1     -51.103  24.706  33.491  0.00  0.00     0.171 A 
ATOM      4  N   UNL d   1     -50.589  24.094  33.307  0.00  0.00    -0.128 NA
ATOM      5  N   UNL d   1     -49.817  24.368  33.397  0.00  0.00    -0.121 NA
ATOM      6  S   UNL d   1     -49.393  25.808  33.844  0.00  0.00    -0.045 SA
ATOM      7  C   UNL d   1     -50.682  26.153  33.940  0.00  0.00     0.091 A 
ATOM      8  C   UNL d   1     -49.910  26.427  34.031  0.00  0.00     0.069 A 
ENDROOT
BRANCH   3   9
ATOM      9  C   UNL d   1     -51.932  24.679  33.476  0.00  0.00     0.036 A 
ATOM     10  C   UNL d   1     -52.317  23.965  33.619  0.00  0.00     0.004 A 
ATOM     11  C   UNL d   1     -53.142  23.930  33.606  0.00  0.00     0.007 A 
ATOM     12  C   UNL d   1     -53.575  24.615  33.449  0.00  0.00     0.035 A 
ATOM     13  C   UNL d   1     -53.197  25.327  33.307  0.00  0.00     0.007 A 
ATOM     14 BR   UNL d   1     -54.396  24.591  33.434  0.00  0.00    -0.049 Br
ATOM     15  C   UNL d   1     -52.369  25.353  33.322  0.00  0.00     0.004 A 
ENDBRANCH   3   9
BRANCH   8  16
ATOM     16  C   UNL d   1     -49.685  27.182  34.265  0.00  0.00     0.107 C 
BRANCH  16  17
ATOM     17  N   UNL d   1     -48.925  27.307  34.570  0.00  0.00    -0.243 NA
BRANCH  17  18
ATOM     18  C   UNL d   1     -48.761  27.991  35.009  0.00  0.00     0.081 A 
ATOM     19  C   UNL d   1     -48.146  28.437  34.691  0.00  0.00     0.019 A 
ATOM     20  C   UNL d   1     -48.046  29.097  35.185  0.00  0.00     0.002 A 
ATOM     21  C   UNL d   1     -48.600  29.047  35.799  0.00  0.00     0.002 A 
ATOM     22  C   UNL d   1     -49.042  28.363  35.691  0.00  0.00     0.019 A 
ENDBRANCH  17  18
ENDBRANCH  16  17
ENDBRANCH   8  16
TORSDOF 4
ENDMDL
