MODEL 1
REMARK VINA RESULT:      58.6      0.000      0.000
REMARK  3 active torsions:
REMARK  status: ('A' for Active; 'I' for Inactive)
REMARK    1  A    between atoms: N_6  and  C_2 
REMARK    2  A    between atoms: C_8  and  C_5 
REMARK    3  A    between atoms: C_9  and  N_7 
ROOT
ATOM      1  N   UNL d   1      14.241  13.783  -2.914  0.00  0.00    -0.281 N 
ATOM      2  N   UNL d   1      13.953  14.911  -4.069  0.00  0.00    -0.301 N 
ATOM      3  C   UNL d   1      14.337  14.584  -2.735  0.00  0.00     0.101 A 
ATOM      4  C   UNL d   1      14.000  13.549  -3.674  0.00  0.00     0.101 A 
ATOM      5  C   UNL d   1      13.860  14.118  -4.239  0.00  0.00     0.100 A 
ATOM      6  C   UNL d   1      14.193  15.141  -3.311  0.00  0.00     0.100 A 
ENDROOT
BRANCH   1   7
ATOM      7  C   UNL d   1      14.387  13.216  -2.330  0.00  0.00     0.183 A 
ATOM      8  N   UNL d   1      15.090  12.814  -2.205  0.00  0.00    -0.183 NA
ATOM      9  C   UNL d   1      14.987  12.301  -1.564  0.00  0.00     0.287 A 
ATOM     10  C   UNL d   1      14.208  12.394  -1.297  0.00  0.00     0.090 A 
ATOM     11  O   UNL d   1      15.549  11.797  -1.254  0.00  0.00    -0.265 OA
ATOM     12  S   UNL d   1      13.835  12.955  -1.765  0.00  0.00    -0.045 SA
BRANCH  10  13
ATOM     13  C   UNL d   1      13.871  11.985  -0.664  0.00  0.00     0.011 C 
ATOM     14  C   UNL d   1      13.071  11.779  -0.674  0.00  0.00     0.001 C 
ATOM     15  C   UNL d   1      14.336  11.780  -0.014  0.00  0.00     0.001 C 
ENDBRANCH  10  13
ENDBRANCH   1   7
BRANCH   2  16
ATOM     16  C   UNL d   1      13.808  15.483  -4.651  0.00  0.00     0.064 A 
ATOM     17  C   UNL d   1      14.427  15.959  -4.915  0.00  0.00     0.018 A 
ATOM     18  C   UNL d   1      14.279  16.529  -5.497  0.00  0.00     0.002 A 
ATOM     19  C   UNL d   1      13.523  16.620  -5.809  0.00  0.00     0.000 A 
ATOM     20  C   UNL d   1      12.906  16.136  -5.536  0.00  0.00     0.002 A 
ATOM     21  C   UNL d   1      13.376  17.188  -6.388  0.00  0.00     0.000 C 
ATOM     22  C   UNL d   1      13.051  15.565  -4.955  0.00  0.00     0.018 A 
ENDBRANCH   2  16
TORSDOF 3
ENDMDL
MODEL 2
REMARK VINA RESULT:      59.1      1.624      2.225
REMARK  3 active torsions:
REMARK  status: ('A' for Active; 'I' for Inactive)
REMARK    1  A    between atoms: N_6  and  C_2 
REMARK    2  A    between atoms: C_8  and  C_5 
REMARK    3  A    between atoms: C_9  and  N_7 
ROOT
ATOM      1  N   UNL d   1      13.549  14.579  -4.591  0.00  0.00    -0.281 N 
ATOM      2  N   UNL d   1      13.767  16.095  -5.179  0.00  0.00    -0.301 N 
ATOM      3  C   UNL d   1      13.891  15.157  -4.111  0.00  0.00     0.101 A 
ATOM      4  C   UNL d   1      13.316  14.762  -5.367  0.00  0.00     0.101 A 
ATOM      5  C   UNL d   1      13.428  15.518  -5.648  0.00  0.00     0.100 A 
ATOM      6  C   UNL d   1      13.998  15.908  -4.406  0.00  0.00     0.100 A 
ENDROOT
BRANCH   1   7
ATOM      7  C   UNL d   1      13.440  13.815  -4.293  0.00  0.00     0.183 A 
ATOM      8  N   UNL d   1      13.109  13.179  -4.689  0.00  0.00    -0.183 NA
ATOM      9  C   UNL d   1      13.110  12.526  -4.182  0.00  0.00     0.287 A 
ATOM     10  C   UNL d   1      13.447  12.771  -3.466  0.00  0.00     0.090 A 
ATOM     11  O   UNL d   1      12.831  11.779  -4.356  0.00  0.00    -0.265 OA
ATOM     12  S   UNL d   1      13.652  13.563  -3.529  0.00  0.00    -0.045 SA
BRANCH  10  13
ATOM     13  C   UNL d   1      13.556  12.291  -2.803  0.00  0.00     0.011 C 
ATOM     14  C   UNL d   1      12.958  11.779  -2.550  0.00  0.00     0.001 C 
ATOM     15  C   UNL d   1      14.268  12.323  -2.387  0.00  0.00     0.001 C 
ENDBRANCH  10  13
ENDBRANCH   1   7
BRANCH   2  16
ATOM     16  C   UNL d   1      13.877  16.860  -5.474  0.00  0.00     0.064 A 
ATOM     17  C   UNL d   1      14.466  17.339  -5.151  0.00  0.00     0.018 A 
ATOM     18  C   UNL d   1      14.575  18.104  -5.448  0.00  0.00     0.002 A 
ATOM     19  C   UNL d   1      14.100  18.385  -6.058  0.00  0.00     0.000 A 
ATOM     20  C   UNL d   1      13.510  17.897  -6.377  0.00  0.00     0.002 A 
ATOM     21  C   UNL d   1      14.209  19.148  -6.354  0.00  0.00     0.000 C 
ATOM     22  C   UNL d   1      13.399  17.131  -6.083  0.00  0.00     0.018 A 
ENDBRANCH   2  16
TORSDOF 3
ENDMDL
MODEL 3
REMARK VINA RESULT:      61.4      2.241      3.108
REMARK  3 active torsions:
REMARK  status: ('A' for Active; 'I' for Inactive)
REMARK    1  A    between atoms: N_6  and  C_2 
REMARK    2  A    between atoms: C_8  and  C_5 
REMARK    3  A    between atoms: C_9  and  N_7 
ROOT
ATOM      1  N   UNL d   1      13.548  15.326  -4.876  0.00  0.00    -0.281 N 
ATOM      2  N   UNL d   1      13.819  16.865  -5.373  0.00  0.00    -0.301 N 
ATOM      3  C   UNL d   1      13.928  15.856  -4.370  0.00  0.00     0.101 A 
ATOM      4  C   UNL d   1      13.303  15.569  -5.632  0.00  0.00     0.101 A 
ATOM      5  C   UNL d   1      13.443  16.335  -5.868  0.00  0.00     0.100 A 
ATOM      6  C   UNL d   1      14.061  16.620  -4.620  0.00  0.00     0.100 A 
ENDROOT
BRANCH   1   7
ATOM      7  C   UNL d   1      13.412  14.550  -4.624  0.00  0.00     0.183 A 
ATOM      8  N   UNL d   1      13.384  14.287  -3.848  0.00  0.00    -0.183 NA
ATOM      9  C   UNL d   1      13.235  13.473  -3.854  0.00  0.00     0.287 A 
ATOM     10  C   UNL d   1      13.172  13.240  -4.646  0.00  0.00     0.090 A 
ATOM     11  O   UNL d   1      13.163  12.991  -3.199  0.00  0.00    -0.265 OA
ATOM     12  S   UNL d   1      13.281  13.898  -5.123  0.00  0.00    -0.045 SA
BRANCH  10  13
ATOM     13  C   UNL d   1      13.025  12.470  -4.905  0.00  0.00     0.011 C 
ATOM     14  C   UNL d   1      12.799  11.881  -4.370  0.00  0.00     0.001 C 
ATOM     15  C   UNL d   1      13.104  12.285  -5.705  0.00  0.00     0.001 C 
ENDBRANCH  10  13
ENDBRANCH   1   7
BRANCH   2  16
ATOM     16  C   UNL d   1      13.956  17.643  -5.622  0.00  0.00     0.064 A 
ATOM     17  C   UNL d   1      14.645  18.029  -5.385  0.00  0.00     0.018 A 
ATOM     18  C   UNL d   1      14.780  18.807  -5.636  0.00  0.00     0.002 A 
ATOM     19  C   UNL d   1      14.233  19.191  -6.115  0.00  0.00     0.000 A 
ATOM     20  C   UNL d   1      13.542  18.795  -6.348  0.00  0.00     0.002 A 
ATOM     21  C   UNL d   1      14.368  19.966  -6.364  0.00  0.00     0.000 C 
ATOM     22  C   UNL d   1      13.404  18.017  -6.099  0.00  0.00     0.018 A 
ENDBRANCH   2  16
TORSDOF 3
ENDMDL
