MODEL 1
REMARK VINA RESULT:      19.2      0.000      0.000
REMARK  4 active torsions:
REMARK  status: ('A' for Active; 'I' for Inactive)
REMARK    1  A    between atoms: N_4  and  S_1 
REMARK    2  A    between atoms: C_5  and  S_1 
REMARK    3  A    between atoms: C_3  and  C_9 
REMARK    4  A    between atoms: C_14  and  N_4 
ROOT
ATOM      1  S   UNL d   1      45.674 -15.924  44.559  0.00  0.00     0.285 S 
ATOM      2  O   UNL d   1      44.989 -16.299  44.818  0.00  0.00    -0.198 OA
ATOM      3  O   UNL d   1      46.432 -15.745  44.284  0.00  0.00    -0.198 OA
ENDROOT
BRANCH   1   4
ATOM      4  N   UNL d   1      46.338 -16.361  44.347  0.00  0.00    -0.158 NA
BRANCH   4   5
ATOM      5  C   UNL d   1      46.283 -17.183  44.277  0.00  0.00     0.094 A 
ATOM      6  C   UNL d   1      46.350 -17.544  43.536  0.00  0.00     0.021 A 
ATOM      7  C   UNL d   1      46.295 -18.360  43.473  0.00  0.00     0.020 A 
ATOM      8  C   UNL d   1      46.172 -18.825  44.149  0.00  0.00     0.002 A 
ATOM      9  C   UNL d   1      46.106 -18.470  44.881  0.00  0.00     0.002 A 
ATOM     10  C   UNL d   1      46.160 -17.648  44.953  0.00  0.00     0.020 A 
BRANCH   7  11
ATOM     11  C   UNL d   1      46.362 -18.721  42.732  0.00  0.00     0.088 A 
ATOM     12  N   UNL d   1      46.587 -18.252  41.401  0.00  0.00    -0.238 NA
ATOM     13  C   UNL d   1      46.551 -19.040  41.117  0.00  0.00     0.111 A 
ATOM     14  C   UNL d   1      46.646 -19.194  40.314  0.00  0.00     0.028 C 
ATOM     15  S   UNL d   1      46.422 -19.669  41.639  0.00  0.00    -0.066 SA
ATOM     16  C   UNL d   1      46.327 -19.504  42.450  0.00  0.00     0.056 A 
ENDBRANCH   7  11
ENDBRANCH   4   5
ENDBRANCH   1   4
BRANCH   1  17
ATOM     17  C   UNL d   1      45.691 -15.099  44.514  0.00  0.00     0.105 A 
ATOM     18  C   UNL d   1      45.155 -14.707  44.026  0.00  0.00     0.013 A 
ATOM     19  C   UNL d   1      45.174 -13.875  43.983  0.00  0.00     0.001 A 
ATOM     20  C   UNL d   1      44.634 -13.485  43.491  0.00  0.00     0.000 A 
ATOM     21  C   UNL d   1      45.724 -13.450  44.423  0.00  0.00     0.000 A 
ATOM     22  C   UNL d   1      44.655 -12.661  43.449  0.00  0.00     0.000 A 
ATOM     23  C   UNL d   1      45.205 -12.233  43.890  0.00  0.00     0.000 A 
ATOM     24  C   UNL d   1      45.738 -12.625  44.375  0.00  0.00     0.000 A 
ATOM     25  C   UNL d   1      46.256 -13.850  44.907  0.00  0.00     0.001 A 
ATOM     26  C   UNL d   1      46.242 -14.671  44.955  0.00  0.00     0.013 A 
ENDBRANCH   1  17
TORSDOF 4
ENDMDL
