MODEL 1
REMARK VINA RESULT:      49.6      0.000      0.000
REMARK  6 active torsions:
REMARK  status: ('A' for Active; 'I' for Inactive)
REMARK    1  A    between atoms: C_5  and  N_1 
REMARK    2  A    between atoms: C_4  and  C_5 
REMARK       I    between atoms: N_8  and  C_4 
REMARK    3  A    between atoms: C_6  and  C_9 
REMARK    4  A    between atoms: O_19  and  C_6 
REMARK    5  A    between atoms: C_16  and  N_8 
REMARK    6  A    between atoms: C_22  and  O_19 
ROOT
ATOM      1  C   UNL d   1     -50.631  25.466  33.686  0.00  0.00     0.297 C 
ATOM      2  N   UNL d   1     -49.924  25.826  33.450  0.00  0.00    -0.207 NA
ATOM      3  O   UNL d   1     -51.063  25.785  34.313  0.00  0.00    -0.264 OA
ENDROOT
BRANCH   2   4
ATOM      4  C   UNL d   1     -49.651  26.502  33.840  0.00  0.00     0.085 A 
ATOM      5  C   UNL d   1     -49.461  26.467  34.642  0.00  0.00     0.019 A 
ATOM      6  C   UNL d   1     -49.191  27.147  35.016  0.00  0.00     0.007 A 
ATOM      7  C   UNL d   1     -49.108  27.852  34.608  0.00  0.00     0.064 A 
ATOM      8  C   UNL d   1     -49.300  27.883  33.806  0.00  0.00     0.007 A 
ATOM      9  C   UNL d   1     -49.573  27.207  33.416  0.00  0.00     0.019 A 
BRANCH   7  10
ATOM     10  C   UNL d   1     -48.835  28.531  34.995  0.00  0.00     0.300 C 
ATOM     11  O   UNL d   1     -49.099  28.701  35.758  0.00  0.00    -0.259 OA
BRANCH  10  12
ATOM     12  O   UNL d   1     -48.309  29.031  34.625  0.00  0.00    -0.271 OA
BRANCH  12  13
ATOM     13  C   UNL d   1     -47.848  29.556  35.058  0.00  0.00     0.126 C 
ATOM     14  C   UNL d   1     -47.131  29.328  35.370  0.00  0.00     0.029 C 
ENDBRANCH  12  13
ENDBRANCH  10  12
ENDBRANCH   7  10
ENDBRANCH   2   4
BRANCH   1  15
ATOM     15  C   UNL d   1     -50.907  24.799  33.306  0.00  0.00     0.148 C 
BRANCH  15  16
ATOM     16  N   UNL d   1     -51.714  24.625  33.307  0.00  0.00    -0.235 N 
ATOM     17  C   UNL d   1     -52.267  25.242  33.307  0.00  0.00     0.274 A 
ATOM     18  O   UNL d   1     -52.009  26.028  33.307  0.00  0.00    -0.266 OA
ATOM     19  C   UNL d   1     -53.066  25.070  33.308  0.00  0.00     0.097 A 
ATOM     20  S   UNL d   1     -53.330  24.295  33.309  0.00  0.00    -0.076 SA
ATOM     21  C   UNL d   1     -52.785  23.681  33.308  0.00  0.00     0.097 A 
ATOM     22  C   UNL d   1     -51.975  23.839  33.307  0.00  0.00     0.274 A 
ATOM     23  O   UNL d   1     -51.426  23.225  33.306  0.00  0.00    -0.266 OA
ENDBRANCH  15  16
ENDBRANCH   1  15
TORSDOF 6
ENDMDL
MODEL 2
REMARK VINA RESULT:      51.7      1.378      2.209
REMARK  6 active torsions:
REMARK  status: ('A' for Active; 'I' for Inactive)
REMARK    1  A    between atoms: C_5  and  N_1 
REMARK    2  A    between atoms: C_4  and  C_5 
REMARK       I    between atoms: N_8  and  C_4 
REMARK    3  A    between atoms: C_6  and  C_9 
REMARK    4  A    between atoms: O_19  and  C_6 
REMARK    5  A    between atoms: C_16  and  N_8 
REMARK    6  A    between atoms: C_22  and  O_19 
ROOT
ATOM      1  C   UNL d   1     -49.481  27.134  33.725  0.00  0.00     0.297 C 
ATOM      2  N   UNL d   1     -48.813  27.096  34.213  0.00  0.00    -0.207 NA
ATOM      3  O   UNL d   1     -49.902  27.841  33.661  0.00  0.00    -0.264 OA
ENDROOT
BRANCH   2   4
ATOM      4  C   UNL d   1     -48.568  27.763  34.634  0.00  0.00     0.085 A 
ATOM      5  C   UNL d   1     -48.606  27.768  35.459  0.00  0.00     0.019 A 
ATOM      6  C   UNL d   1     -48.359  28.439  35.863  0.00  0.00     0.007 A 
ATOM      7  C   UNL d   1     -48.078  29.096  35.464  0.00  0.00     0.064 A 
ATOM      8  C   UNL d   1     -48.041  29.087  34.640  0.00  0.00     0.007 A 
ATOM      9  C   UNL d   1     -48.286  28.420  34.219  0.00  0.00     0.019 A 
BRANCH   7  10
ATOM     10  C   UNL d   1     -47.831  29.767  35.882  0.00  0.00     0.300 C 
ATOM     11  O   UNL d   1     -48.140  29.918  36.632  0.00  0.00    -0.259 OA
BRANCH  10  12
ATOM     12  O   UNL d   1     -47.286  30.278  35.556  0.00  0.00    -0.271 OA
BRANCH  12  13
ATOM     13  C   UNL d   1     -47.342  31.089  35.672  0.00  0.00     0.126 C 
ATOM     14  C   UNL d   1     -46.675  31.554  35.722  0.00  0.00     0.029 C 
ENDBRANCH  12  13
ENDBRANCH  10  12
ENDBRANCH   7  10
ENDBRANCH   2   4
BRANCH   1  15
ATOM     15  C   UNL d   1     -49.729  26.479  33.306  0.00  0.00     0.148 C 
BRANCH  15  16
ATOM     16  N   UNL d   1     -50.522  26.251  33.325  0.00  0.00    -0.235 N 
ATOM     17  C   UNL d   1     -50.718  25.446  33.339  0.00  0.00     0.274 A 
ATOM     18  O   UNL d   1     -50.120  24.875  33.333  0.00  0.00    -0.266 OA
ATOM     19  C   UNL d   1     -51.503  25.220  33.358  0.00  0.00     0.097 A 
ATOM     20  S   UNL d   1     -52.103  25.778  33.364  0.00  0.00    -0.076 SA
ATOM     21  C   UNL d   1     -51.913  26.576  33.350  0.00  0.00     0.097 A 
ATOM     22  C   UNL d   1     -51.125  26.821  33.331  0.00  0.00     0.274 A 
ATOM     23  O   UNL d   1     -50.931  27.620  33.318  0.00  0.00    -0.266 OA
ENDBRANCH  15  16
ENDBRANCH   1  15
TORSDOF 6
ENDMDL
