MODEL 1
REMARK VINA RESULT:      -4.5      0.000      0.000
REMARK  6 active torsions:
REMARK  status: ('A' for Active; 'I' for Inactive)
REMARK    1  A    between atoms: C_3  and  C_1 
REMARK    2  A    between atoms: C_2  and  C_4 
REMARK    3  A    between atoms: C_9  and  C_3 
REMARK    4  A    between atoms: C_4  and  C_10 
REMARK    5  A    between atoms: C_17  and  C_9 
REMARK    6  A    between atoms: C_10  and  C_17 
ROOT
ATOM      1  C   UNL d   1      57.813  -0.129  30.589  0.00  0.00     0.006 C 
ATOM      2  C   UNL d   1      57.904   0.681  30.361  0.00  0.00     0.000 C 
ENDROOT
BRANCH   1   3
ATOM      3  C   UNL d   1      58.359  -0.674  30.298  0.00  0.00     0.043 C 
BRANCH   3   4
ATOM      4  C   UNL d   1      58.458  -0.800  29.495  0.00  0.00     0.202 C 
ATOM      5  O   UNL d   1      58.110  -0.294  28.923  0.00  0.00    -0.286 OA
BRANCH   4   6
ATOM      6  C   UNL d   1      58.910  -1.435  29.225  0.00  0.00     0.068 A 
ATOM      7  S   UNL d   1      59.661  -1.342  28.888  0.00  0.00    -0.083 SA
ATOM      8  C   UNL d   1      59.959  -2.075  28.679  0.00  0.00     0.035 A 
ATOM      9  C   UNL d   1      59.387  -2.642  28.887  0.00  0.00     0.008 A 
ATOM     10  C   UNL d   1      58.753  -2.241  29.218  0.00  0.00     0.010 A 
ENDBRANCH   4   6
ENDBRANCH   3   4
ENDBRANCH   1   3
BRANCH   1  11
ATOM     11  C   UNL d   1      57.203  -0.371  31.082  0.00  0.00     0.043 C 
BRANCH  11  12
ATOM     12  C   UNL d   1      57.160  -0.077  31.881  0.00  0.00     0.202 C 
ATOM     13  O   UNL d   1      57.716   0.460  32.148  0.00  0.00    -0.286 OA
BRANCH  12  14
ATOM     14  C   UNL d   1      56.545  -0.345  32.385  0.00  0.00     0.068 A 
ATOM     15  S   UNL d   1      56.040   0.148  32.859  0.00  0.00    -0.083 SA
ATOM     16  C   UNL d   1      55.520  -0.341  33.262  0.00  0.00     0.035 A 
ATOM     17  C   UNL d   1      55.687  -1.128  33.053  0.00  0.00     0.008 A 
ATOM     18  C   UNL d   1      56.304  -1.128  32.525  0.00  0.00     0.010 A 
ENDBRANCH  12  14
ENDBRANCH  11  12
ENDBRANCH   1  11
TORSDOF 6
ENDMDL
MODEL 2
REMARK VINA RESULT:      -4.4      0.187      4.271
REMARK  6 active torsions:
REMARK  status: ('A' for Active; 'I' for Inactive)
REMARK    1  A    between atoms: C_3  and  C_1 
REMARK    2  A    between atoms: C_2  and  C_4 
REMARK    3  A    between atoms: C_9  and  C_3 
REMARK    4  A    between atoms: C_4  and  C_10 
REMARK    5  A    between atoms: C_17  and  C_9 
REMARK    6  A    between atoms: C_10  and  C_17 
ROOT
ATOM      1  C   UNL d   1      57.811  -0.118  30.554  0.00  0.00     0.006 C 
ATOM      2  C   UNL d   1      57.697   0.682  30.300  0.00  0.00     0.000 C 
ENDROOT
BRANCH   1   3
ATOM      3  C   UNL d   1      57.266  -0.434  31.085  0.00  0.00     0.043 C 
BRANCH   3   4
ATOM      4  C   UNL d   1      57.167  -0.128  31.838  0.00  0.00     0.202 C 
ATOM      5  O   UNL d   1      57.661   0.482  32.134  0.00  0.00    -0.286 OA
BRANCH   4   6
ATOM      6  C   UNL d   1      56.571  -0.416  32.331  0.00  0.00     0.068 A 
ATOM      7  S   UNL d   1      56.082   0.078  32.781  0.00  0.00    -0.083 SA
ATOM      8  C   UNL d   1      55.552  -0.377  33.207  0.00  0.00     0.035 A 
ATOM      9  C   UNL d   1      55.709  -1.173  33.024  0.00  0.00     0.008 A 
ATOM     10  C   UNL d   1      56.331  -1.185  32.490  0.00  0.00     0.010 A 
ENDBRANCH   4   6
ENDBRANCH   3   4
ENDBRANCH   1   3
BRANCH   1  11
ATOM     11  C   UNL d   1      58.443  -0.569  30.285  0.00  0.00     0.043 C 
BRANCH  11  12
ATOM     12  C   UNL d   1      58.513  -0.749  29.455  0.00  0.00     0.202 C 
ATOM     13  O   UNL d   1      58.066  -0.337  28.909  0.00  0.00    -0.286 OA
BRANCH  12  14
ATOM     14  C   UNL d   1      59.043  -1.351  29.209  0.00  0.00     0.068 A 
ATOM     15  S   UNL d   1      59.891  -1.302  29.219  0.00  0.00    -0.083 SA
ATOM     16  C   UNL d   1      60.187  -2.011  28.934  0.00  0.00     0.035 A 
ATOM     17  C   UNL d   1      59.544  -2.504  28.745  0.00  0.00     0.008 A 
ATOM     18  C   UNL d   1      58.858  -2.105  28.911  0.00  0.00     0.010 A 
ENDBRANCH  12  14
ENDBRANCH  11  12
ENDBRANCH   1  11
TORSDOF 6
ENDMDL
MODEL 3
REMARK VINA RESULT:      -3.9      1.746      2.290
REMARK  6 active torsions:
REMARK  status: ('A' for Active; 'I' for Inactive)
REMARK    1  A    between atoms: C_3  and  C_1 
REMARK    2  A    between atoms: C_2  and  C_4 
REMARK    3  A    between atoms: C_9  and  C_3 
REMARK    4  A    between atoms: C_4  and  C_10 
REMARK    5  A    between atoms: C_17  and  C_9 
REMARK    6  A    between atoms: C_10  and  C_17 
ROOT
ATOM      1  C   UNL d   1      56.913  -0.335  31.937  0.00  0.00     0.006 C 
ATOM      2  C   UNL d   1      56.653  -1.078  31.624  0.00  0.00     0.000 C 
ENDROOT
BRANCH   1   3
ATOM      3  C   UNL d   1      57.615  -0.019  31.644  0.00  0.00     0.043 C 
BRANCH   3   4
ATOM      4  C   UNL d   1      57.683   0.244  30.871  0.00  0.00     0.202 C 
ATOM      5  O   UNL d   1      57.009   0.358  30.385  0.00  0.00    -0.286 OA
BRANCH   4   6
ATOM      6  C   UNL d   1      58.424   0.406  30.548  0.00  0.00     0.068 A 
ATOM      7  S   UNL d   1      58.560   0.447  29.732  0.00  0.00    -0.083 SA
ATOM      8  C   UNL d   1      59.349   0.615  29.595  0.00  0.00     0.035 A 
ATOM      9  C   UNL d   1      59.719   0.682  30.337  0.00  0.00     0.008 A 
ATOM     10  C   UNL d   1      59.147   0.552  30.910  0.00  0.00     0.010 A 
ENDBRANCH   4   6
ENDBRANCH   3   4
ENDBRANCH   1   3
BRANCH   1  11
ATOM     11  C   UNL d   1      56.484   0.063  32.513  0.00  0.00     0.043 C 
BRANCH  11  12
ATOM     12  C   UNL d   1      55.975  -0.373  33.041  0.00  0.00     0.202 C 
ATOM     13  O   UNL d   1      55.926  -1.186  32.980  0.00  0.00    -0.286 OA
BRANCH  12  14
ATOM     14  C   UNL d   1      55.531   0.042  33.619  0.00  0.00     0.068 A 
ATOM     15  S   UNL d   1      55.809   0.279  34.386  0.00  0.00    -0.083 SA
ATOM     16  C   UNL d   1      55.196   0.669  34.766  0.00  0.00     0.035 A 
ATOM     17  C   UNL d   1      54.540   0.682  34.255  0.00  0.00     0.008 A 
ATOM     18  C   UNL d   1      54.744   0.305  33.566  0.00  0.00     0.010 A 
ENDBRANCH  12  14
ENDBRANCH  11  12
ENDBRANCH   1  11
TORSDOF 6
ENDMDL
MODEL 4
REMARK VINA RESULT:      -3.5      1.721      4.726
REMARK  6 active torsions:
REMARK  status: ('A' for Active; 'I' for Inactive)
REMARK    1  A    between atoms: C_3  and  C_1 
REMARK    2  A    between atoms: C_2  and  C_4 
REMARK    3  A    between atoms: C_9  and  C_3 
REMARK    4  A    between atoms: C_4  and  C_10 
REMARK    5  A    between atoms: C_17  and  C_9 
REMARK    6  A    between atoms: C_10  and  C_17 
ROOT
ATOM      1  C   UNL d   1      57.147  -0.040  31.666  0.00  0.00     0.006 C 
ATOM      2  C   UNL d   1      56.970  -0.821  31.391  0.00  0.00     0.000 C 
ENDROOT
BRANCH   1   3
ATOM      3  C   UNL d   1      56.627   0.306  32.203  0.00  0.00     0.043 C 
BRANCH   3   4
ATOM      4  C   UNL d   1      56.559   0.039  32.974  0.00  0.00     0.202 C 
ATOM      5  O   UNL d   1      57.120  -0.487  33.309  0.00  0.00    -0.286 OA
BRANCH   4   6
ATOM      6  C   UNL d   1      55.928   0.284  33.447  0.00  0.00     0.068 A 
ATOM      7  S   UNL d   1      56.009   0.445  34.255  0.00  0.00    -0.083 SA
ATOM      8  C   UNL d   1      55.285   0.673  34.561  0.00  0.00     0.035 A 
ATOM      9  C   UNL d   1      54.737   0.657  33.935  0.00  0.00     0.008 A 
ATOM     10  C   UNL d   1      55.140   0.418  33.262  0.00  0.00     0.010 A 
ENDBRANCH   4   6
ENDBRANCH   3   4
ENDBRANCH   1   3
BRANCH   1  11
ATOM     11  C   UNL d   1      57.815   0.365  31.410  0.00  0.00     0.043 C 
BRANCH  11  12
ATOM     12  C   UNL d   1      58.000   0.396  30.578  0.00  0.00     0.202 C 
ATOM     13  O   UNL d   1      57.403   0.330  30.025  0.00  0.00    -0.286 OA
BRANCH  12  14
ATOM     14  C   UNL d   1      58.798   0.494  30.339  0.00  0.00     0.068 A 
ATOM     15  S   UNL d   1      59.082   0.489  29.538  0.00  0.00    -0.083 SA
ATOM     16  C   UNL d   1      59.894   0.604  29.559  0.00  0.00     0.035 A 
ATOM     17  C   UNL d   1      60.125   0.682  30.354  0.00  0.00     0.008 A 
ATOM     18  C   UNL d   1      59.465   0.615  30.821  0.00  0.00     0.010 A 
ENDBRANCH  12  14
ENDBRANCH  11  12
ENDBRANCH   1  11
TORSDOF 6
ENDMDL
