MODEL 1
REMARK VINA RESULT:      -1.5      0.000      0.000
REMARK  3 active torsions:
REMARK  status: ('A' for Active; 'I' for Inactive)
REMARK    1  A    between atoms: S_3  and  C_1 
REMARK    2  A    between atoms: C_7  and  N_2 
REMARK    3  A    between atoms: C_11  and  C_7 
ROOT
ATOM      1  C   UNL d   1     -43.157-122.542 -49.743  0.00  0.00     0.255 A 
ATOM      2  N   UNL d   1     -42.351-122.529 -49.813  0.00  0.00    -0.278 N 
ATOM      3  N   UNL d   1     -43.369-122.945 -49.078  0.00  0.00    -0.215 NA
ATOM      4  C   UNL d   1     -42.034-122.945 -49.160  0.00  0.00     0.084 A 
ATOM      5  C   UNL d   1     -42.669-123.204 -48.701  0.00  0.00     0.100 A 
ATOM      6  C   UNL d   1     -41.261-123.117 -48.929  0.00  0.00     0.019 A 
ATOM      7  C   UNL d   1     -42.532-123.636 -48.012  0.00  0.00     0.021 A 
ATOM      8  C   UNL d   1     -41.123-123.549 -48.239  0.00  0.00     0.002 A 
ATOM      9  C   UNL d   1     -41.758-123.808 -47.781  0.00  0.00     0.002 A 
ENDROOT
BRANCH   2  10
ATOM     10  C   UNL d   1     -41.898-122.175 -50.413  0.00  0.00     0.082 C 
BRANCH  10  11
ATOM     11  C   UNL d   1     -41.649-122.614 -51.056  0.00  0.00     0.018 A 
ATOM     12  C   UNL d   1     -41.673-122.295 -51.824  0.00  0.00     0.002 A 
ATOM     13  C   UNL d   1     -41.424-122.731 -52.470  0.00  0.00     0.000 A 
ATOM     14  C   UNL d   1     -41.148-123.489 -52.369  0.00  0.00     0.000 A 
ATOM     15  C   UNL d   1     -41.123-123.813 -51.601  0.00  0.00     0.000 A 
ATOM     16  C   UNL d   1     -41.372-123.374 -50.957  0.00  0.00     0.002 A 
ENDBRANCH  10  11
ENDBRANCH   2  10
BRANCH   1  17
ATOM     17  S   UNL d   1     -43.683-122.193 -50.275  0.00  0.00     0.174 S 
ATOM     18  O   UNL d   1     -44.028-122.929 -50.415  0.00  0.00    -0.589 OA
ATOM     19  O   UNL d   1     -44.209-121.845 -50.806  0.00  0.00    -0.589 OA
ATOM     20  O   UNL d   1     -43.337-121.457 -50.134  0.00  0.00    -0.589 OA
ENDBRANCH   1  17
TORSDOF 3
ENDMDL
MODEL 2
REMARK VINA RESULT:       0.0      2.173      3.413
REMARK  3 active torsions:
REMARK  status: ('A' for Active; 'I' for Inactive)
REMARK    1  A    between atoms: S_3  and  C_1 
REMARK    2  A    between atoms: C_7  and  N_2 
REMARK    3  A    between atoms: C_11  and  C_7 
ROOT
ATOM      1  C   UNL d   1     -41.672-122.539 -52.821  0.00  0.00     0.255 A 
ATOM      2  N   UNL d   1     -41.452-122.644 -52.050  0.00  0.00    -0.278 N 
ATOM      3  N   UNL d   1     -41.732-121.751 -52.985  0.00  0.00    -0.215 NA
ATOM      4  C   UNL d   1     -41.368-121.886 -51.706  0.00  0.00     0.084 A 
ATOM      5  C   UNL d   1     -41.543-121.330 -52.289  0.00  0.00     0.100 A 
ATOM      6  C   UNL d   1     -41.158-121.638 -50.947  0.00  0.00     0.019 A 
ATOM      7  C   UNL d   1     -41.508-120.524 -52.115  0.00  0.00     0.021 A 
ATOM      8  C   UNL d   1     -41.123-120.832 -50.773  0.00  0.00     0.002 A 
ATOM      9  C   UNL d   1     -41.298-120.275 -51.356  0.00  0.00     0.002 A 
ENDROOT
BRANCH   2  10
ATOM     10  C   UNL d   1     -41.326-123.362 -51.651  0.00  0.00     0.082 C 
BRANCH  10  11
ATOM     11  C   UNL d   1     -41.696-123.508 -50.937  0.00  0.00     0.018 A 
ATOM     12  C   UNL d   1     -41.256-123.558 -50.233  0.00  0.00     0.002 A 
ATOM     13  C   UNL d   1     -41.622-123.705 -49.516  0.00  0.00     0.000 A 
ATOM     14  C   UNL d   1     -42.429-123.803 -49.482  0.00  0.00     0.000 A 
ATOM     15  C   UNL d   1     -42.874-123.754 -50.185  0.00  0.00     0.000 A 
ATOM     16  C   UNL d   1     -42.504-123.607 -50.901  0.00  0.00     0.002 A 
ENDBRANCH  10  11
ENDBRANCH   2  10
BRANCH   1  17
ATOM     17  S   UNL d   1     -41.814-123.147 -53.360  0.00  0.00     0.174 S 
ATOM     18  O   UNL d   1     -41.123-123.526 -53.114  0.00  0.00    -0.589 OA
ATOM     19  O   UNL d   1     -41.955-123.756 -53.898  0.00  0.00    -0.589 OA
ATOM     20  O   UNL d   1     -42.505-122.769 -53.606  0.00  0.00    -0.589 OA
ENDBRANCH   1  17
TORSDOF 3
ENDMDL
MODEL 3
REMARK VINA RESULT:       0.5      1.924      3.630
REMARK  3 active torsions:
REMARK  status: ('A' for Active; 'I' for Inactive)
REMARK    1  A    between atoms: S_3  and  C_1 
REMARK    2  A    between atoms: C_7  and  N_2 
REMARK    3  A    between atoms: C_11  and  C_7 
ROOT
ATOM      1  C   UNL d   1     -41.256-121.394 -52.057  0.00  0.00     0.255 A 
ATOM      2  N   UNL d   1     -41.223-122.159 -51.793  0.00  0.00    -0.278 N 
ATOM      3  N   UNL d   1     -41.355-121.384 -52.858  0.00  0.00    -0.215 NA
ATOM      4  C   UNL d   1     -41.306-122.659 -52.458  0.00  0.00     0.084 A 
ATOM      5  C   UNL d   1     -41.388-122.176 -53.122  0.00  0.00     0.100 A 
ATOM      6  C   UNL d   1     -41.317-123.480 -52.541  0.00  0.00     0.019 A 
ATOM      7  C   UNL d   1     -41.482-122.513 -53.869  0.00  0.00     0.021 A 
ATOM      8  C   UNL d   1     -41.410-123.817 -53.288  0.00  0.00     0.002 A 
ATOM      9  C   UNL d   1     -41.492-123.334 -53.952  0.00  0.00     0.002 A 
ENDROOT
BRANCH   2  10
ATOM     10  C   UNL d   1     -41.126-122.422 -51.011  0.00  0.00     0.082 C 
BRANCH  10  11
ATOM     11  C   UNL d   1     -41.764-122.715 -50.592  0.00  0.00     0.018 A 
ATOM     12  C   UNL d   1     -41.718-123.450 -50.207  0.00  0.00     0.002 A 
ATOM     13  C   UNL d   1     -42.354-123.747 -49.786  0.00  0.00     0.000 A 
ATOM     14  C   UNL d   1     -43.045-123.322 -49.738  0.00  0.00     0.000 A 
ATOM     15  C   UNL d   1     -43.096-122.584 -50.122  0.00  0.00     0.000 A 
ATOM     16  C   UNL d   1     -42.458-122.290 -50.542  0.00  0.00     0.002 A 
ENDBRANCH  10  11
ENDBRANCH   2  10
BRANCH   1  17
ATOM     17  S   UNL d   1     -41.195-120.725 -51.578  0.00  0.00     0.174 S 
ATOM     18  O   UNL d   1     -41.130-121.208 -50.912  0.00  0.00    -0.589 OA
ATOM     19  O   UNL d   1     -41.135-120.057 -51.099  0.00  0.00    -0.589 OA
ATOM     20  O   UNL d   1     -41.261-120.242 -52.244  0.00  0.00    -0.589 OA
ENDBRANCH   1  17
TORSDOF 3
ENDMDL
