MODEL 1
REMARK VINA RESULT:      31.3      0.000      0.000
REMARK  2 active torsions:
REMARK  status: ('A' for Active; 'I' for Inactive)
REMARK       I    between atoms: C_3  and  N_1 
REMARK    1  A    between atoms: C_6  and  C_3 
REMARK    2  A    between atoms: O_16  and  C_11 
ROOT
ATOM      1  N   UNL d   1     -51.984  25.140  33.355  0.00  0.00    -0.175 N 
ATOM      2  N   UNL d   1     -51.294  24.693  33.384  0.00  0.00    -0.057 NA
ATOM      3  C   UNL d   1     -52.029  25.962  33.341  0.00  0.00     0.282 C 
ATOM      4  N   UNL d   1     -51.496  23.898  33.389  0.00  0.00    -0.129 NA
ATOM      5  C   UNL d   1     -52.621  24.602  33.342  0.00  0.00     0.107 A 
ATOM      6  C   UNL d   1     -52.325  23.847  33.362  0.00  0.00     0.122 A 
ATOM      7  O   UNL d   1     -52.761  26.332  33.312  0.00  0.00    -0.265 OA
ATOM      8  C   UNL d   1     -53.436  24.721  33.313  0.00  0.00     0.021 A 
ATOM      9  C   UNL d   1     -52.841  23.188  33.355  0.00  0.00     0.022 A 
ATOM     10  C   UNL d   1     -53.958  24.085  33.306  0.00  0.00     0.002 A 
ATOM     11  C   UNL d   1     -53.660  23.305  33.327  0.00  0.00     0.002 A 
ENDROOT
BRANCH   3  12
ATOM     12  C   UNL d   1     -51.337  26.409  33.357  0.00  0.00     0.059 A 
ATOM     13  C   UNL d   1     -51.368  27.228  33.335  0.00  0.00     0.013 A 
ATOM     14  C   UNL d   1     -50.677  27.683  33.351  0.00  0.00     0.057 A 
ATOM     15 BR   UNL d   1     -50.715  28.506  33.328  0.00  0.00    -0.047 Br
ATOM     16  C   UNL d   1     -49.941  27.306  33.389  0.00  0.00     0.100 A 
ATOM     17  C   UNL d   1     -49.905  26.483  33.412  0.00  0.00     0.025 A 
ATOM     18  C   UNL d   1     -50.603  26.037  33.395  0.00  0.00     0.007 A 
BRANCH  16  19
ATOM     19  O   UNL d   1     -49.231  27.744  33.406  0.00  0.00    -0.328 OA
ATOM     20  C   UNL d   1     -48.739  27.719  34.074  0.00  0.00     0.181 C 
ENDBRANCH  16  19
ENDBRANCH   3  12
TORSDOF 2
ENDMDL
MODEL 2
REMARK VINA RESULT:      33.7      0.926      1.305
REMARK  2 active torsions:
REMARK  status: ('A' for Active; 'I' for Inactive)
REMARK       I    between atoms: C_3  and  N_1 
REMARK    1  A    between atoms: C_6  and  C_3 
REMARK    2  A    between atoms: O_16  and  C_11 
ROOT
ATOM      1  N   UNL d   1     -52.116  24.977  33.363  0.00  0.00    -0.175 N 
ATOM      2  N   UNL d   1     -52.451  25.728  33.393  0.00  0.00    -0.057 NA
ATOM      3  C   UNL d   1     -51.310  24.807  33.340  0.00  0.00     0.282 C 
ATOM      4  N   UNL d   1     -53.267  25.650  33.409  0.00  0.00    -0.129 NA
ATOM      5  C   UNL d   1     -52.744  24.430  33.359  0.00  0.00     0.107 A 
ATOM      6  C   UNL d   1     -53.445  24.838  33.387  0.00  0.00     0.122 A 
ATOM      7  O   UNL d   1     -51.057  24.027  33.310  0.00  0.00    -0.265 OA
ATOM      8  C   UNL d   1     -52.752  23.607  33.334  0.00  0.00     0.021 A 
ATOM      9  C   UNL d   1     -54.175  24.430  33.391  0.00  0.00     0.022 A 
ATOM     10  C   UNL d   1     -53.461  23.188  33.336  0.00  0.00     0.002 A 
ATOM     11  C   UNL d   1     -54.185  23.603  33.365  0.00  0.00     0.002 A 
ENDROOT
BRANCH   3  12
ATOM     12  C   UNL d   1     -50.762  25.422  33.347  0.00  0.00     0.059 A 
ATOM     13  C   UNL d   1     -51.009  26.204  33.347  0.00  0.00     0.013 A 
ATOM     14  C   UNL d   1     -50.464  26.825  33.354  0.00  0.00     0.057 A 
ATOM     15 BR   UNL d   1     -50.719  27.608  33.354  0.00  0.00    -0.047 Br
ATOM     16  C   UNL d   1     -49.653  26.657  33.361  0.00  0.00     0.100 A 
ATOM     17  C   UNL d   1     -49.399  25.873  33.362  0.00  0.00     0.025 A 
ATOM     18  C   UNL d   1     -49.954  25.258  33.354  0.00  0.00     0.007 A 
BRANCH  16  19
ATOM     19  O   UNL d   1     -49.085  27.268  33.369  0.00  0.00    -0.328 OA
ATOM     20  C   UNL d   1     -48.640  27.419  34.053  0.00  0.00     0.181 C 
ENDBRANCH  16  19
ENDBRANCH   3  12
TORSDOF 2
ENDMDL
