MODEL 1
REMARK VINA RESULT:      46.7      0.000      0.000
REMARK  7 active torsions:
REMARK  status: ('A' for Active; 'I' for Inactive)
REMARK    1  A    between atoms: S_8  and  C_3 
REMARK    2  A    between atoms: C_4  and  C_15 
REMARK       I    between atoms: N_7  and  C_4 
REMARK    3  A    between atoms: C_13  and  C_5 
REMARK    4  A    between atoms: C_6  and  C_9 
REMARK    5  A    between atoms: C_9  and  N_7 
REMARK    6  A    between atoms: C_15  and  S_8 
REMARK    7  A    between atoms: O_17  and  C_11 
ROOT
ATOM      1  S   UNL d   1      13.674  13.924  -3.801  0.00  0.00    -0.061 SA
ENDROOT
BRANCH   1   2
ATOM      2  C   UNL d   1      13.666  14.631  -4.241  0.00  0.00     0.133 A 
ATOM      3  N   UNL d   1      13.354  14.649  -5.006  0.00  0.00    -0.141 NA
ATOM      4  N   UNL d   1      13.353  15.361  -5.435  0.00  0.00    -0.148 NA
ATOM      5  C   UNL d   1      13.662  16.047  -5.100  0.00  0.00     0.103 A 
ATOM      6  C   UNL d   1      13.974  16.030  -4.335  0.00  0.00     0.023 A 
ATOM      7  C   UNL d   1      13.977  15.326  -3.906  0.00  0.00     0.029 A 
BRANCH   5   8
ATOM      8  C   UNL d   1      13.659  16.752  -5.529  0.00  0.00     0.022 A 
ATOM      9  C   UNL d   1      12.980  16.981  -5.937  0.00  0.00     0.022 A 
ATOM     10  C   UNL d   1      12.976  17.687  -6.368  0.00  0.00     0.099 A 
ATOM     11  N   UNL d   1      13.655  18.164  -6.388  0.00  0.00    -0.242 NA
ATOM     12  C   UNL d   1      14.335  17.933  -5.977  0.00  0.00     0.099 A 
ATOM     13  C   UNL d   1      14.337  17.229  -5.549  0.00  0.00     0.022 A 
ENDBRANCH   5   8
ENDBRANCH   1   2
BRANCH   1  14
ATOM     14  C   UNL d   1      13.472  13.207  -4.159  0.00  0.00     0.099 C 
BRANCH  14  15
ATOM     15  C   UNL d   1      13.547  12.503  -3.737  0.00  0.00     0.286 C 
ATOM     16  N   UNL d   1      13.764  12.519  -2.932  0.00  0.00    -0.206 NA
ATOM     17  O   UNL d   1      13.406  11.779  -4.113  0.00  0.00    -0.265 OA
BRANCH  16  18
ATOM     18  C   UNL d   1      13.838  11.816  -2.510  0.00  0.00     0.104 C 
BRANCH  18  19
ATOM     19  C   UNL d   1      13.731  11.810  -1.687  0.00  0.00     0.042 A 
ATOM     20  C   UNL d   1      14.384  11.798  -1.185  0.00  0.00     0.096 A 
ATOM     21  C   UNL d   1      14.276  11.793  -0.366  0.00  0.00     0.024 A 
ATOM     22  C   UNL d   1      13.516  11.800  -0.049  0.00  0.00     0.002 A 
ATOM     23  C   UNL d   1      12.863  11.813  -0.551  0.00  0.00     0.000 A 
ATOM     24  C   UNL d   1      12.970  11.818  -1.370  0.00  0.00     0.004 A 
BRANCH  20  25
ATOM     25  O   UNL d   1      15.159  11.790  -1.513  0.00  0.00    -0.328 OA
ATOM     26  C   UNL d   1      15.813  11.909  -1.024  0.00  0.00     0.181 C 
ENDBRANCH  20  25
ENDBRANCH  18  19
ENDBRANCH  16  18
ENDBRANCH  14  15
ENDBRANCH   1  14
TORSDOF 7
ENDMDL
