MODEL 1
REMARK VINA RESULT:      -6.4      0.000      0.000
REMARK  7 active torsions:
REMARK  status: ('A' for Active; 'I' for Inactive)
REMARK    1  A    between atoms: S_7  and  C_1 
REMARK    2  A    between atoms: C_6  and  C_8 
REMARK       I    between atoms: N_10  and  C_6 
REMARK    3  A    between atoms: C_13  and  S_7 
REMARK    4  A    between atoms: C_21  and  N_10 
REMARK    5  A    between atoms: C_14  and  C_13 
REMARK    6  A    between atoms: C_17  and  C_21 
REMARK    7  A    between atoms: C_22  and  C_17 
ROOT
ATOM      1  C   UNL d   1     -48.570  14.214  22.531  0.00  0.00     0.058 A 
ATOM      2  C   UNL d   1     -48.167  14.198  23.240  0.00  0.00     0.005 A 
ATOM      3  C   UNL d   1     -48.283  13.761  21.885  0.00  0.00     0.005 A 
ATOM      4  C   UNL d   1     -47.196  13.291  22.687  0.00  0.00     0.007 A 
ATOM      5  C   UNL d   1     -47.622  13.316  21.960  0.00  0.00     0.001 A 
ATOM      6  C   UNL d   1     -47.489  13.742  23.317  0.00  0.00     0.001 A 
ENDROOT
BRANCH   4   7
ATOM      7  C   UNL d   1     -46.535  12.846  22.762  0.00  0.00     0.038 C 
BRANCH   7   8
ATOM      8  S   UNL d   1     -46.473  12.279  23.381  0.00  0.00    -0.048 SA
BRANCH   8   9
ATOM      9  C   UNL d   1     -45.843  11.736  23.391  0.00  0.00     0.194 A 
ATOM     10  N   UNL d   1     -45.898  10.947  23.630  0.00  0.00    -0.220 NA
ATOM     11  C   UNL d   1     -45.154  10.616  23.552  0.00  0.00     0.101 A 
ATOM     12  C   UNL d   1     -44.863   9.873  23.697  0.00  0.00     0.021 A 
ATOM     13  C   UNL d   1     -44.645  11.201  23.266  0.00  0.00     0.101 A 
ATOM     14  C   UNL d   1     -44.099   9.708  23.568  0.00  0.00     0.002 A 
ATOM     15  C   UNL d   1     -43.591  10.293  23.282  0.00  0.00     0.002 A 
ATOM     16  C   UNL d   1     -43.846  11.044  23.126  0.00  0.00     0.021 A 
ATOM     17  N   UNL d   1     -45.081  11.888  23.171  0.00  0.00    -0.220 NA
ENDBRANCH   8   9
ENDBRANCH   7   8
ENDBRANCH   4   7
BRANCH   1  18
ATOM     18  C   UNL d   1     -49.250  14.683  22.484  0.00  0.00     0.279 C 
ATOM     19  O   UNL d   1     -49.185  15.457  22.200  0.00  0.00    -0.265 OA
ATOM     20  N   UNL d   1     -49.985  14.390  22.715  0.00  0.00    -0.206 NA
BRANCH  20  21
ATOM     21  C   UNL d   1     -50.054  13.621  22.998  0.00  0.00     0.106 C 
BRANCH  21  22
ATOM     22  C   UNL d   1     -50.731  13.391  23.421  0.00  0.00     0.066 C 
BRANCH  22  23
ATOM     23  C   UNL d   1     -51.045  12.642  23.314  0.00  0.00     0.236 C 
ATOM     24  O   UNL d   1     -50.644  11.977  23.601  0.00  0.00    -0.283 OA
ENDBRANCH  22  23
ENDBRANCH  21  22
ENDBRANCH  20  21
ENDBRANCH   1  18
TORSDOF 7
ENDMDL
MODEL 2
REMARK VINA RESULT:      -6.3      1.138      1.809
REMARK  7 active torsions:
REMARK  status: ('A' for Active; 'I' for Inactive)
REMARK    1  A    between atoms: S_7  and  C_1 
REMARK    2  A    between atoms: C_6  and  C_8 
REMARK       I    between atoms: N_10  and  C_6 
REMARK    3  A    between atoms: C_13  and  S_7 
REMARK    4  A    between atoms: C_21  and  N_10 
REMARK    5  A    between atoms: C_14  and  C_13 
REMARK    6  A    between atoms: C_17  and  C_21 
REMARK    7  A    between atoms: C_22  and  C_17 
ROOT
ATOM      1  C   UNL d   1     -49.707  12.626  22.479  0.00  0.00     0.058 A 
ATOM      2  C   UNL d   1     -49.025  12.607  22.032  0.00  0.00     0.005 A 
ATOM      3  C   UNL d   1     -49.700  12.302  23.254  0.00  0.00     0.005 A 
ATOM      4  C   UNL d   1     -48.322  11.952  23.105  0.00  0.00     0.007 A 
ATOM      5  C   UNL d   1     -49.033  11.978  23.555  0.00  0.00     0.001 A 
ATOM      6  C   UNL d   1     -48.341  12.274  22.342  0.00  0.00     0.001 A 
ENDROOT
BRANCH   4   7
ATOM      7  C   UNL d   1     -47.655  11.627  23.406  0.00  0.00     0.038 C 
BRANCH   7   8
ATOM      8  S   UNL d   1     -46.934  12.063  23.405  0.00  0.00    -0.048 SA
BRANCH   8   9
ATOM      9  C   UNL d   1     -46.204  11.664  23.390  0.00  0.00     0.194 A 
ATOM     10  N   UNL d   1     -46.076  10.894  23.661  0.00  0.00    -0.220 NA
ATOM     11  C   UNL d   1     -45.285  10.722  23.542  0.00  0.00     0.101 A 
ATOM     12  C   UNL d   1     -44.836  10.063  23.694  0.00  0.00     0.021 A 
ATOM     13  C   UNL d   1     -44.930  11.384  23.199  0.00  0.00     0.101 A 
ATOM     14  C   UNL d   1     -44.064  10.054  23.516  0.00  0.00     0.002 A 
ATOM     15  C   UNL d   1     -43.709  10.717  23.173  0.00  0.00     0.002 A 
ATOM     16  C   UNL d   1     -44.126  11.389  23.008  0.00  0.00     0.021 A 
ATOM     17  N   UNL d   1     -45.506  11.959  23.110  0.00  0.00    -0.220 NA
ENDBRANCH   8   9
ENDBRANCH   7   8
ENDBRANCH   4   7
BRANCH   1  18
ATOM     18  C   UNL d   1     -50.380  12.968  22.140  0.00  0.00     0.279 C 
ATOM     19  O   UNL d   1     -50.862  12.507  21.651  0.00  0.00    -0.265 OA
ATOM     20  N   UNL d   1     -50.574  13.756  22.284  0.00  0.00    -0.206 NA
BRANCH  20  21
ATOM     21  C   UNL d   1     -50.097  14.218  22.770  0.00  0.00     0.106 C 
BRANCH  21  22
ATOM     22  C   UNL d   1     -50.374  14.949  23.051  0.00  0.00     0.066 C 
BRANCH  22  23
ATOM     23  C   UNL d   1     -49.893  15.611  23.014  0.00  0.00     0.236 C 
ATOM     24  O   UNL d   1     -49.217  15.662  23.490  0.00  0.00    -0.283 OA
ENDBRANCH  22  23
ENDBRANCH  21  22
ENDBRANCH  20  21
ENDBRANCH   1  18
TORSDOF 7
ENDMDL
MODEL 3
REMARK VINA RESULT:      -5.9      8.561      9.434
REMARK  7 active torsions:
REMARK  status: ('A' for Active; 'I' for Inactive)
REMARK    1  A    between atoms: S_7  and  C_1 
REMARK    2  A    between atoms: C_6  and  C_8 
REMARK       I    between atoms: N_10  and  C_6 
REMARK    3  A    between atoms: C_13  and  S_7 
REMARK    4  A    between atoms: C_21  and  N_10 
REMARK    5  A    between atoms: C_14  and  C_13 
REMARK    6  A    between atoms: C_17  and  C_21 
REMARK    7  A    between atoms: C_22  and  C_17 
ROOT
ATOM      1  C   UNL d   1     -40.698  15.159  17.797  0.00  0.00     0.058 A 
ATOM      2  C   UNL d   1     -40.669  15.718  18.391  0.00  0.00     0.005 A 
ATOM      3  C   UNL d   1     -40.509  14.361  17.975  0.00  0.00     0.005 A 
ATOM      4  C   UNL d   1     -40.266  14.712  19.340  0.00  0.00     0.007 A 
ATOM      5  C   UNL d   1     -40.301  14.146  18.717  0.00  0.00     0.001 A 
ATOM      6  C   UNL d   1     -40.455  15.497  19.152  0.00  0.00     0.001 A 
ENDROOT
BRANCH   4   7
ATOM      7  C   UNL d   1     -40.058  14.497  20.082  0.00  0.00     0.038 C 
BRANCH   7   8
ATOM      8  S   UNL d   1     -39.254  14.544  20.327  0.00  0.00    -0.048 SA
BRANCH   8   9
ATOM      9  C   UNL d   1     -39.032  14.285  21.086  0.00  0.00     0.194 A 
ATOM     10  N   UNL d   1     -39.210  14.673  21.793  0.00  0.00    -0.220 NA
ATOM     11  C   UNL d   1     -38.889  14.231  22.402  0.00  0.00     0.101 A 
ATOM     12  C   UNL d   1     -38.880  14.327  23.207  0.00  0.00     0.021 A 
ATOM     13  C   UNL d   1     -38.515  13.575  22.068  0.00  0.00     0.101 A 
ATOM     14  C   UNL d   1     -38.517  13.798  23.671  0.00  0.00     0.002 A 
ATOM     15  C   UNL d   1     -38.143  13.141  23.337  0.00  0.00     0.002 A 
ATOM     16  C   UNL d   1     -38.131  13.014  22.539  0.00  0.00     0.021 A 
ATOM     17  N   UNL d   1     -38.609  13.618  21.256  0.00  0.00    -0.220 NA
ENDBRANCH   8   9
ENDBRANCH   7   8
ENDBRANCH   4   7
BRANCH   1  18
ATOM     18  C   UNL d   1     -40.917  15.412  17.040  0.00  0.00     0.279 C 
ATOM     19  O   UNL d   1     -41.719  15.444  16.843  0.00  0.00    -0.265 OA
ATOM     20  N   UNL d   1     -40.348  15.630  16.485  0.00  0.00    -0.206 NA
BRANCH  20  21
ATOM     21  C   UNL d   1     -39.548  15.600  16.676  0.00  0.00     0.106 C 
BRANCH  21  22
ATOM     22  C   UNL d   1     -38.983  15.921  16.159  0.00  0.00     0.066 C 
BRANCH  22  23
ATOM     23  C   UNL d   1     -38.236  15.589  16.113  0.00  0.00     0.236 C 
ATOM     24  O   UNL d   1     -37.952  15.298  15.391  0.00  0.00    -0.283 OA
ENDBRANCH  22  23
ENDBRANCH  21  22
ENDBRANCH  20  21
ENDBRANCH   1  18
TORSDOF 7
ENDMDL
MODEL 4
REMARK VINA RESULT:      -4.9      2.172      5.545
REMARK  7 active torsions:
REMARK  status: ('A' for Active; 'I' for Inactive)
REMARK    1  A    between atoms: S_7  and  C_1 
REMARK    2  A    between atoms: C_6  and  C_8 
REMARK       I    between atoms: N_10  and  C_6 
REMARK    3  A    between atoms: C_13  and  S_7 
REMARK    4  A    between atoms: C_21  and  N_10 
REMARK    5  A    between atoms: C_14  and  C_13 
REMARK    6  A    between atoms: C_17  and  C_21 
REMARK    7  A    between atoms: C_22  and  C_17 
ROOT
ATOM      1  C   UNL d   1     -45.157  12.895  22.263  0.00  0.00     0.058 A 
ATOM      2  C   UNL d   1     -45.223  13.175  23.026  0.00  0.00     0.005 A 
ATOM      3  C   UNL d   1     -45.823  12.935  21.753  0.00  0.00     0.005 A 
ATOM      4  C   UNL d   1     -46.597  13.536  22.794  0.00  0.00     0.007 A 
ATOM      5  C   UNL d   1     -46.516  13.243  22.008  0.00  0.00     0.001 A 
ATOM      6  C   UNL d   1     -45.933  13.491  23.288  0.00  0.00     0.001 A 
ENDROOT
BRANCH   4   7
ATOM      7  C   UNL d   1     -47.290  13.844  23.049  0.00  0.00     0.038 C 
BRANCH   7   8
ATOM      8  S   UNL d   1     -47.944  13.910  22.522  0.00  0.00    -0.048 SA
BRANCH   8   9
ATOM      9  C   UNL d   1     -48.657  14.253  22.781  0.00  0.00     0.194 A 
ATOM     10  N   UNL d   1     -48.827  15.061  22.770  0.00  0.00    -0.220 NA
ATOM     11  C   UNL d   1     -49.582  15.155  23.071  0.00  0.00     0.101 A 
ATOM     12  C   UNL d   1     -50.048  15.807  23.197  0.00  0.00     0.021 A 
ATOM     13  C   UNL d   1     -49.872  14.406  23.265  0.00  0.00     0.101 A 
ATOM     14  C   UNL d   1     -50.774  15.729  23.504  0.00  0.00     0.002 A 
ATOM     15  C   UNL d   1     -51.064  14.980  23.698  0.00  0.00     0.002 A 
ATOM     16  C   UNL d   1     -50.629  14.309  23.586  0.00  0.00     0.021 A 
ATOM     17  N   UNL d   1     -49.293  13.857  23.082  0.00  0.00    -0.220 NA
ENDBRANCH   8   9
ENDBRANCH   7   8
ENDBRANCH   4   7
BRANCH   1  18
ATOM     18  C   UNL d   1     -44.428  12.581  22.028  0.00  0.00     0.279 C 
ATOM     19  O   UNL d   1     -43.986  12.981  21.454  0.00  0.00    -0.265 OA
ATOM     20  N   UNL d   1     -44.141  11.882  22.356  0.00  0.00    -0.206 NA
BRANCH  20  21
ATOM     21  C   UNL d   1     -44.577  11.482  22.927  0.00  0.00     0.106 C 
BRANCH  21  22
ATOM     22  C   UNL d   1     -44.221  10.884  23.381  0.00  0.00     0.066 C 
BRANCH  22  23
ATOM     23  C   UNL d   1     -44.644  10.210  23.574  0.00  0.00     0.236 C 
ATOM     24  O   UNL d   1     -44.372   9.464  23.338  0.00  0.00    -0.283 OA
ENDBRANCH  22  23
ENDBRANCH  21  22
ENDBRANCH  20  21
ENDBRANCH   1  18
TORSDOF 7
ENDMDL
MODEL 5
REMARK VINA RESULT:      -4.4      2.584      5.877
REMARK  7 active torsions:
REMARK  status: ('A' for Active; 'I' for Inactive)
REMARK    1  A    between atoms: S_7  and  C_1 
REMARK    2  A    between atoms: C_6  and  C_8 
REMARK       I    between atoms: N_10  and  C_6 
REMARK    3  A    between atoms: C_13  and  S_7 
REMARK    4  A    between atoms: C_21  and  N_10 
REMARK    5  A    between atoms: C_14  and  C_13 
REMARK    6  A    between atoms: C_17  and  C_21 
REMARK    7  A    between atoms: C_22  and  C_17 
ROOT
ATOM      1  C   UNL d   1     -44.949  12.449  22.409  0.00  0.00     0.058 A 
ATOM      2  C   UNL d   1     -45.254  12.674  23.131  0.00  0.00     0.005 A 
ATOM      3  C   UNL d   1     -45.340  12.688  21.706  0.00  0.00     0.005 A 
ATOM      4  C   UNL d   1     -46.331  13.371  22.477  0.00  0.00     0.007 A 
ATOM      5  C   UNL d   1     -46.005  13.131  21.738  0.00  0.00     0.001 A 
ATOM      6  C   UNL d   1     -45.936  13.130  23.165  0.00  0.00     0.001 A 
ENDROOT
BRANCH   4   7
ATOM      7  C   UNL d   1     -46.996  13.815  22.510  0.00  0.00     0.038 C 
BRANCH   7   8
ATOM      8  S   UNL d   1     -47.717  13.478  22.786  0.00  0.00    -0.048 SA
BRANCH   8   9
ATOM      9  C   UNL d   1     -48.415  13.931  22.792  0.00  0.00     0.194 A 
ATOM     10  N   UNL d   1     -49.094  13.765  22.352  0.00  0.00    -0.220 NA
ATOM     11  C   UNL d   1     -49.644  14.347  22.523  0.00  0.00     0.101 A 
ATOM     12  C   UNL d   1     -50.402  14.481  22.267  0.00  0.00     0.021 A 
ATOM     13  C   UNL d   1     -49.301  14.867  23.067  0.00  0.00     0.101 A 
ATOM     14  C   UNL d   1     -50.811  15.104  22.535  0.00  0.00     0.002 A 
ATOM     15  C   UNL d   1     -50.469  15.624  23.078  0.00  0.00     0.002 A 
ATOM     16  C   UNL d   1     -49.717  15.521  23.354  0.00  0.00     0.021 A 
ATOM     17  N   UNL d   1     -48.544  14.601  23.225  0.00  0.00    -0.220 NA
ENDBRANCH   8   9
ENDBRANCH   7   8
ENDBRANCH   4   7
BRANCH   1  18
ATOM     18  C   UNL d   1     -44.260  11.990  22.408  0.00  0.00     0.279 C 
ATOM     19  O   UNL d   1     -44.254  11.274  22.820  0.00  0.00    -0.265 OA
ATOM     20  N   UNL d   1     -43.586  12.238  22.003  0.00  0.00    -0.206 NA
BRANCH  20  21
ATOM     21  C   UNL d   1     -43.588  12.950  21.591  0.00  0.00     0.106 C 
BRANCH  21  22
ATOM     22  C   UNL d   1     -42.961  13.137  21.078  0.00  0.00     0.066 C 
BRANCH  22  23
ATOM     23  C   UNL d   1     -42.434  13.732  21.276  0.00  0.00     0.236 C 
ATOM     24  O   UNL d   1     -41.741  13.838  20.836  0.00  0.00    -0.283 OA
ENDBRANCH  22  23
ENDBRANCH  21  22
ENDBRANCH  20  21
ENDBRANCH   1  18
TORSDOF 7
ENDMDL
MODEL 6
REMARK VINA RESULT:      -3.9      8.822      9.669
REMARK  7 active torsions:
REMARK  status: ('A' for Active; 'I' for Inactive)
REMARK    1  A    between atoms: S_7  and  C_1 
REMARK    2  A    between atoms: C_6  and  C_8 
REMARK       I    between atoms: N_10  and  C_6 
REMARK    3  A    between atoms: C_13  and  S_7 
REMARK    4  A    between atoms: C_21  and  N_10 
REMARK    5  A    between atoms: C_14  and  C_13 
REMARK    6  A    between atoms: C_17  and  C_21 
REMARK    7  A    between atoms: C_22  and  C_17 
ROOT
ATOM      1  C   UNL d   1     -39.379  14.463  17.376  0.00  0.00     0.058 A 
ATOM      2  C   UNL d   1     -38.813  15.000  17.615  0.00  0.00     0.005 A 
ATOM      3  C   UNL d   1     -39.777  14.002  17.954  0.00  0.00     0.005 A 
ATOM      4  C   UNL d   1     -39.024  14.636  18.992  0.00  0.00     0.007 A 
ATOM      5  C   UNL d   1     -39.606  14.085  18.732  0.00  0.00     0.001 A 
ATOM      6  C   UNL d   1     -38.638  15.085  18.412  0.00  0.00     0.001 A 
ENDROOT
BRANCH   4   7
ATOM      7  C   UNL d   1     -38.854  14.719  19.769  0.00  0.00     0.038 C 
BRANCH   7   8
ATOM      8  S   UNL d   1     -39.397  15.106  20.283  0.00  0.00    -0.048 SA
BRANCH   8   9
ATOM      9  C   UNL d   1     -39.188  15.259  21.074  0.00  0.00     0.194 A 
ATOM     10  N   UNL d   1     -38.452  15.099  21.412  0.00  0.00    -0.220 NA
ATOM     11  C   UNL d   1     -38.486  15.334  22.195  0.00  0.00     0.101 A 
ATOM     12  C   UNL d   1     -37.945  15.318  22.799  0.00  0.00     0.021 A 
ATOM     13  C   UNL d   1     -39.242  15.636  22.336  0.00  0.00     0.101 A 
ATOM     14  C   UNL d   1     -38.138  15.589  23.518  0.00  0.00     0.002 A 
ATOM     15  C   UNL d   1     -38.894  15.891  23.659  0.00  0.00     0.002 A 
ATOM     16  C   UNL d   1     -39.458  15.922  23.081  0.00  0.00     0.021 A 
ATOM     17  N   UNL d   1     -39.667  15.585  21.638  0.00  0.00    -0.220 NA
ENDBRANCH   8   9
ENDBRANCH   7   8
ENDBRANCH   4   7
BRANCH   1  18
ATOM     18  C   UNL d   1     -39.534  14.400  16.566  0.00  0.00     0.279 C 
ATOM     19  O   UNL d   1     -39.157  13.806  16.130  0.00  0.00    -0.265 OA
ATOM     20  N   UNL d   1     -40.054  14.917  16.191  0.00  0.00    -0.206 NA
BRANCH  20  21
ATOM     21  C   UNL d   1     -40.430  15.510  16.620  0.00  0.00     0.106 C 
BRANCH  21  22
ATOM     22  C   UNL d   1     -41.071  15.922  16.289  0.00  0.00     0.066 C 
BRANCH  22  23
ATOM     23  C   UNL d   1     -41.811  15.874  16.636  0.00  0.00     0.236 C 
ATOM     24  O   UNL d   1     -42.493  15.864  16.165  0.00  0.00    -0.283 OA
ENDBRANCH  22  23
ENDBRANCH  21  22
ENDBRANCH  20  21
ENDBRANCH   1  18
TORSDOF 7
ENDMDL
MODEL 7
REMARK VINA RESULT:      -3.9      5.372      7.365
REMARK  7 active torsions:
REMARK  status: ('A' for Active; 'I' for Inactive)
REMARK    1  A    between atoms: S_7  and  C_1 
REMARK    2  A    between atoms: C_6  and  C_8 
REMARK       I    between atoms: N_10  and  C_6 
REMARK    3  A    between atoms: C_13  and  S_7 
REMARK    4  A    between atoms: C_21  and  N_10 
REMARK    5  A    between atoms: C_14  and  C_13 
REMARK    6  A    between atoms: C_17  and  C_21 
REMARK    7  A    between atoms: C_22  and  C_17 
ROOT
ATOM      1  C   UNL d   1     -40.380  14.891  20.153  0.00  0.00     0.058 A 
ATOM      2  C   UNL d   1     -40.957  15.329  20.526  0.00  0.00     0.005 A 
ATOM      3  C   UNL d   1     -40.395  14.054  20.215  0.00  0.00     0.005 A 
ATOM      4  C   UNL d   1     -41.571  14.125  21.025  0.00  0.00     0.007 A 
ATOM      5  C   UNL d   1     -40.968  13.685  20.634  0.00  0.00     0.001 A 
ATOM      6  C   UNL d   1     -41.545  14.951  20.957  0.00  0.00     0.001 A 
ENDROOT
BRANCH   4   7
ATOM      7  C   UNL d   1     -42.144  13.757  21.444  0.00  0.00     0.038 C 
BRANCH   7   8
ATOM      8  S   UNL d   1     -42.746  13.321  21.048  0.00  0.00    -0.048 SA
BRANCH   8   9
ATOM      9  C   UNL d   1     -43.445  13.113  21.448  0.00  0.00     0.194 A 
ATOM     10  N   UNL d   1     -44.121  13.585  21.500  0.00  0.00    -0.220 NA
ATOM     11  C   UNL d   1     -44.674  13.171  21.940  0.00  0.00     0.101 A 
ATOM     12  C   UNL d   1     -45.431  13.343  22.176  0.00  0.00     0.021 A 
ATOM     13  C   UNL d   1     -44.336  12.449  22.156  0.00  0.00     0.101 A 
ATOM     14  C   UNL d   1     -45.844  12.824  22.609  0.00  0.00     0.002 A 
ATOM     15  C   UNL d   1     -45.506  12.102  22.825  0.00  0.00     0.002 A 
ATOM     16  C   UNL d   1     -44.755  11.898  22.608  0.00  0.00     0.021 A 
ATOM     17  N   UNL d   1     -43.579  12.424  21.847  0.00  0.00    -0.220 NA
ENDBRANCH   8   9
ENDBRANCH   7   8
ENDBRANCH   4   7
BRANCH   1  18
ATOM     18  C   UNL d   1     -39.800  15.300  19.727  0.00  0.00     0.279 C 
ATOM     19  O   UNL d   1     -39.136  15.589  20.127  0.00  0.00    -0.265 OA
ATOM     20  N   UNL d   1     -39.877  15.422  18.915  0.00  0.00    -0.206 NA
BRANCH  20  21
ATOM     21  C   UNL d   1     -40.535  15.136  18.513  0.00  0.00     0.106 C 
BRANCH  21  22
ATOM     22  C   UNL d   1     -40.538  15.110  17.683  0.00  0.00     0.066 C 
BRANCH  22  23
ATOM     23  C   UNL d   1     -41.111  15.518  17.263  0.00  0.00     0.236 C 
ATOM     24  O   UNL d   1     -41.560  15.131  16.685  0.00  0.00    -0.283 OA
ENDBRANCH  22  23
ENDBRANCH  21  22
ENDBRANCH  20  21
ENDBRANCH   1  18
TORSDOF 7
ENDMDL
MODEL 8
REMARK VINA RESULT:      -3.9      8.379     10.199
REMARK  7 active torsions:
REMARK  status: ('A' for Active; 'I' for Inactive)
REMARK    1  A    between atoms: S_7  and  C_1 
REMARK    2  A    between atoms: C_6  and  C_8 
REMARK       I    between atoms: N_10  and  C_6 
REMARK    3  A    between atoms: C_13  and  S_7 
REMARK    4  A    between atoms: C_21  and  N_10 
REMARK    5  A    between atoms: C_14  and  C_13 
REMARK    6  A    between atoms: C_17  and  C_21 
REMARK    7  A    between atoms: C_22  and  C_17 
ROOT
ATOM      1  C   UNL d   1     -39.988  15.046  20.409  0.00  0.00     0.058 A 
ATOM      2  C   UNL d   1     -39.321  15.494  20.269  0.00  0.00     0.005 A 
ATOM      3  C   UNL d   1     -40.254  14.510  19.819  0.00  0.00     0.005 A 
ATOM      4  C   UNL d   1     -39.170  14.893  18.969  0.00  0.00     0.007 A 
ATOM      5  C   UNL d   1     -39.860  14.437  19.126  0.00  0.00     0.001 A 
ATOM      6  C   UNL d   1     -38.917  15.418  19.558  0.00  0.00     0.001 A 
ENDROOT
BRANCH   4   7
ATOM      7  C   UNL d   1     -38.777  14.820  18.276  0.00  0.00     0.038 C 
BRANCH   7   8
ATOM      8  S   UNL d   1     -39.153  15.025  17.551  0.00  0.00    -0.048 SA
BRANCH   8   9
ATOM      9  C   UNL d   1     -38.875  14.713  16.831  0.00  0.00     0.194 A 
ATOM     10  N   UNL d   1     -38.798  15.136  16.127  0.00  0.00    -0.220 NA
ATOM     11  C   UNL d   1     -38.507  14.620  15.562  0.00  0.00     0.101 A 
ATOM     12  C   UNL d   1     -38.319  14.710  14.778  0.00  0.00     0.021 A 
ATOM     13  C   UNL d   1     -38.406  13.883  15.921  0.00  0.00     0.101 A 
ATOM     14  C   UNL d   1     -38.041  14.098  14.359  0.00  0.00     0.002 A 
ATOM     15  C   UNL d   1     -37.940  13.361  14.718  0.00  0.00     0.002 A 
ATOM     16  C   UNL d   1     -38.117  13.235  15.496  0.00  0.00     0.021 A 
ATOM     17  N   UNL d   1     -38.636  13.952  16.704  0.00  0.00    -0.220 NA
ENDBRANCH   8   9
ENDBRANCH   7   8
ENDBRANCH   4   7
BRANCH   1  18
ATOM     18  C   UNL d   1     -40.373  15.144  21.135  0.00  0.00     0.279 C 
ATOM     19  O   UNL d   1     -41.055  15.611  21.167  0.00  0.00    -0.265 OA
ATOM     20  N   UNL d   1     -40.088  14.784  21.819  0.00  0.00    -0.206 NA
BRANCH  20  21
ATOM     21  C   UNL d   1     -39.410  14.319  21.791  0.00  0.00     0.106 C 
BRANCH  21  22
ATOM     22  C   UNL d   1     -39.056  14.054  22.495  0.00  0.00     0.066 C 
BRANCH  22  23
ATOM     23  C   UNL d   1     -38.774  13.287  22.548  0.00  0.00     0.236 C 
ATOM     24  O   UNL d   1     -38.264  13.072  23.163  0.00  0.00    -0.283 OA
ENDBRANCH  22  23
ENDBRANCH  21  22
ENDBRANCH  20  21
ENDBRANCH   1  18
TORSDOF 7
ENDMDL
MODEL 9
REMARK VINA RESULT:      -3.8      2.520      5.645
REMARK  7 active torsions:
REMARK  status: ('A' for Active; 'I' for Inactive)
REMARK    1  A    between atoms: S_7  and  C_1 
REMARK    2  A    between atoms: C_6  and  C_8 
REMARK       I    between atoms: N_10  and  C_6 
REMARK    3  A    between atoms: C_13  and  S_7 
REMARK    4  A    between atoms: C_21  and  N_10 
REMARK    5  A    between atoms: C_14  and  C_13 
REMARK    6  A    between atoms: C_17  and  C_21 
REMARK    7  A    between atoms: C_22  and  C_17 
ROOT
ATOM      1  C   UNL d   1     -44.740  11.210  23.330  0.00  0.00     0.058 A 
ATOM      2  C   UNL d   1     -45.214  10.574  23.520  0.00  0.00     0.005 A 
ATOM      3  C   UNL d   1     -45.086  11.971  23.252  0.00  0.00     0.005 A 
ATOM      4  C   UNL d   1     -46.373  11.428  23.558  0.00  0.00     0.007 A 
ATOM      5  C   UNL d   1     -45.872  12.076  23.362  0.00  0.00     0.001 A 
ATOM      6  C   UNL d   1     -46.020  10.682  23.632  0.00  0.00     0.001 A 
ENDROOT
BRANCH   4   7
ATOM      7  C   UNL d   1     -47.159  11.533  23.667  0.00  0.00     0.038 C 
BRANCH   7   8
ATOM      8  S   UNL d   1     -47.631  11.868  23.055  0.00  0.00    -0.048 SA
BRANCH   8   9
ATOM      9  C   UNL d   1     -48.431  12.049  23.196  0.00  0.00     0.194 A 
ATOM     10  N   UNL d   1     -48.738  12.811  23.280  0.00  0.00    -0.220 NA
ATOM     11  C   UNL d   1     -49.543  12.736  23.410  0.00  0.00     0.101 A 
ATOM     12  C   UNL d   1     -50.134  13.279  23.532  0.00  0.00     0.021 A 
ATOM     13  C   UNL d   1     -49.726  11.931  23.405  0.00  0.00     0.101 A 
ATOM     14  C   UNL d   1     -50.881  13.040  23.645  0.00  0.00     0.002 A 
ATOM     15  C   UNL d   1     -51.064  12.235  23.640  0.00  0.00     0.002 A 
ATOM     16  C   UNL d   1     -50.501  11.667  23.521  0.00  0.00     0.021 A 
ATOM     17  N   UNL d   1     -49.033  11.516  23.272  0.00  0.00    -0.220 NA
ENDBRANCH   8   9
ENDBRANCH   7   8
ENDBRANCH   4   7
BRANCH   1  18
ATOM     18  C   UNL d   1     -43.931  11.070  23.223  0.00  0.00     0.279 C 
ATOM     19  O   UNL d   1     -43.558  10.497  23.687  0.00  0.00    -0.265 OA
ATOM     20  N   UNL d   1     -43.498  11.493  22.664  0.00  0.00    -0.206 NA
BRANCH  20  21
ATOM     21  C   UNL d   1     -43.865  12.065  22.200  0.00  0.00     0.106 C 
BRANCH  21  22
ATOM     22  C   UNL d   1     -43.499  12.338  21.507  0.00  0.00     0.066 C 
BRANCH  22  23
ATOM     23  C   UNL d   1     -43.115  13.061  21.505  0.00  0.00     0.236 C 
ATOM     24  O   UNL d   1     -42.523  13.218  20.947  0.00  0.00    -0.283 OA
ENDBRANCH  22  23
ENDBRANCH  21  22
ENDBRANCH  20  21
ENDBRANCH   1  18
TORSDOF 7
ENDMDL
