MODEL 1
REMARK VINA RESULT:      -9.1      0.000      0.000
REMARK  5 active torsions:
REMARK  status: ('A' for Active; 'I' for Inactive)
REMARK    1  A    between atoms: C_10  and  C_2 
REMARK    2  A    between atoms: S_8  and  C_3 
REMARK    3  A    between atoms: C_6  and  N_7 
REMARK       I    between atoms: N_7  and  C_9 
REMARK    4  A    between atoms: C_15  and  S_8 
REMARK    5  A    between atoms: C_9  and  C_15 
ROOT
ATOM      1  S   UNL d   1      51.265  34.312  52.935  0.00  0.00    -0.041 SA
ENDROOT
BRANCH   1   2
ATOM      2  C   UNL d   1      51.824  33.755  53.149  0.00  0.00     0.219 A 
ATOM      3  N   UNL d   1      52.510  33.982  53.537  0.00  0.00    -0.167 N 
ATOM      4  C   UNL d   1      52.954  33.318  53.677  0.00  0.00     0.189 A 
ATOM      5  N   UNL d   1      52.708  34.754  53.747  0.00  0.00    -0.038 N 
ATOM      6  N   UNL d   1      52.580  32.663  53.391  0.00  0.00    -0.126 NA
ATOM      7  N   UNL d   1      51.875  32.935  53.061  0.00  0.00    -0.120 NA
BRANCH   4   8
ATOM      8  C   UNL d   1      53.684  33.305  54.055  0.00  0.00     0.038 A 
ATOM      9  C   UNL d   1      53.727  33.305  54.898  0.00  0.00     0.003 A 
ATOM     10  C   UNL d   1      54.463  33.291  55.284  0.00  0.00     0.000 A 
ATOM     11  C   UNL d   1      55.163  33.277  54.819  0.00  0.00     0.000 A 
ATOM     12  C   UNL d   1      55.109  33.277  53.983  0.00  0.00     0.000 A 
ATOM     13  C   UNL d   1      54.382  33.291  53.608  0.00  0.00     0.003 A 
ENDBRANCH   4   8
ENDBRANCH   1   2
BRANCH   1  14
ATOM     14  C   UNL d   1      50.527  34.083  52.636  0.00  0.00     0.101 C 
BRANCH  14  15
ATOM     15  C   UNL d   1      49.903  34.604  52.618  0.00  0.00     0.286 C 
ATOM     16  N   UNL d   1      49.284  34.485  52.056  0.00  0.00    -0.208 NA
ATOM     17  O   UNL d   1      49.868  35.234  53.134  0.00  0.00    -0.265 OA
BRANCH  16  18
ATOM     18  C   UNL d   1      48.641  35.021  52.038  0.00  0.00     0.085 A 
ATOM     19  C   UNL d   1      48.204  35.121  51.340  0.00  0.00     0.018 A 
ATOM     20  C   UNL d   1      47.570  35.649  51.322  0.00  0.00     0.002 A 
ATOM     21  C   UNL d   1      48.396  34.700  50.672  0.00  0.00     0.002 C 
ATOM     22  C   UNL d   1      47.373  36.078  52.002  0.00  0.00     0.000 A 
ATOM     23  C   UNL d   1      47.815  35.971  52.688  0.00  0.00     0.002 A 
ATOM     24  C   UNL d   1      48.430  35.458  52.705  0.00  0.00     0.019 A 
ATOM     25  C   UNL d   1      47.617  36.399  53.363  0.00  0.00     0.000 C 
ENDBRANCH  16  18
ENDBRANCH  14  15
ENDBRANCH   1  14
TORSDOF 5
ENDMDL
MODEL 2
REMARK VINA RESULT:      -8.8      0.975      5.824
REMARK  5 active torsions:
REMARK  status: ('A' for Active; 'I' for Inactive)
REMARK    1  A    between atoms: C_10  and  C_2 
REMARK    2  A    between atoms: S_8  and  C_3 
REMARK    3  A    between atoms: C_6  and  N_7 
REMARK       I    between atoms: N_7  and  C_9 
REMARK    4  A    between atoms: C_15  and  S_8 
REMARK    5  A    between atoms: C_9  and  C_15 
ROOT
ATOM      1  S   UNL d   1      50.481  34.296  52.840  0.00  0.00    -0.041 SA
ENDROOT
BRANCH   1   2
ATOM      2  C   UNL d   1      49.888  34.501  52.316  0.00  0.00     0.219 A 
ATOM      3  N   UNL d   1      49.242  34.937  52.570  0.00  0.00    -0.167 N 
ATOM      4  C   UNL d   1      48.750  35.055  51.936  0.00  0.00     0.189 A 
ATOM      5  N   UNL d   1      49.118  35.207  53.339  0.00  0.00    -0.038 N 
ATOM      6  N   UNL d   1      49.055  34.709  51.274  0.00  0.00    -0.126 NA
ATOM      7  N   UNL d   1      49.765  34.363  51.511  0.00  0.00    -0.120 NA
BRANCH   4   8
ATOM      8  C   UNL d   1      48.039  35.467  51.955  0.00  0.00     0.038 A 
ATOM      9  C   UNL d   1      47.978  36.193  52.381  0.00  0.00     0.003 A 
ATOM     10  C   UNL d   1      47.261  36.612  52.403  0.00  0.00     0.000 A 
ATOM     11  C   UNL d   1      46.598  36.300  51.991  0.00  0.00     0.000 A 
ATOM     12  C   UNL d   1      46.668  35.580  51.571  0.00  0.00     0.000 A 
ATOM     13  C   UNL d   1      47.377  35.170  51.553  0.00  0.00     0.003 A 
ENDBRANCH   4   8
ENDBRANCH   1   2
BRANCH   1  14
ATOM     14  C   UNL d   1      51.183  33.944  52.574  0.00  0.00     0.101 C 
BRANCH  14  15
ATOM     15  C   UNL d   1      51.745  33.681  53.100  0.00  0.00     0.286 C 
ATOM     16  N   UNL d   1      52.371  33.190  52.820  0.00  0.00    -0.208 NA
ATOM     17  O   UNL d   1      51.710  33.885  53.888  0.00  0.00    -0.265 OA
BRANCH  16  18
ATOM     18  C   UNL d   1      52.951  32.919  53.361  0.00  0.00     0.085 A 
ATOM     19  C   UNL d   1      53.145  32.114  53.392  0.00  0.00     0.018 A 
ATOM     20  C   UNL d   1      53.715  31.847  53.925  0.00  0.00     0.002 A 
ATOM     21  C   UNL d   1      52.775  31.584  52.899  0.00  0.00     0.002 C 
ATOM     22  C   UNL d   1      54.092  32.385  54.428  0.00  0.00     0.000 A 
ATOM     23  C   UNL d   1      53.891  33.182  54.387  0.00  0.00     0.002 A 
ATOM     24  C   UNL d   1      53.337  33.441  53.870  0.00  0.00     0.019 A 
ATOM     25  C   UNL d   1      54.267  33.717  54.889  0.00  0.00     0.000 C 
ENDBRANCH  16  18
ENDBRANCH  14  15
ENDBRANCH   1  14
TORSDOF 5
ENDMDL
