MODEL 1
REMARK VINA RESULT:      18.8      0.000      0.000
REMARK  2 active torsions:
REMARK  status: ('A' for Active; 'I' for Inactive)
REMARK    1  A    between atoms: C_7  and  C_1 
REMARK    2  A    between atoms: C_9  and  C_1 
ROOT
ATOM      1  C   UNL d   1     -50.943  25.098  33.404  0.00  0.00     0.240 A 
ATOM      2  S   UNL d   1     -51.655  25.510  33.370  0.00  0.00    -0.043 SA
ATOM      3  N   UNL d   1     -50.227  25.509  33.416  0.00  0.00    -0.199 NA
ATOM      4  C   UNL d   1     -51.649  26.330  33.349  0.00  0.00     0.181 A 
ATOM      5  N   UNL d   1     -50.929  26.757  33.361  0.00  0.00    -0.236 N 
ATOM      6  C   UNL d   1     -50.225  26.332  33.395  0.00  0.00     0.352 A 
ATOM      7  N   UNL d   1     -52.271  26.885  33.315  0.00  0.00    -0.219 NA
ATOM      8  O   UNL d   1     -49.507  26.738  33.407  0.00  0.00    -0.244 OA
ATOM      9  C   UNL d   1     -51.111  27.560  33.334  0.00  0.00     0.107 A 
ATOM     10  C   UNL d   1     -51.935  27.639  33.306  0.00  0.00     0.120 A 
ENDROOT
BRANCH   1  11
ATOM     11  C   UNL d   1     -50.231  24.685  33.437  0.00  0.00     0.429 C 
ATOM     12  F   UNL d   1     -49.579  24.310  33.467  0.00  0.00    -0.167 F 
ATOM     13  F   UNL d   1     -50.090  23.861  33.610  0.00  0.00    -0.167 F 
ATOM     14  F   UNL d   1     -49.433  24.978  33.306  0.00  0.00    -0.167 F 
ENDBRANCH   1  11
BRANCH   1  15
ATOM     15  C   UNL d   1     -51.662  24.694  33.391  0.00  0.00     0.016 A 
ATOM     16  C   UNL d   1     -52.362  25.114  33.318  0.00  0.00    -0.001 A 
ATOM     17  C   UNL d   1     -53.081  24.710  33.306  0.00  0.00    -0.000 A 
ATOM     18  C   UNL d   1     -53.100  23.885  33.366  0.00  0.00    -0.000 A 
ATOM     19  C   UNL d   1     -52.389  23.471  33.440  0.00  0.00    -0.000 A 
ATOM     20  C   UNL d   1     -53.819  23.481  33.354  0.00  0.00    -0.000 C 
ATOM     21  C   UNL d   1     -51.678  23.871  33.452  0.00  0.00    -0.001 A 
ENDBRANCH   1  15
TORSDOF 2
ENDMDL
