MODEL 1
REMARK VINA RESULT:      -4.9      0.000      0.000
REMARK  0 active torsions:
REMARK  status: ('A' for Active; 'I' for Inactive)
REMARK       I    between atoms: N_3  and  C_1 
REMARK       I    between atoms: N_5  and  C_1 
REMARK       I    between atoms: C_2  and  N_4 
REMARK       I    between atoms: N_6  and  C_2 
ROOT
ATOM      1  C   UNL d   1      57.625   0.680  30.481  0.00  0.00     0.339 C 
ATOM      2  C   UNL d   1      56.909   0.679  33.702  0.00  0.00     0.340 C 
ATOM      3  N   UNL d   1      57.448   0.680  31.299  0.00  0.00    -0.254 N 
ATOM      4  N   UNL d   1      57.092   0.679  32.898  0.00  0.00    -0.254 N 
ATOM      5  N   UNL d   1      58.411   0.681  30.229  0.00  0.00    -0.258 N 
ATOM      6  N   UNL d   1      56.124   0.678  33.946  0.00  0.00    -0.253 N 
ATOM      7  O   UNL d   1      57.017   0.680  29.932  0.00  0.00    -0.245 OA
ATOM      8  O   UNL d   1      57.513   0.679  34.267  0.00  0.00    -0.245 OA
ATOM      9  C   UNL d   1      57.897   0.680  32.654  0.00  0.00     0.104 A 
ATOM     10  C   UNL d   1      56.494   0.679  32.342  0.00  0.00     0.104 A 
ATOM     11  C   UNL d   1      56.674   0.679  31.537  0.00  0.00     0.104 A 
ATOM     12  C   UNL d   1      58.076   0.680  31.849  0.00  0.00     0.104 A 
ATOM     13  O   UNL d   1      54.547   0.677  34.419  0.00  0.00    -0.300 OA
ATOM     14  C   UNL d   1      55.521   0.678  33.380  0.00  0.00     0.111 A 
ATOM     15  C   UNL d   1      55.945   0.678  34.751  0.00  0.00     0.111 A 
ATOM     16  C   UNL d   1      58.529   0.681  29.414  0.00  0.00     0.085 A 
ATOM     17  C   UNL d   1      58.982   0.681  30.829  0.00  0.00     0.085 A 
ATOM     18  C   UNL d   1      55.150   0.677  34.988  0.00  0.00     0.142 A 
ATOM     19  C   UNL d   1      54.738   0.677  33.616  0.00  0.00     0.142 A 
ATOM     20  C   UNL d   1      59.236   0.681  28.995  0.00  0.00     0.019 A 
ATOM     21  C   UNL d   1      59.805   0.681  30.756  0.00  0.00     0.019 A 
ATOM     22  C   UNL d   1      60.005   0.682  29.281  0.00  0.00     0.002 A 
ATOM     23  C   UNL d   1      60.257   0.682  30.067  0.00  0.00     0.002 A 
ENDROOT
TORSDOF 0
ENDMDL
MODEL 2
REMARK VINA RESULT:      -4.0      1.754      1.954
REMARK  0 active torsions:
REMARK  status: ('A' for Active; 'I' for Inactive)
REMARK       I    between atoms: N_3  and  C_1 
REMARK       I    between atoms: N_5  and  C_1 
REMARK       I    between atoms: C_2  and  N_4 
REMARK       I    between atoms: N_6  and  C_2 
ROOT
ATOM      1  C   UNL d   1      58.313  -0.098  30.403  0.00  0.00     0.339 C 
ATOM      2  C   UNL d   1      56.060  -1.148  32.574  0.00  0.00     0.340 C 
ATOM      3  N   UNL d   1      57.742  -0.368  30.952  0.00  0.00    -0.254 N 
ATOM      4  N   UNL d   1      56.624  -0.889  32.030  0.00  0.00    -0.254 N 
ATOM      5  N   UNL d   1      58.622  -0.615  29.840  0.00  0.00    -0.258 N 
ATOM      6  N   UNL d   1      55.758  -0.626  33.132  0.00  0.00    -0.253 N 
ATOM      7  O   UNL d   1      58.565   0.682  30.427  0.00  0.00    -0.245 OA
ATOM      8  O   UNL d   1      55.798  -1.931  32.561  0.00  0.00    -0.245 OA
ATOM      9  C   UNL d   1      56.931  -1.427  31.460  0.00  0.00     0.104 A 
ATOM     10  C   UNL d   1      56.882  -0.115  32.044  0.00  0.00     0.104 A 
ATOM     11  C   UNL d   1      57.445   0.148  31.501  0.00  0.00     0.104 A 
ATOM     12  C   UNL d   1      57.494  -1.164  30.917  0.00  0.00     0.104 A 
ATOM     13  O   UNL d   1      55.160   0.430  34.245  0.00  0.00    -0.300 OA
ATOM     14  C   UNL d   1      56.021   0.158  33.144  0.00  0.00     0.111 A 
ATOM     15  C   UNL d   1      55.194  -0.889  33.675  0.00  0.00     0.111 A 
ATOM     16  C   UNL d   1      59.181  -0.297  29.325  0.00  0.00     0.085 A 
ATOM     17  C   UNL d   1      58.330  -1.390  29.864  0.00  0.00     0.085 A 
ATOM     18  C   UNL d   1      54.894  -0.355  34.235  0.00  0.00     0.142 A 
ATOM     19  C   UNL d   1      55.724   0.682  33.697  0.00  0.00     0.142 A 
ATOM     20  C   UNL d   1      59.585  -0.666  28.711  0.00  0.00     0.019 A 
ATOM     21  C   UNL d   1      58.528  -2.029  29.380  0.00  0.00     0.019 A 
ATOM     22  C   UNL d   1      59.536  -1.443  28.455  0.00  0.00     0.002 A 
ATOM     23  C   UNL d   1      59.063  -2.051  28.755  0.00  0.00     0.002 A 
ENDROOT
TORSDOF 0
ENDMDL
