MODEL 1
REMARK VINA RESULT:      95.4      0.000      0.000
REMARK  8 active torsions:
REMARK  status: ('A' for Active; 'I' for Inactive)
REMARK    1  A    between atoms: S_5  and  C_2 
REMARK       I    between atoms: C_3  and  N_9 
REMARK    2  A    between atoms: C_16  and  C_3 
REMARK       I    between atoms: C_4  and  N_8 
REMARK    3  A    between atoms: C_17  and  C_4 
REMARK    4  A    between atoms: C_10  and  S_5 
REMARK    5  A    between atoms: S_11  and  C_6 
REMARK    6  A    between atoms: N_8  and  C_10 
REMARK    7  A    between atoms: N_9  and  C_12 
REMARK    8  A    between atoms: C_12  and  S_11 
ROOT
ATOM      1  N   UNL d   1      60.676  48.332  50.010  0.00  0.00    -0.214 NA
ATOM      2  C   UNL d   1      61.191  47.695  50.110  0.00  0.00     0.196 A 
ATOM      3  C   UNL d   1      60.854  49.048  50.380  0.00  0.00     0.116 A 
ATOM      4  N   UNL d   1      61.880  47.759  50.573  0.00  0.00    -0.220 NA
ATOM      5  C   UNL d   1      61.523  49.135  50.837  0.00  0.00     0.047 A 
ATOM      6  C   UNL d   1      62.038  48.499  50.938  0.00  0.00     0.103 A 
ENDROOT
BRANCH   2   7
ATOM      7  S   UNL d   1      61.056  46.947  49.756  0.00  0.00    -0.027 SA
BRANCH   7   8
ATOM      8  C   UNL d   1      61.675  46.462  49.559  0.00  0.00     0.141 C 
BRANCH   8   9
ATOM      9  N   UNL d   1      61.568  45.629  49.701  0.00  0.00    -0.199 NA
ATOM     10  C   UNL d   1      62.100  45.239  50.232  0.00  0.00     0.280 C 
ATOM     11  O   UNL d   1      62.705  45.666  50.596  0.00  0.00    -0.265 OA
BRANCH  10  12
ATOM     12  C   UNL d   1      62.032  44.435  50.397  0.00  0.00     0.058 A 
ATOM     13  C   UNL d   1      62.462  43.872  49.975  0.00  0.00     0.005 A 
ATOM     14  C   UNL d   1      62.376  43.068  50.160  0.00  0.00     0.000 A 
ATOM     15  C   UNL d   1      61.868  42.832  50.760  0.00  0.00     0.000 A 
ATOM     16  C   UNL d   1      61.445  43.383  51.177  0.00  0.00     0.000 A 
ATOM     17  C   UNL d   1      61.527  44.197  50.994  0.00  0.00     0.005 A 
ENDBRANCH  10  12
ENDBRANCH   8   9
ENDBRANCH   7   8
ENDBRANCH   2   7
BRANCH   3  18
ATOM     18  S   UNL d   1      60.341  49.694  50.284  0.00  0.00    -0.047 SA
BRANCH  18  19
ATOM     19  C   UNL d   1      59.623  49.708  50.691  0.00  0.00     0.139 C 
BRANCH  19  20
ATOM     20  N   UNL d   1      58.915  49.708  50.275  0.00  0.00    -0.199 NA
ATOM     21  C   UNL d   1      58.203  49.681  50.682  0.00  0.00     0.280 C 
ATOM     22  O   UNL d   1      58.204  49.654  51.516  0.00  0.00    -0.265 OA
BRANCH  21  23
ATOM     23  C   UNL d   1      57.490  49.681  50.267  0.00  0.00     0.058 A 
ATOM     24  C   UNL d   1      57.490  49.656  49.445  0.00  0.00     0.005 A 
ATOM     25  C   UNL d   1      56.793  49.655  49.007  0.00  0.00     0.000 A 
ATOM     26  C   UNL d   1      56.064  49.680  49.398  0.00  0.00     0.000 A 
ATOM     27  C   UNL d   1      56.033  49.707  50.239  0.00  0.00     0.000 A 
ATOM     28  C   UNL d   1      56.757  49.707  50.659  0.00  0.00     0.005 A 
ENDBRANCH  21  23
ENDBRANCH  19  20
ENDBRANCH  18  19
ENDBRANCH   3  18
TORSDOF 8
ENDMDL
MODEL 2
REMARK VINA RESULT:      96.0      2.079      3.022
REMARK  8 active torsions:
REMARK  status: ('A' for Active; 'I' for Inactive)
REMARK    1  A    between atoms: S_5  and  C_2 
REMARK       I    between atoms: C_3  and  N_9 
REMARK    2  A    between atoms: C_16  and  C_3 
REMARK       I    between atoms: C_4  and  N_8 
REMARK    3  A    between atoms: C_17  and  C_4 
REMARK    4  A    between atoms: C_10  and  S_5 
REMARK    5  A    between atoms: S_11  and  C_6 
REMARK    6  A    between atoms: N_8  and  C_10 
REMARK    7  A    between atoms: N_9  and  C_12 
REMARK    8  A    between atoms: C_12  and  S_11 
ROOT
ATOM      1  N   UNL d   1      61.368  46.108  49.309  0.00  0.00    -0.214 NA
ATOM      2  C   UNL d   1      61.720  45.362  49.291  0.00  0.00     0.196 A 
ATOM      3  C   UNL d   1      61.833  46.771  49.149  0.00  0.00     0.116 A 
ATOM      4  N   UNL d   1      62.528  45.265  49.115  0.00  0.00    -0.220 NA
ATOM      5  C   UNL d   1      62.626  46.700  48.974  0.00  0.00     0.047 A 
ATOM      6  C   UNL d   1      62.978  45.955  48.955  0.00  0.00     0.103 A 
ENDROOT
BRANCH   2   7
ATOM      7  S   UNL d   1      61.292  44.659  49.447  0.00  0.00    -0.027 SA
BRANCH   7   8
ATOM      8  C   UNL d   1      61.252  44.353  50.197  0.00  0.00     0.141 C 
BRANCH   8   9
ATOM      9  N   UNL d   1      61.780  43.709  50.376  0.00  0.00    -0.199 NA
ATOM     10  C   UNL d   1      61.662  43.276  51.093  0.00  0.00     0.280 C 
ATOM     11  O   UNL d   1      61.044  43.482  51.601  0.00  0.00    -0.265 OA
BRANCH  10  12
ATOM     12  C   UNL d   1      62.149  42.647  51.304  0.00  0.00     0.058 A 
ATOM     13  C   UNL d   1      62.276  42.012  50.792  0.00  0.00     0.005 A 
ATOM     14  C   UNL d   1      62.772  41.390  51.027  0.00  0.00     0.000 A 
ATOM     15  C   UNL d   1      63.135  41.404  51.763  0.00  0.00     0.000 A 
ATOM     16  C   UNL d   1      63.012  42.026  52.267  0.00  0.00     0.000 A 
ATOM     17  C   UNL d   1      62.512  42.658  52.035  0.00  0.00     0.005 A 
ENDBRANCH  10  12
ENDBRANCH   8   9
ENDBRANCH   7   8
ENDBRANCH   2   7
BRANCH   3  18
ATOM     18  S   UNL d   1      61.486  47.525  49.165  0.00  0.00    -0.047 SA
BRANCH  18  19
ATOM     19  C   UNL d   1      61.767  48.091  49.696  0.00  0.00     0.139 C 
BRANCH  19  20
ATOM     20  N   UNL d   1      61.332  48.276  50.367  0.00  0.00    -0.199 NA
ATOM     21  C   UNL d   1      61.124  49.056  50.516  0.00  0.00     0.280 C 
ATOM     22  O   UNL d   1      61.357  49.654  49.984  0.00  0.00    -0.265 OA
BRANCH  21  23
ATOM     23  C   UNL d   1      60.687  49.245  51.189  0.00  0.00     0.058 A 
ATOM     24  C   UNL d   1      61.066  49.512  51.868  0.00  0.00     0.005 A 
ATOM     25  C   UNL d   1      60.653  49.707  52.553  0.00  0.00     0.000 A 
ATOM     26  C   UNL d   1      59.828  49.634  52.568  0.00  0.00     0.000 A 
ATOM     27  C   UNL d   1      59.413  49.362  51.888  0.00  0.00     0.000 A 
ATOM     28  C   UNL d   1      59.858  49.171  51.206  0.00  0.00     0.005 A 
ENDBRANCH  21  23
ENDBRANCH  19  20
ENDBRANCH  18  19
ENDBRANCH   3  18
TORSDOF 8
ENDMDL
