MODEL 1
REMARK VINA RESULT:      14.4      0.000      0.000
REMARK  1 active torsions:
REMARK  status: ('A' for Active; 'I' for Inactive)
REMARK    1  A    between atoms: C_4  and  C_1 
ROOT
ATOM      1  C   UNL d   1      44.278 -15.446  36.725  0.00  0.00     0.112 A 
ATOM      2  N   UNL d   1      43.614 -14.952  36.802  0.00  0.00    -0.238 NA
ATOM      3  S   UNL d   1      44.012 -16.213  36.534  0.00  0.00    -0.066 SA
ATOM      4  C   UNL d   1      42.938 -15.412  36.660  0.00  0.00     0.088 A 
ATOM      5  C   UNL d   1      43.183 -16.189  36.495  0.00  0.00     0.049 A 
ATOM      6  C   UNL d   1      42.135 -15.224  36.660  0.00  0.00     0.020 A 
ATOM      7  C   UNL d   1      42.624 -16.774  36.331  0.00  0.00     0.008 A 
ATOM      8  C   UNL d   1      41.821 -16.584  36.330  0.00  0.00     0.001 A 
ATOM      9  C   UNL d   1      41.576 -15.808  36.495  0.00  0.00     0.002 A 
ENDROOT
BRANCH   1  10
ATOM     10  C   UNL d   1      45.068 -15.220  36.819  0.00  0.00     0.043 A 
ATOM     11  C   UNL d   1      45.264 -14.628  37.365  0.00  0.00     0.105 A 
ATOM     12  N   UNL d   1      44.671 -14.267  37.811  0.00  0.00    -0.148 N 
ATOM     13  C   UNL d   1      46.053 -14.403  37.460  0.00  0.00     0.021 A 
ATOM     14  C   UNL d   1      46.646 -14.764  37.014  0.00  0.00     0.002 A 
ATOM     15  C   UNL d   1      46.438 -15.357  36.469  0.00  0.00     0.000 A 
ATOM     16  C   UNL d   1      45.662 -15.581  36.373  0.00  0.00     0.004 A 
ENDBRANCH   1  10
TORSDOF 1
ENDMDL
MODEL 2
REMARK VINA RESULT:      15.3      7.021      7.557
REMARK  1 active torsions:
REMARK  status: ('A' for Active; 'I' for Inactive)
REMARK    1  A    between atoms: C_4  and  C_1 
ROOT
ATOM      1  C   UNL d   1      46.529 -18.947  42.252  0.00  0.00     0.112 A 
ATOM      2  N   UNL d   1      46.430 -18.457  42.916  0.00  0.00    -0.238 NA
ATOM      3  S   UNL d   1      46.617 -19.732  42.518  0.00  0.00    -0.066 SA
ATOM      4  C   UNL d   1      46.458 -18.938  43.592  0.00  0.00     0.088 A 
ATOM      5  C   UNL d   1      46.574 -19.724  43.347  0.00  0.00     0.049 A 
ATOM      6  C   UNL d   1      46.394 -18.761  44.395  0.00  0.00     0.020 A 
ATOM      7  C   UNL d   1      46.624 -20.329  43.906  0.00  0.00     0.008 A 
ATOM      8  C   UNL d   1      46.560 -20.151  44.710  0.00  0.00     0.001 A 
ATOM      9  C   UNL d   1      46.444 -19.365  44.955  0.00  0.00     0.002 A 
ENDROOT
BRANCH   1  10
ATOM     10  C   UNL d   1      46.537 -18.704  41.461  0.00  0.00     0.043 A 
ATOM     11  C   UNL d   1      46.596 -19.269  40.858  0.00  0.00     0.105 A 
ATOM     12  N   UNL d   1      46.646 -20.071  41.048  0.00  0.00    -0.148 N 
ATOM     13  C   UNL d   1      46.605 -19.026  40.069  0.00  0.00     0.021 A 
ATOM     14  C   UNL d   1      46.555 -18.224  39.878  0.00  0.00     0.002 A 
ATOM     15  C   UNL d   1      46.497 -17.666  40.492  0.00  0.00     0.000 A 
ATOM     16  C   UNL d   1      46.488 -17.902  41.271  0.00  0.00     0.004 A 
ENDBRANCH   1  10
TORSDOF 1
ENDMDL
