MODEL 1
REMARK VINA RESULT:      -2.8      0.000      0.000
REMARK  2 active torsions:
REMARK  status: ('A' for Active; 'I' for Inactive)
REMARK    1  A    between atoms: C_7  and  C_1 
REMARK    2  A    between atoms: O_19  and  C_15 
ROOT
ATOM      1  C   UNL d   1      32.922  21.682 -21.631  0.00  0.00     0.064 A 
ATOM      2  C   UNL d   1      32.830  20.853 -21.671  0.00  0.00     0.199 A 
ATOM      3  C   UNL d   1      32.932  20.455 -22.389  0.00  0.00     0.062 A 
ATOM      4  C   UNL d   1      33.119  22.111 -22.322  0.00  0.00     0.126 A 
ATOM      5  C   UNL d   1      33.130  20.888 -23.078  0.00  0.00     0.106 A 
ATOM      6  O   UNL d   1      33.223  21.708 -23.047  0.00  0.00    -0.305 OA
ATOM      7  C   UNL d   1      32.841  19.641 -22.427  0.00  0.00     0.009 A 
ATOM      8  C   UNL d   1      33.232  20.490 -23.795  0.00  0.00     0.067 A 
ATOM      9  O   UNL d   1      32.635  20.431 -20.990  0.00  0.00    -0.286 OA
ATOM     10  C   UNL d   1      33.138  19.669 -23.823  0.00  0.00     0.198 A 
ATOM     11  C   UNL d   1      32.943  19.246 -23.142  0.00  0.00     0.042 A 
ATOM     12  O   UNL d   1      33.240  19.274 -24.538  0.00  0.00    -0.286 OA
ENDROOT
BRANCH   1  13
ATOM     13  C   UNL d   1      32.819  22.072 -20.917  0.00  0.00     0.005 A 
ATOM     14  C   UNL d   1      32.295  22.708 -20.872  0.00  0.00     0.002 A 
ATOM     15  C   UNL d   1      32.195  23.098 -20.154  0.00  0.00     0.024 A 
ATOM     16  C   UNL d   1      32.612  22.859 -19.482  0.00  0.00     0.094 A 
ATOM     17  C   UNL d   1      33.139  22.217 -19.537  0.00  0.00     0.024 A 
ATOM     18  C   UNL d   1      33.241  21.826 -20.255  0.00  0.00     0.002 A 
BRANCH  16  19
ATOM     19  O   UNL d   1      32.511  23.249 -18.765  0.00  0.00    -0.328 OA
ATOM     20  C   UNL d   1      33.149  23.332 -18.246  0.00  0.00     0.181 C 
ENDBRANCH  16  19
ENDBRANCH   1  13
TORSDOF 2
ENDMDL
MODEL 2
REMARK VINA RESULT:      -2.7      1.405      2.353
REMARK  2 active torsions:
REMARK  status: ('A' for Active; 'I' for Inactive)
REMARK    1  A    between atoms: C_7  and  C_1 
REMARK    2  A    between atoms: O_19  and  C_15 
ROOT
ATOM      1  C   UNL d   1      32.959  19.853 -22.242  0.00  0.00     0.064 A 
ATOM      2  C   UNL d   1      32.857  19.733 -23.061  0.00  0.00     0.199 A 
ATOM      3  C   UNL d   1      32.946  18.978 -23.388  0.00  0.00     0.062 A 
ATOM      4  C   UNL d   1      33.152  19.204 -21.749  0.00  0.00     0.126 A 
ATOM      5  C   UNL d   1      33.139  18.332 -22.892  0.00  0.00     0.106 A 
ATOM      6  O   UNL d   1      33.241  18.441 -22.079  0.00  0.00    -0.305 OA
ATOM      7  C   UNL d   1      32.845  18.862 -24.194  0.00  0.00     0.009 A 
ATOM      8  C   UNL d   1      33.227  17.578 -23.218  0.00  0.00     0.067 A 
ATOM      9  O   UNL d   1      32.667  20.372 -23.547  0.00  0.00    -0.286 OA
ATOM     10  C   UNL d   1      33.124  17.471 -24.031  0.00  0.00     0.198 A 
ATOM     11  C   UNL d   1      32.934  18.110 -24.517  0.00  0.00     0.042 A 
ATOM     12  O   UNL d   1      33.212  16.719 -24.355  0.00  0.00    -0.286 OA
ENDROOT
BRANCH   1  13
ATOM     13  C   UNL d   1      32.870  20.602 -21.923  0.00  0.00     0.005 A 
ATOM     14  C   UNL d   1      32.411  20.705 -21.245  0.00  0.00     0.002 A 
ATOM     15  C   UNL d   1      32.324  21.460 -20.926  0.00  0.00     0.024 A 
ATOM     16  C   UNL d   1      32.691  22.111 -21.278  0.00  0.00     0.094 A 
ATOM     17  C   UNL d   1      33.152  21.998 -21.962  0.00  0.00     0.024 A 
ATOM     18  C   UNL d   1      33.240  21.244 -22.282  0.00  0.00     0.002 A 
BRANCH  16  19
ATOM     19  O   UNL d   1      32.603  22.864 -20.960  0.00  0.00    -0.328 OA
ATOM     20  C   UNL d   1      31.993  23.356 -21.222  0.00  0.00     0.181 C 
ENDBRANCH  16  19
ENDBRANCH   1  13
TORSDOF 2
ENDMDL
MODEL 3
REMARK VINA RESULT:      -2.6      4.248      6.318
REMARK  2 active torsions:
REMARK  status: ('A' for Active; 'I' for Inactive)
REMARK    1  A    between atoms: C_7  and  C_1 
REMARK    2  A    between atoms: O_19  and  C_15 
ROOT
ATOM      1  C   UNL d   1      30.578  16.931 -24.080  0.00  0.00     0.064 A 
ATOM      2  C   UNL d   1      29.840  17.294 -23.940  0.00  0.00     0.199 A 
ATOM      3  C   UNL d   1      29.171  16.834 -23.782  0.00  0.00     0.062 A 
ATOM      4  C   UNL d   1      30.640  16.097 -24.059  0.00  0.00     0.126 A 
ATOM      5  C   UNL d   1      29.237  16.000 -23.761  0.00  0.00     0.106 A 
ATOM      6  O   UNL d   1      29.964  15.632 -23.898  0.00  0.00    -0.305 OA
ATOM      7  C   UNL d   1      28.445  17.193 -23.645  0.00  0.00     0.009 A 
ATOM      8  C   UNL d   1      28.568  15.541 -23.603  0.00  0.00     0.067 A 
ATOM      9  O   UNL d   1      29.779  18.117 -23.961  0.00  0.00    -0.286 OA
ATOM     10  C   UNL d   1      27.842  15.912 -23.466  0.00  0.00     0.198 A 
ATOM     11  C   UNL d   1      27.781  16.734 -23.487  0.00  0.00     0.042 A 
ATOM     12  O   UNL d   1      27.177  15.453 -23.308  0.00  0.00    -0.286 OA
ENDROOT
BRANCH   1  13
ATOM     13  C   UNL d   1      31.238  17.391 -24.237  0.00  0.00     0.005 A 
ATOM     14  C   UNL d   1      31.274  17.829 -24.935  0.00  0.00     0.002 A 
ATOM     15  C   UNL d   1      31.939  18.290 -25.089  0.00  0.00     0.024 A 
ATOM     16  C   UNL d   1      32.567  18.316 -24.554  0.00  0.00     0.094 A 
ATOM     17  C   UNL d   1      32.523  17.871 -23.852  0.00  0.00     0.024 A 
ATOM     18  C   UNL d   1      31.859  17.410 -23.696  0.00  0.00     0.002 A 
BRANCH  16  19
ATOM     19  O   UNL d   1      33.231  18.777 -24.709  0.00  0.00    -0.328 OA
ATOM     20  C   UNL d   1      33.211  19.592 -24.570  0.00  0.00     0.181 C 
ENDBRANCH  16  19
ENDBRANCH   1  13
TORSDOF 2
ENDMDL
MODEL 4
REMARK VINA RESULT:      -2.4      1.194      4.346
REMARK  2 active torsions:
REMARK  status: ('A' for Active; 'I' for Inactive)
REMARK    1  A    between atoms: C_7  and  C_1 
REMARK    2  A    between atoms: O_19  and  C_15 
ROOT
ATOM      1  C   UNL d   1      33.021  20.114 -22.670  0.00  0.00     0.064 A 
ATOM      2  C   UNL d   1      32.949  20.273 -21.854  0.00  0.00     0.199 A 
ATOM      3  C   UNL d   1      33.021  21.047 -21.570  0.00  0.00     0.062 A 
ATOM      4  C   UNL d   1      33.167  20.742 -23.203  0.00  0.00     0.126 A 
ATOM      5  C   UNL d   1      33.167  21.673 -22.106  0.00  0.00     0.106 A 
ATOM      6  O   UNL d   1      33.239  21.525 -22.916  0.00  0.00    -0.305 OA
ATOM      7  C   UNL d   1      32.949  21.201 -20.767  0.00  0.00     0.009 A 
ATOM      8  C   UNL d   1      33.238  22.445 -21.823  0.00  0.00     0.067 A 
ATOM      9  O   UNL d   1      32.805  19.653 -21.328  0.00  0.00    -0.286 OA
ATOM     10  C   UNL d   1      33.165  22.591 -21.012  0.00  0.00     0.198 A 
ATOM     11  C   UNL d   1      33.021  21.971 -20.487  0.00  0.00     0.042 A 
ATOM     12  O   UNL d   1      33.237  23.361 -20.731  0.00  0.00    -0.286 OA
ENDROOT
BRANCH   1  13
ATOM     13  C   UNL d   1      32.949  19.346 -22.946  0.00  0.00     0.005 A 
ATOM     14  C   UNL d   1      32.585  19.207 -23.673  0.00  0.00     0.002 A 
ATOM     15  C   UNL d   1      32.514  18.434 -23.949  0.00  0.00     0.024 A 
ATOM     16  C   UNL d   1      32.803  17.800 -23.505  0.00  0.00     0.094 A 
ATOM     17  C   UNL d   1      33.170  17.950 -22.772  0.00  0.00     0.024 A 
ATOM     18  C   UNL d   1      33.241  18.722 -22.496  0.00  0.00     0.002 A 
BRANCH  16  19
ATOM     19  O   UNL d   1      32.732  17.029 -23.781  0.00  0.00    -0.328 OA
ATOM     20  C   UNL d   1      32.036  16.603 -23.646  0.00  0.00     0.181 C 
ENDBRANCH  16  19
ENDBRANCH   1  13
TORSDOF 2
ENDMDL
MODEL 5
REMARK VINA RESULT:      -2.4      0.706      4.356
REMARK  2 active torsions:
REMARK  status: ('A' for Active; 'I' for Inactive)
REMARK    1  A    between atoms: C_7  and  C_1 
REMARK    2  A    between atoms: O_19  and  C_15 
ROOT
ATOM      1  C   UNL d   1      33.072  20.622 -21.650  0.00  0.00     0.064 A 
ATOM      2  C   UNL d   1      32.903  21.428 -21.780  0.00  0.00     0.199 A 
ATOM      3  C   UNL d   1      32.902  21.963 -21.149  0.00  0.00     0.062 A 
ATOM      4  C   UNL d   1      33.241  20.354 -20.875  0.00  0.00     0.126 A 
ATOM      5  C   UNL d   1      33.072  21.692 -20.376  0.00  0.00     0.106 A 
ATOM      6  O   UNL d   1      33.240  20.895 -20.237  0.00  0.00    -0.305 OA
ATOM      7  C   UNL d   1      32.736  22.756 -21.280  0.00  0.00     0.009 A 
ATOM      8  C   UNL d   1      33.071  22.226 -19.746  0.00  0.00     0.067 A 
ATOM      9  O   UNL d   1      32.737  21.692 -22.544  0.00  0.00    -0.286 OA
ATOM     10  C   UNL d   1      32.902  23.023 -19.887  0.00  0.00     0.198 A 
ATOM     11  C   UNL d   1      32.736  23.287 -20.651  0.00  0.00     0.042 A 
ATOM     12  O   UNL d   1      32.902  23.555 -19.258  0.00  0.00    -0.286 OA
ENDROOT
BRANCH   1  13
ATOM     13  C   UNL d   1      33.072  20.095 -22.278  0.00  0.00     0.005 A 
ATOM     14  C   UNL d   1      33.241  20.367 -23.038  0.00  0.00     0.002 A 
ATOM     15  C   UNL d   1      33.240  19.836 -23.667  0.00  0.00     0.024 A 
ATOM     16  C   UNL d   1      33.072  19.037 -23.543  0.00  0.00     0.094 A 
ATOM     17  C   UNL d   1      32.902  18.771 -22.772  0.00  0.00     0.024 A 
ATOM     18  C   UNL d   1      32.903  19.301 -22.143  0.00  0.00     0.002 A 
BRANCH  16  19
ATOM     19  O   UNL d   1      33.071  18.506 -24.172  0.00  0.00    -0.328 OA
ATOM     20  C   UNL d   1      32.383  18.089 -24.361  0.00  0.00     0.181 C 
ENDBRANCH  16  19
ENDBRANCH   1  13
TORSDOF 2
ENDMDL
MODEL 6
REMARK VINA RESULT:      -1.9      1.596      2.660
REMARK  2 active torsions:
REMARK  status: ('A' for Active; 'I' for Inactive)
REMARK    1  A    between atoms: C_7  and  C_1 
REMARK    2  A    between atoms: O_19  and  C_15 
ROOT
ATOM      1  C   UNL d   1      32.954  23.012 -19.472  0.00  0.00     0.064 A 
ATOM      2  C   UNL d   1      32.744  22.330 -19.903  0.00  0.00     0.199 A 
ATOM      3  C   UNL d   1      32.776  22.331 -20.730  0.00  0.00     0.062 A 
ATOM      4  C   UNL d   1      33.198  23.702 -19.880  0.00  0.00     0.126 A 
ATOM      5  C   UNL d   1      33.021  23.022 -21.134  0.00  0.00     0.106 A 
ATOM      6  O   UNL d   1      33.230  23.702 -20.715  0.00  0.00    -0.305 OA
ATOM      7  C   UNL d   1      32.569  21.658 -21.153  0.00  0.00     0.009 A 
ATOM      8  C   UNL d   1      33.052  23.022 -21.960  0.00  0.00     0.067 A 
ATOM      9  O   UNL d   1      32.504  21.651 -19.501  0.00  0.00    -0.286 OA
ATOM     10  C   UNL d   1      32.842  22.340 -22.377  0.00  0.00     0.198 A 
ATOM     11  C   UNL d   1      32.602  21.661 -21.975  0.00  0.00     0.042 A 
ATOM     12  O   UNL d   1      32.874  22.342 -23.199  0.00  0.00    -0.286 OA
ENDROOT
BRANCH   1  13
ATOM     13  C   UNL d   1      32.921  23.007 -18.653  0.00  0.00     0.005 A 
ATOM     14  C   UNL d   1      32.593  23.650 -18.254  0.00  0.00     0.002 A 
ATOM     15  C   UNL d   1      32.561  23.642 -17.431  0.00  0.00     0.024 A 
ATOM     16  C   UNL d   1      32.854  22.998 -17.005  0.00  0.00     0.094 A 
ATOM     17  C   UNL d   1      33.183  22.353 -17.416  0.00  0.00     0.024 A 
ATOM     18  C   UNL d   1      33.216  22.360 -18.238  0.00  0.00     0.002 A 
BRANCH  16  19
ATOM     19  O   UNL d   1      32.822  22.990 -16.183  0.00  0.00    -0.328 OA
ATOM     20  C   UNL d   1      33.241  23.554 -15.746  0.00  0.00     0.181 C 
ENDBRANCH  16  19
ENDBRANCH   1  13
TORSDOF 2
ENDMDL
MODEL 7
REMARK VINA RESULT:      -1.7      1.572      4.614
REMARK  2 active torsions:
REMARK  status: ('A' for Active; 'I' for Inactive)
REMARK    1  A    between atoms: C_7  and  C_1 
REMARK    2  A    between atoms: O_19  and  C_15 
ROOT
ATOM      1  C   UNL d   1      32.955  22.364 -20.223  0.00  0.00     0.064 A 
ATOM      2  C   UNL d   1      32.705  23.036 -19.797  0.00  0.00     0.199 A 
ATOM      3  C   UNL d   1      32.722  23.039 -18.970  0.00  0.00     0.062 A 
ATOM      4  C   UNL d   1      33.224  21.688 -19.808  0.00  0.00     0.126 A 
ATOM      5  C   UNL d   1      32.991  22.361 -18.559  0.00  0.00     0.106 A 
ATOM      6  O   UNL d   1      33.241  21.691 -18.972  0.00  0.00    -0.305 OA
ATOM      7  C   UNL d   1      32.475  23.701 -18.554  0.00  0.00     0.009 A 
ATOM      8  C   UNL d   1      33.008  22.364 -17.733  0.00  0.00     0.067 A 
ATOM      9  O   UNL d   1      32.440  23.702 -20.206  0.00  0.00    -0.286 OA
ATOM     10  C   UNL d   1      32.758  23.036 -17.323  0.00  0.00     0.198 A 
ATOM     11  C   UNL d   1      32.492  23.702 -17.731  0.00  0.00     0.042 A 
ATOM     12  O   UNL d   1      32.774  23.037 -16.500  0.00  0.00    -0.286 OA
ENDROOT
BRANCH   1  13
ATOM     13  C   UNL d   1      32.937  22.366 -21.042  0.00  0.00     0.005 A 
ATOM     14  C   UNL d   1      32.628  21.715 -21.445  0.00  0.00     0.002 A 
ATOM     15  C   UNL d   1      32.612  21.720 -22.268  0.00  0.00     0.024 A 
ATOM     16  C   UNL d   1      32.900  22.368 -22.692  0.00  0.00     0.094 A 
ATOM     17  C   UNL d   1      33.211  23.020 -22.277  0.00  0.00     0.024 A 
ATOM     18  C   UNL d   1      33.228  23.016 -21.454  0.00  0.00     0.002 A 
BRANCH  16  19
ATOM     19  O   UNL d   1      32.883  22.372 -23.514  0.00  0.00    -0.328 OA
ATOM     20  C   UNL d   1      33.208  23.008 -23.931  0.00  0.00     0.181 C 
ENDBRANCH  16  19
ENDBRANCH   1  13
TORSDOF 2
ENDMDL
