MODEL 1
REMARK VINA RESULT:      -6.5      0.000      0.000
REMARK  3 active torsions:
REMARK  status: ('A' for Active; 'I' for Inactive)
REMARK    1  A    between atoms: C_2  and  N_1 
REMARK    2  A    between atoms: C_4  and  N_1 
REMARK    3  A    between atoms: C_3  and  C_2 
ROOT
ATOM      1  N   UNL d   1     -48.411  14.578  22.630  0.00  0.00    -0.182 N 
ATOM      2  O   UNL d   1     -48.470  15.272  22.185  0.00  0.00    -0.080 OA
ENDROOT
BRANCH   1   3
ATOM      3  C   UNL d   1     -49.047  14.332  23.095  0.00  0.00     0.133 C 
BRANCH   3   4
ATOM      4  C   UNL d   1     -49.635  14.867  23.304  0.00  0.00     0.120 A 
ATOM      5  O   UNL d   1     -49.601  15.651  23.575  0.00  0.00    -0.304 OA
ATOM      6  C   UNL d   1     -50.378  15.914  23.698  0.00  0.00     0.123 A 
ATOM      7  C   UNL d   1     -50.895  15.293  23.503  0.00  0.00     0.029 A 
ATOM      8  C   UNL d   1     -50.434  14.652  23.262  0.00  0.00     0.028 A 
ENDBRANCH   3   4
ENDBRANCH   1   3
BRANCH   1   9
ATOM      9  C   UNL d   1     -47.705  14.123  22.609  0.00  0.00     0.090 A 
ATOM     10  C   UNL d   1     -47.727  13.372  22.286  0.00  0.00     0.021 A 
ATOM     11  C   UNL d   1     -47.026  12.921  22.265  0.00  0.00     0.013 A 
ATOM     12  C   UNL d   1     -46.327  13.238  22.567  0.00  0.00     0.058 A 
ATOM     13  C   UNL d   1     -46.317  13.995  22.889  0.00  0.00     0.013 A 
ATOM     14 CL   UNL d   1     -45.639  12.795  22.547  0.00  0.00    -0.082 Cl
ATOM     15  C   UNL d   1     -47.017  14.445  22.910  0.00  0.00     0.021 A 
ENDBRANCH   1   9
TORSDOF 3
ENDMDL
MODEL 2
REMARK VINA RESULT:      -6.3      2.394      3.804
REMARK  3 active torsions:
REMARK  status: ('A' for Active; 'I' for Inactive)
REMARK    1  A    between atoms: C_2  and  N_1 
REMARK    2  A    between atoms: C_4  and  N_1 
REMARK    3  A    between atoms: C_3  and  C_2 
ROOT
ATOM      1  N   UNL d   1     -48.171  12.834  22.511  0.00  0.00    -0.182 N 
ATOM      2  O   UNL d   1     -47.999  12.749  21.707  0.00  0.00    -0.080 OA
ENDROOT
BRANCH   1   3
ATOM      3  C   UNL d   1     -47.618  13.181  23.016  0.00  0.00     0.133 C 
BRANCH   3   4
ATOM      4  C   UNL d   1     -46.855  13.333  22.749  0.00  0.00     0.120 A 
ATOM      5  O   UNL d   1     -46.318  12.874  22.312  0.00  0.00    -0.304 OA
ATOM      6  C   UNL d   1     -45.627  13.321  22.207  0.00  0.00     0.123 A 
ATOM      7  C   UNL d   1     -45.735  14.056  22.577  0.00  0.00     0.029 A 
ATOM      8  C   UNL d   1     -46.491  14.060  22.909  0.00  0.00     0.028 A 
ENDBRANCH   3   4
ENDBRANCH   1   3
BRANCH   1   9
ATOM      9  C   UNL d   1     -48.908  12.567  22.813  0.00  0.00     0.090 A 
ATOM     10  C   UNL d   1     -49.579  13.014  22.672  0.00  0.00     0.021 A 
ATOM     11  C   UNL d   1     -50.310  12.750  22.971  0.00  0.00     0.013 A 
ATOM     12  C   UNL d   1     -50.346  12.048  23.402  0.00  0.00     0.058 A 
ATOM     13  C   UNL d   1     -49.665  11.607  23.539  0.00  0.00     0.013 A 
ATOM     14 CL   UNL d   1     -51.064  11.788  23.697  0.00  0.00    -0.082 Cl
ATOM     15  C   UNL d   1     -48.934  11.871  23.239  0.00  0.00     0.021 A 
ENDBRANCH   1   9
TORSDOF 3
ENDMDL
MODEL 3
REMARK VINA RESULT:      -6.2      2.166      2.451
REMARK  3 active torsions:
REMARK  status: ('A' for Active; 'I' for Inactive)
REMARK    1  A    between atoms: C_2  and  N_1 
REMARK    2  A    between atoms: C_4  and  N_1 
REMARK    3  A    between atoms: C_3  and  C_2 
ROOT
ATOM      1  N   UNL d   1     -48.374  12.233  23.081  0.00  0.00    -0.182 N 
ATOM      2  O   UNL d   1     -48.478  11.419  22.981  0.00  0.00    -0.080 OA
ENDROOT
BRANCH   1   3
ATOM      3  C   UNL d   1     -48.996  12.695  23.366  0.00  0.00     0.133 C 
BRANCH   3   4
ATOM      4  C   UNL d   1     -49.735  12.358  23.495  0.00  0.00     0.120 A 
ATOM      5  O   UNL d   1     -49.978  11.568  23.574  0.00  0.00    -0.304 OA
ATOM      6  C   UNL d   1     -50.798  11.564  23.698  0.00  0.00     0.123 A 
ATOM      7  C   UNL d   1     -51.064  12.350  23.696  0.00  0.00     0.029 A 
ATOM      8  C   UNL d   1     -50.408  12.835  23.571  0.00  0.00     0.028 A 
ENDBRANCH   3   4
ENDBRANCH   1   3
BRANCH   1   9
ATOM      9  C   UNL d   1     -47.637  12.589  22.892  0.00  0.00     0.090 A 
ATOM     10  C   UNL d   1     -47.029  12.554  23.438  0.00  0.00     0.021 A 
ATOM     11  C   UNL d   1     -46.298  12.907  23.251  0.00  0.00     0.013 A 
ATOM     12  C   UNL d   1     -46.200  13.283  22.524  0.00  0.00     0.058 A 
ATOM     13  C   UNL d   1     -46.819  13.312  21.982  0.00  0.00     0.013 A 
ATOM     14 CL   UNL d   1     -45.481  13.630  22.339  0.00  0.00    -0.082 Cl
ATOM     15  C   UNL d   1     -47.550  12.959  22.169  0.00  0.00     0.021 A 
ENDBRANCH   1   9
TORSDOF 3
ENDMDL
MODEL 4
REMARK VINA RESULT:      -6.0      2.913      4.172
REMARK  3 active torsions:
REMARK  status: ('A' for Active; 'I' for Inactive)
REMARK    1  A    between atoms: C_2  and  N_1 
REMARK    2  A    between atoms: C_4  and  N_1 
REMARK    3  A    between atoms: C_3  and  C_2 
ROOT
ATOM      1  N   UNL d   1     -49.019  11.873  23.002  0.00  0.00    -0.182 N 
ATOM      2  O   UNL d   1     -49.064  11.059  22.861  0.00  0.00    -0.080 OA
ENDROOT
BRANCH   1   3
ATOM      3  C   UNL d   1     -48.461  12.167  23.534  0.00  0.00     0.133 C 
BRANCH   3   4
ATOM      4  C   UNL d   1     -47.721  11.814  23.593  0.00  0.00     0.120 A 
ATOM      5  O   UNL d   1     -47.487  11.018  23.632  0.00  0.00    -0.304 OA
ATOM      6  C   UNL d   1     -46.660  10.996  23.687  0.00  0.00     0.123 A 
ATOM      7  C   UNL d   1     -46.380  11.778  23.682  0.00  0.00     0.029 A 
ATOM      8  C   UNL d   1     -47.034  12.277  23.624  0.00  0.00     0.028 A 
ENDBRANCH   3   4
ENDBRANCH   1   3
BRANCH   1   9
ATOM      9  C   UNL d   1     -49.540  12.398  22.605  0.00  0.00     0.090 A 
ATOM     10  C   UNL d   1     -49.382  12.600  21.828  0.00  0.00     0.021 A 
ATOM     11  C   UNL d   1     -49.899  13.121  21.434  0.00  0.00     0.013 A 
ATOM     12  C   UNL d   1     -50.556  13.423  21.830  0.00  0.00     0.058 A 
ATOM     13  C   UNL d   1     -50.705  13.213  22.611  0.00  0.00     0.013 A 
ATOM     14 CL   UNL d   1     -51.064  13.935  21.442  0.00  0.00    -0.082 Cl
ATOM     15  C   UNL d   1     -50.188  12.692  23.005  0.00  0.00     0.021 A 
ENDBRANCH   1   9
TORSDOF 3
ENDMDL
MODEL 5
REMARK VINA RESULT:      -5.4      8.313      9.740
REMARK  3 active torsions:
REMARK  status: ('A' for Active; 'I' for Inactive)
REMARK    1  A    between atoms: C_2  and  N_1 
REMARK    2  A    between atoms: C_4  and  N_1 
REMARK    3  A    between atoms: C_3  and  C_2 
ROOT
ATOM      1  N   UNL d   1     -40.232  14.270  18.286  0.00  0.00    -0.182 N 
ATOM      2  O   UNL d   1     -40.948  13.858  18.311  0.00  0.00    -0.080 OA
ENDROOT
BRANCH   1   3
ATOM      3  C   UNL d   1     -40.068  14.844  18.856  0.00  0.00     0.133 C 
BRANCH   3   4
ATOM      4  C   UNL d   1     -40.456  14.828  19.581  0.00  0.00     0.120 A 
ATOM      5  O   UNL d   1     -40.694  14.200  20.069  0.00  0.00    -0.304 OA
ATOM      6  C   UNL d   1     -41.065  14.522  20.738  0.00  0.00     0.123 A 
ATOM      7  C   UNL d   1     -41.057  15.349  20.665  0.00  0.00     0.029 A 
ATOM      8  C   UNL d   1     -40.683  15.534  19.953  0.00  0.00     0.028 A 
ENDBRANCH   3   4
ENDBRANCH   1   3
BRANCH   1   9
ATOM      9  C   UNL d   1     -39.672  14.104  17.683  0.00  0.00     0.090 A 
ATOM     10  C   UNL d   1     -39.603  14.623  17.053  0.00  0.00     0.021 A 
ATOM     11  C   UNL d   1     -39.048  14.458  16.455  0.00  0.00     0.013 A 
ATOM     12  C   UNL d   1     -38.580  13.781  16.505  0.00  0.00     0.058 A 
ATOM     13  C   UNL d   1     -38.658  13.267  17.143  0.00  0.00     0.013 A 
ATOM     14 CL   UNL d   1     -38.034  13.620  15.917  0.00  0.00    -0.082 Cl
ATOM     15  C   UNL d   1     -39.213  13.431  17.742  0.00  0.00     0.021 A 
ENDBRANCH   1   9
TORSDOF 3
ENDMDL
MODEL 6
REMARK VINA RESULT:      -5.3      8.320      9.997
REMARK  3 active torsions:
REMARK  status: ('A' for Active; 'I' for Inactive)
REMARK    1  A    between atoms: C_2  and  N_1 
REMARK    2  A    between atoms: C_4  and  N_1 
REMARK    3  A    between atoms: C_3  and  C_2 
ROOT
ATOM      1  N   UNL d   1     -40.152  14.210  18.504  0.00  0.00    -0.182 N 
ATOM      2  O   UNL d   1     -40.668  13.712  18.093  0.00  0.00    -0.080 OA
ENDROOT
BRANCH   1   3
ATOM      3  C   UNL d   1     -39.366  14.278  18.262  0.00  0.00     0.133 C 
BRANCH   3   4
ATOM      4  C   UNL d   1     -39.024  13.689  17.803  0.00  0.00     0.120 A 
ATOM      5  O   UNL d   1     -39.032  12.860  17.866  0.00  0.00    -0.304 OA
ATOM      6  C   UNL d   1     -38.586  12.551  17.239  0.00  0.00     0.123 A 
ATOM      7  C   UNL d   1     -38.301  13.187  16.786  0.00  0.00     0.029 A 
ATOM      8  C   UNL d   1     -38.572  13.884  17.136  0.00  0.00     0.028 A 
ENDBRANCH   3   4
ENDBRANCH   1   3
BRANCH   1   9
ATOM      9  C   UNL d   1     -40.428  14.646  19.167  0.00  0.00     0.090 A 
ATOM     10  C   UNL d   1     -40.563  15.449  19.085  0.00  0.00     0.021 A 
ATOM     11  C   UNL d   1     -40.837  15.881  19.742  0.00  0.00     0.013 A 
ATOM     12  C   UNL d   1     -40.965  15.496  20.460  0.00  0.00     0.058 A 
ATOM     13  C   UNL d   1     -40.826  14.689  20.531  0.00  0.00     0.013 A 
ATOM     14 CL   UNL d   1     -41.234  15.922  21.106  0.00  0.00    -0.082 Cl
ATOM     15  C   UNL d   1     -40.552  14.256  19.874  0.00  0.00     0.021 A 
ENDBRANCH   1   9
TORSDOF 3
ENDMDL
MODEL 7
REMARK VINA RESULT:      -5.1      8.398      9.207
REMARK  3 active torsions:
REMARK  status: ('A' for Active; 'I' for Inactive)
REMARK    1  A    between atoms: C_2  and  N_1 
REMARK    2  A    between atoms: C_4  and  N_1 
REMARK    3  A    between atoms: C_3  and  C_2 
ROOT
ATOM      1  N   UNL d   1     -40.487  14.534  18.807  0.00  0.00    -0.182 N 
ATOM      2  O   UNL d   1     -40.884  13.928  18.407  0.00  0.00    -0.080 OA
ENDROOT
BRANCH   1   3
ATOM      3  C   UNL d   1     -40.340  15.251  18.425  0.00  0.00     0.133 C 
BRANCH   3   4
ATOM      4  C   UNL d   1     -40.669  15.399  17.686  0.00  0.00     0.120 A 
ATOM      5  O   UNL d   1     -41.387  15.166  17.341  0.00  0.00    -0.304 OA
ATOM      6  C   UNL d   1     -41.419  15.485  16.576  0.00  0.00     0.123 A 
ATOM      7  C   UNL d   1     -40.721  15.916  16.446  0.00  0.00     0.029 A 
ATOM      8  C   UNL d   1     -40.263  15.861  17.130  0.00  0.00     0.028 A 
ENDBRANCH   3   4
ENDBRANCH   1   3
BRANCH   1   9
ATOM      9  C   UNL d   1     -40.235  14.419  19.600  0.00  0.00     0.090 A 
ATOM     10  C   UNL d   1     -39.449  14.244  19.744  0.00  0.00     0.021 A 
ATOM     11  C   UNL d   1     -39.199  14.130  20.530  0.00  0.00     0.013 A 
ATOM     12  C   UNL d   1     -39.743  14.196  21.146  0.00  0.00     0.058 A 
ATOM     13  C   UNL d   1     -40.531  14.373  20.989  0.00  0.00     0.013 A 
ATOM     14 CL   UNL d   1     -39.497  14.084  21.919  0.00  0.00    -0.082 Cl
ATOM     15  C   UNL d   1     -40.781  14.487  20.203  0.00  0.00     0.021 A 
ENDBRANCH   1   9
TORSDOF 3
ENDMDL
MODEL 8
REMARK VINA RESULT:      -4.7      9.113      9.594
REMARK  3 active torsions:
REMARK  status: ('A' for Active; 'I' for Inactive)
REMARK    1  A    between atoms: C_2  and  N_1 
REMARK    2  A    between atoms: C_4  and  N_1 
REMARK    3  A    between atoms: C_3  and  C_2 
ROOT
ATOM      1  N   UNL d   1     -39.661  14.878  19.318  0.00  0.00    -0.182 N 
ATOM      2  O   UNL d   1     -38.856  15.059  19.361  0.00  0.00    -0.080 OA
ENDROOT
BRANCH   1   3
ATOM      3  C   UNL d   1     -40.039  14.528  19.963  0.00  0.00     0.133 C 
BRANCH   3   4
ATOM      4  C   UNL d   1     -39.598  14.266  20.606  0.00  0.00     0.120 A 
ATOM      5  O   UNL d   1     -38.892  13.832  20.655  0.00  0.00    -0.304 OA
ATOM      6  C   UNL d   1     -38.709  13.731  21.458  0.00  0.00     0.123 A 
ATOM      7  C   UNL d   1     -39.301  14.101  21.907  0.00  0.00     0.029 A 
ATOM      8  C   UNL d   1     -39.846  14.429  21.380  0.00  0.00     0.028 A 
ENDBRANCH   3   4
ENDBRANCH   1   3
BRANCH   1   9
ATOM      9  C   UNL d   1     -40.094  15.049  18.619  0.00  0.00     0.090 A 
ATOM     10  C   UNL d   1     -40.089  14.506  18.007  0.00  0.00     0.021 A 
ATOM     11  C   UNL d   1     -40.518  14.676  17.314  0.00  0.00     0.013 A 
ATOM     12  C   UNL d   1     -40.939  15.384  17.256  0.00  0.00     0.058 A 
ATOM     13  C   UNL d   1     -40.937  15.922  17.878  0.00  0.00     0.013 A 
ATOM     14 CL   UNL d   1     -41.361  15.551  16.574  0.00  0.00    -0.082 Cl
ATOM     15  C   UNL d   1     -40.507  15.752  18.571  0.00  0.00     0.021 A 
ENDBRANCH   1   9
TORSDOF 3
ENDMDL
