MODEL 1
REMARK VINA RESULT:      21.4      0.000      0.000
REMARK  2 active torsions:
REMARK  status: ('A' for Active; 'I' for Inactive)
REMARK    1  A    between atoms: C_11  and  C_2 
REMARK    2  A    between atoms: C_9  and  C_6 
ROOT
ATOM      1  C   UNL d   1      59.250  49.700  50.251  0.00  0.00     0.045 A 
ATOM      2  C   UNL d   1      58.590  49.698  49.770  0.00  0.00     0.127 A 
ATOM      3  C   UNL d   1      59.332  49.697  51.072  0.00  0.00     0.010 A 
ATOM      4  O   UNL d   1      58.837  49.702  48.990  0.00  0.00    -0.211 OA
ATOM      5  N   UNL d   1      59.664  49.707  48.982  0.00  0.00    -0.126 NA
ATOM      6  C   UNL d   1      60.084  49.700  51.411  0.00  0.00     0.065 A 
ATOM      7  C   UNL d   1      59.921  49.705  49.769  0.00  0.00     0.110 A 
ATOM      8  C   UNL d   1      60.755  49.705  50.928  0.00  0.00     0.008 A 
ATOM      9  C   UNL d   1      60.674  49.708  50.107  0.00  0.00     0.022 A 
ENDROOT
BRANCH   2  10
ATOM     10  C   UNL d   1      57.798  49.693  50.021  0.00  0.00     0.025 A 
ATOM     11  C   UNL d   1      57.195  49.673  49.456  0.00  0.00     0.002 A 
ATOM     12  C   UNL d   1      56.404  49.667  49.697  0.00  0.00     0.000 A 
ATOM     13  C   UNL d   1      56.219  49.682  50.505  0.00  0.00     0.000 A 
ATOM     14  C   UNL d   1      56.827  49.702  51.067  0.00  0.00     0.000 A 
ATOM     15  C   UNL d   1      57.614  49.708  50.825  0.00  0.00     0.002 A 
ENDBRANCH   2  10
BRANCH   6  16
ATOM     16  C   UNL d   1      60.166  49.697  52.232  0.00  0.00     0.211 C 
ATOM     17  O   UNL d   1      59.497  49.703  52.718  0.00  0.00    -0.644 OA
ATOM     18  O   UNL d   1      60.925  49.688  52.565  0.00  0.00    -0.644 OA
ENDBRANCH   6  16
TORSDOF 2
ENDMDL
MODEL 2
REMARK VINA RESULT:      22.9      1.277      2.033
REMARK  2 active torsions:
REMARK  status: ('A' for Active; 'I' for Inactive)
REMARK    1  A    between atoms: C_11  and  C_2 
REMARK    2  A    between atoms: C_9  and  C_6 
ROOT
ATOM      1  C   UNL d   1      58.681  49.698  51.028  0.00  0.00     0.045 A 
ATOM      2  C   UNL d   1      57.864  49.702  51.040  0.00  0.00     0.127 A 
ATOM      3  C   UNL d   1      59.222  49.692  50.405  0.00  0.00     0.010 A 
ATOM      4  O   UNL d   1      57.616  49.707  51.819  0.00  0.00    -0.211 OA
ATOM      5  N   UNL d   1      58.286  49.707  52.303  0.00  0.00    -0.126 NA
ATOM      6  C   UNL d   1      60.031  49.689  50.562  0.00  0.00     0.065 A 
ATOM      7  C   UNL d   1      58.951  49.701  51.810  0.00  0.00     0.110 A 
ATOM      8  C   UNL d   1      60.301  49.692  51.344  0.00  0.00     0.008 A 
ATOM      9  C   UNL d   1      59.760  49.698  51.967  0.00  0.00     0.022 A 
ENDROOT
BRANCH   2  10
ATOM     10  C   UNL d   1      57.362  49.701  50.378  0.00  0.00     0.025 A 
ATOM     11  C   UNL d   1      56.544  49.702  50.492  0.00  0.00     0.002 A 
ATOM     12  C   UNL d   1      56.036  49.701  49.838  0.00  0.00     0.000 A 
ATOM     13  C   UNL d   1      56.352  49.698  49.072  0.00  0.00     0.000 A 
ATOM     14  C   UNL d   1      57.173  49.697  48.963  0.00  0.00     0.000 A 
ATOM     15  C   UNL d   1      57.676  49.698  49.616  0.00  0.00     0.002 A 
ENDBRANCH   2  10
BRANCH   6  16
ATOM     16  C   UNL d   1      60.572  49.683  49.939  0.00  0.00     0.211 C 
ATOM     17  O   UNL d   1      61.384  49.702  50.091  0.00  0.00    -0.644 OA
ATOM     18  O   UNL d   1      60.292  49.659  49.159  0.00  0.00    -0.644 OA
ENDBRANCH   6  16
TORSDOF 2
ENDMDL
