MODEL 1
REMARK VINA RESULT:      13.3      0.000      0.000
REMARK  4 active torsions:
REMARK  status: ('A' for Active; 'I' for Inactive)
REMARK    1  A    between atoms: N_6  and  C_2 
REMARK    2  A    between atoms: C_7  and  C_3 
REMARK    3  A    between atoms: C_10  and  N_6 
REMARK    4  A    between atoms: O_14  and  C_11 
ROOT
ATOM      1  N   UNL d   1      46.387 -16.391  44.528  0.00  0.00    -0.221 NA
ATOM      2  C   UNL d   1      46.129 -17.148  44.717  0.00  0.00     0.194 A 
ATOM      3  C   UNL d   1      45.761 -15.883  44.655  0.00  0.00     0.090 A 
ATOM      4  S   UNL d   1      45.351 -17.084  44.954  0.00  0.00    -0.046 SA
ATOM      5  C   UNL d   1      45.116 -16.310  44.919  0.00  0.00     0.058 A 
ENDROOT
BRANCH   3   6
ATOM      6  C   UNL d   1      45.705 -15.066  44.557  0.00  0.00     0.018 A 
ATOM      7  C   UNL d   1      46.330 -14.598  44.641  0.00  0.00     0.004 A 
ATOM      8  C   UNL d   1      46.257 -13.773  44.539  0.00  0.00     0.024 A 
ATOM      9  C   UNL d   1      45.557 -13.471  44.359  0.00  0.00     0.094 A 
ATOM     10  C   UNL d   1      44.896 -13.934  44.268  0.00  0.00     0.024 A 
ATOM     11  C   UNL d   1      44.952 -14.751  44.365  0.00  0.00     0.004 A 
BRANCH   9  12
ATOM     12  O   UNL d   1      45.494 -12.626  44.258  0.00  0.00    -0.328 OA
ATOM     13  C   UNL d   1      45.275 -12.339  43.512  0.00  0.00     0.181 C 
ENDBRANCH   9  12
ENDBRANCH   3   6
BRANCH   2  14
ATOM     14  N   UNL d   1      46.590 -17.834  44.667  0.00  0.00    -0.221 NA
BRANCH  14  15
ATOM     15  C   UNL d   1      46.460 -18.368  44.064  0.00  0.00     0.084 A 
ATOM     16  C   UNL d   1      46.584 -18.155  43.267  0.00  0.00     0.019 A 
ATOM     17  C   UNL d   1      46.454 -18.695  42.638  0.00  0.00     0.002 A 
ATOM     18  C   UNL d   1      46.195 -19.461  42.814  0.00  0.00     0.000 A 
ATOM     19  C   UNL d   1      46.066 -19.683  43.635  0.00  0.00     0.002 A 
ATOM     20  C   UNL d   1      46.196 -19.148  44.244  0.00  0.00     0.019 A 
ENDBRANCH  14  15
ENDBRANCH   2  14
TORSDOF 4
ENDMDL
MODEL 2
REMARK VINA RESULT:      13.3      1.866      4.713
REMARK  4 active torsions:
REMARK  status: ('A' for Active; 'I' for Inactive)
REMARK    1  A    between atoms: N_6  and  C_2 
REMARK    2  A    between atoms: C_7  and  C_3 
REMARK    3  A    between atoms: C_10  and  N_6 
REMARK    4  A    between atoms: O_14  and  C_11 
ROOT
ATOM      1  N   UNL d   1      45.275 -16.262  43.941  0.00  0.00    -0.221 NA
ATOM      2  C   UNL d   1      45.328 -15.603  44.430  0.00  0.00     0.194 A 
ATOM      3  C   UNL d   1      45.853 -16.786  44.179  0.00  0.00     0.090 A 
ATOM      4  S   UNL d   1      45.937 -15.742  44.955  0.00  0.00    -0.046 SA
ATOM      5  C   UNL d   1      46.266 -16.467  44.808  0.00  0.00     0.058 A 
ENDROOT
BRANCH   3   6
ATOM      6  C   UNL d   1      46.053 -17.532  43.889  0.00  0.00     0.018 A 
ATOM      7  C   UNL d   1      46.300 -18.107  44.365  0.00  0.00     0.004 A 
ATOM      8  C   UNL d   1      46.498 -18.855  44.056  0.00  0.00     0.024 A 
ATOM      9  C   UNL d   1      46.435 -18.979  43.285  0.00  0.00     0.094 A 
ATOM     10  C   UNL d   1      46.183 -18.402  42.772  0.00  0.00     0.024 A 
ATOM     11  C   UNL d   1      45.983 -17.656  43.062  0.00  0.00     0.004 A 
BRANCH   9  12
ATOM     12  O   UNL d   1      46.641 -19.749  42.981  0.00  0.00    -0.328 OA
ATOM     13  C   UNL d   1      46.541 -19.887  42.169  0.00  0.00     0.181 C 
ENDBRANCH   9  12
ENDBRANCH   3   6
BRANCH   2  14
ATOM     14  N   UNL d   1      44.843 -14.934  44.381  0.00  0.00    -0.221 NA
BRANCH  14  15
ATOM     15  C   UNL d   1      45.179 -14.193  44.315  0.00  0.00     0.084 A 
ATOM     16  C   UNL d   1      45.082 -13.737  43.622  0.00  0.00     0.019 A 
ATOM     17  C   UNL d   1      45.423 -12.975  43.542  0.00  0.00     0.002 A 
ATOM     18  C   UNL d   1      45.867 -12.666  44.169  0.00  0.00     0.000 A 
ATOM     19  C   UNL d   1      45.967 -13.134  44.884  0.00  0.00     0.002 A 
ATOM     20  C   UNL d   1      45.631 -13.879  44.953  0.00  0.00     0.019 A 
ENDBRANCH  14  15
ENDBRANCH   2  14
TORSDOF 4
ENDMDL
