MODEL 1
REMARK VINA RESULT:      34.9      0.000      0.000
REMARK  6 active torsions:
REMARK  status: ('A' for Active; 'I' for Inactive)
REMARK    1  A    between atoms: C_5  and  N_1 
REMARK    2  A    between atoms: C_8  and  C_3 
REMARK    3  A    between atoms: C_7  and  C_4 
REMARK    4  A    between atoms: N_12  and  C_5 
REMARK    5  A    between atoms: N_11  and  C_10 
REMARK    6  A    between atoms: O_22  and  C_19 
ROOT
ATOM      1  N   UNL d   1      46.054 -17.765  43.868  0.00  0.00    -0.203 N 
ATOM      2  N   UNL d   1      46.012 -17.092  44.329  0.00  0.00    -0.163 NA
ATOM      3  C   UNL d   1      46.055 -16.446  43.812  0.00  0.00     0.103 A 
ATOM      4  C   UNL d   1      46.123 -17.533  43.074  0.00  0.00     0.087 A 
ATOM      5  C   UNL d   1      46.124 -16.723  43.030  0.00  0.00     0.040 A 
ENDROOT
BRANCH   4   6
ATOM      6  C   UNL d   1      46.182 -18.018  42.410  0.00  0.00     0.018 A 
ATOM      7  C   UNL d   1      46.582 -18.737  42.453  0.00  0.00     0.003 A 
ATOM      8  C   UNL d   1      46.641 -19.223  41.787  0.00  0.00     0.018 A 
ATOM      9  C   UNL d   1      46.300 -18.989  41.079  0.00  0.00     0.064 A 
ATOM     10  C   UNL d   1      45.896 -18.271  41.023  0.00  0.00     0.018 A 
ATOM     11  C   UNL d   1      45.841 -17.789  41.694  0.00  0.00     0.003 A 
BRANCH   9  12
ATOM     12  N   UNL d   1      46.368 -19.482  40.431  0.00  0.00    -0.301 N 
ATOM     13  C   UNL d   1      46.480 -19.161  39.672  0.00  0.00     0.100 C 
ATOM     14  C   UNL d   1      46.325 -20.298  40.527  0.00  0.00     0.100 C 
ENDBRANCH   9  12
ENDBRANCH   4   6
BRANCH   1  15
ATOM     15  C   UNL d   1      46.030 -18.549  44.179  0.00  0.00     0.222 C 
ATOM     16  S   UNL d   1      46.623 -18.813  44.702  0.00  0.00    -0.037 SA
BRANCH  15  17
ATOM     17  N   UNL d   1      45.396 -19.073  43.956  0.00  0.00    -0.214 NA
ATOM     18  C   UNL d   1      45.465 -19.901  44.122  0.00  0.00     0.122 C 
ENDBRANCH  15  17
ENDBRANCH   1  15
BRANCH   3  19
ATOM     19  C   UNL d   1      46.029 -15.684  44.082  0.00  0.00     0.019 A 
ATOM     20  C   UNL d   1      46.607 -15.141  43.875  0.00  0.00     0.004 A 
ATOM     21  C   UNL d   1      46.566 -14.368  44.159  0.00  0.00     0.024 A 
ATOM     22  C   UNL d   1      45.947 -14.127  44.654  0.00  0.00     0.094 A 
ATOM     23  C   UNL d   1      45.370 -14.670  44.862  0.00  0.00     0.024 A 
ATOM     24  C   UNL d   1      45.415 -15.439  44.576  0.00  0.00     0.004 A 
BRANCH  22  25
ATOM     25  O   UNL d   1      45.911 -13.342  44.939  0.00  0.00    -0.328 OA
ATOM     26  C   UNL d   1      45.349 -12.815  44.625  0.00  0.00     0.181 C 
ENDBRANCH  22  25
ENDBRANCH   3  19
TORSDOF 6
ENDMDL
