MODEL 1
REMARK VINA RESULT:      -4.9      0.000      0.000
REMARK  3 active torsions:
REMARK  status: ('A' for Active; 'I' for Inactive)
REMARK    1  A    between atoms: C_2  and  C_1 
REMARK    2  A    between atoms: N_3  and  C_1 
REMARK    3  A    between atoms: C_13  and  N_3 
ROOT
ATOM      1  C   UNL d   1     -41.794-122.487 -51.518  0.00  0.00     0.030 A 
ATOM      2  C   UNL d   1     -41.490-123.225 -50.326  0.00  0.00     0.119 A 
ATOM      3  C   UNL d   1     -41.333-123.051 -51.116  0.00  0.00     0.029 A 
ATOM      4  C   UNL d   1     -42.108-122.834 -49.940  0.00  0.00     0.119 A 
ATOM      5  O   UNL d   1     -41.123-123.766 -49.773  0.00  0.00    -0.300 OA
ATOM      6  O   UNL d   1     -42.121-123.139 -49.139  0.00  0.00    -0.300 OA
ATOM      7  C   UNL d   1     -41.534-123.680 -49.077  0.00  0.00     0.304 A 
ATOM      8  C   UNL d   1     -42.407-122.101 -51.127  0.00  0.00     0.004 A 
ATOM      9  C   UNL d   1     -42.564-122.275 -50.339  0.00  0.00     0.026 A 
ENDROOT
BRANCH   1  10
ATOM     10  C   UNL d   1     -41.637-122.313 -52.307  0.00  0.00     0.136 C 
ATOM     11  S   UNL d   1     -41.123-121.696 -52.501  0.00  0.00    -0.057 SA
BRANCH  10  12
ATOM     12  N   UNL d   1     -41.999-122.763 -52.910  0.00  0.00    -0.235 NA
BRANCH  12  13
ATOM     13  C   UNL d   1     -41.901-122.545 -53.701  0.00  0.00     0.082 A 
ATOM     14  C   UNL d   1     -41.269-122.840 -54.131  0.00  0.00     0.019 A 
ATOM     15  C   UNL d   1     -41.171-122.622 -54.923  0.00  0.00     0.002 A 
ATOM     16  C   UNL d   1     -41.711-122.109 -55.278  0.00  0.00     0.000 A 
ATOM     17  C   UNL d   1     -42.349-121.814 -54.841  0.00  0.00     0.002 A 
ATOM     18  C   UNL d   1     -42.443-122.032 -54.053  0.00  0.00     0.019 A 
ENDBRANCH  12  13
ENDBRANCH  10  12
ENDBRANCH   1  10
TORSDOF 3
ENDMDL
