MODEL 1
REMARK VINA RESULT:      -9.0      0.000      0.000
REMARK  1 active torsions:
REMARK  status: ('A' for Active; 'I' for Inactive)
REMARK    1  A    between atoms: C_7  and  C_1 
ROOT
ATOM      1  C   UNL d   1      52.257  33.423  53.342  0.00  0.00     0.102 A 
ATOM      2  C   UNL d   1      52.665  32.777  53.025  0.00  0.00     0.303 A 
ATOM      3  C   UNL d   1      52.607  33.865  53.949  0.00  0.00     0.011 A 
ATOM      4  O   UNL d   1      53.422  32.572  53.314  0.00  0.00    -0.273 OA
ATOM      5  C   UNL d   1      53.346  33.670  54.237  0.00  0.00     0.023 A 
ATOM      6  C   UNL d   1      53.754  33.024  53.919  0.00  0.00     0.103 A 
ATOM      7  O   UNL d   1      52.315  32.320  52.405  0.00  0.00    -0.259 OA
ATOM      8  C   UNL d   1      53.686  34.110  54.836  0.00  0.00     0.002 A 
ATOM      9  C   UNL d   1      54.501  32.818  54.201  0.00  0.00     0.025 A 
ATOM     10  C   UNL d   1      54.422  33.915  55.120  0.00  0.00     0.000 A 
ATOM     11  C   UNL d   1      54.829  33.269  54.803  0.00  0.00     0.002 A 
ENDROOT
BRANCH   1  12
ATOM     12  C   UNL d   1      51.499  33.613  53.040  0.00  0.00     0.201 C 
ATOM     13  O   UNL d   1      50.835  33.239  53.360  0.00  0.00    -0.286 OA
ATOM     14  C   UNL d   1      51.408  34.159  52.437  0.00  0.00     0.045 C 
ENDBRANCH   1  12
TORSDOF 1
ENDMDL
MODEL 2
REMARK VINA RESULT:      -8.9      0.997      1.913
REMARK  1 active torsions:
REMARK  status: ('A' for Active; 'I' for Inactive)
REMARK    1  A    between atoms: C_7  and  C_1 
ROOT
ATOM      1  C   UNL d   1      53.113  31.974  53.417  0.00  0.00     0.102 A 
ATOM      2  C   UNL d   1      52.521  32.549  53.467  0.00  0.00     0.303 A 
ATOM      3  C   UNL d   1      53.837  32.103  53.797  0.00  0.00     0.011 A 
ATOM      4  O   UNL d   1      52.652  33.254  53.898  0.00  0.00    -0.273 OA
ATOM      5  C   UNL d   1      53.973  32.789  54.219  0.00  0.00     0.023 A 
ATOM      6  C   UNL d   1      53.381  33.364  54.270  0.00  0.00     0.103 A 
ATOM      7  O   UNL d   1      51.778  32.425  53.082  0.00  0.00    -0.259 OA
ATOM      8  C   UNL d   1      54.690  32.911  54.592  0.00  0.00     0.002 A 
ATOM      9  C   UNL d   1      53.505  34.062  54.693  0.00  0.00     0.025 A 
ATOM     10  C   UNL d   1      54.822  33.594  55.012  0.00  0.00     0.000 A 
ATOM     11  C   UNL d   1      54.230  34.169  55.062  0.00  0.00     0.002 A 
ENDROOT
BRANCH   1  12
ATOM     12  C   UNL d   1      52.963  31.274  52.981  0.00  0.00     0.201 C 
ATOM     13  O   UNL d   1      52.865  31.326  52.162  0.00  0.00    -0.286 OA
ATOM     14  C   UNL d   1      52.913  30.546  53.351  0.00  0.00     0.045 C 
ENDBRANCH   1  12
TORSDOF 1
ENDMDL
MODEL 3
REMARK VINA RESULT:      -8.8      1.425      2.845
REMARK  1 active torsions:
REMARK  status: ('A' for Active; 'I' for Inactive)
REMARK    1  A    between atoms: C_7  and  C_1 
ROOT
ATOM      1  C   UNL d   1      53.923  33.185  54.381  0.00  0.00     0.102 A 
ATOM      2  C   UNL d   1      53.435  33.507  53.796  0.00  0.00     0.303 A 
ATOM      3  C   UNL d   1      54.008  32.362  54.432  0.00  0.00     0.011 A 
ATOM      4  O   UNL d   1      53.031  33.007  53.261  0.00  0.00    -0.273 OA
ATOM      5  C   UNL d   1      53.616  31.868  53.912  0.00  0.00     0.023 A 
ATOM      6  C   UNL d   1      53.128  32.190  53.327  0.00  0.00     0.103 A 
ATOM      7  O   UNL d   1      53.343  34.345  53.738  0.00  0.00    -0.259 OA
ATOM      8  C   UNL d   1      53.704  31.057  53.967  0.00  0.00     0.002 A 
ATOM      9  C   UNL d   1      52.727  31.702  52.796  0.00  0.00     0.025 A 
ATOM     10  C   UNL d   1      53.313  30.568  53.449  0.00  0.00     0.000 A 
ATOM     11  C   UNL d   1      52.825  30.890  52.864  0.00  0.00     0.002 A 
ENDROOT
BRANCH   1  12
ATOM     12  C   UNL d   1      54.320  33.701  54.908  0.00  0.00     0.201 C 
ATOM     13  O   UNL d   1      53.873  34.155  55.436  0.00  0.00    -0.286 OA
ATOM     14  C   UNL d   1      55.135  33.762  54.909  0.00  0.00     0.045 C 
ENDBRANCH   1  12
TORSDOF 1
ENDMDL
MODEL 4
REMARK VINA RESULT:      -8.8      0.871      2.722
REMARK  1 active torsions:
REMARK  status: ('A' for Active; 'I' for Inactive)
REMARK    1  A    between atoms: C_7  and  C_1 
ROOT
ATOM      1  C   UNL d   1      53.742  33.201  54.382  0.00  0.00     0.102 A 
ATOM      2  C   UNL d   1      53.656  32.585  53.837  0.00  0.00     0.303 A 
ATOM      3  C   UNL d   1      53.256  33.869  54.319  0.00  0.00     0.011 A 
ATOM      4  O   UNL d   1      53.083  32.635  53.229  0.00  0.00    -0.273 OA
ATOM      5  C   UNL d   1      52.694  33.925  53.728  0.00  0.00     0.023 A 
ATOM      6  C   UNL d   1      52.608  33.309  53.183  0.00  0.00     0.103 A 
ATOM      7  O   UNL d   1      54.148  31.900  53.894  0.00  0.00    -0.259 OA
ATOM      8  C   UNL d   1      52.218  34.586  53.671  0.00  0.00     0.002 A 
ATOM      9  C   UNL d   1      52.046  33.353  52.582  0.00  0.00     0.025 A 
ATOM     10  C   UNL d   1      51.660  34.640  53.083  0.00  0.00     0.000 A 
ATOM     11  C   UNL d   1      51.574  34.023  52.538  0.00  0.00     0.002 A 
ENDROOT
BRANCH   1  12
ATOM     12  C   UNL d   1      54.320  33.133  54.984  0.00  0.00     0.201 C 
ATOM     13  O   UNL d   1      54.175  32.631  55.625  0.00  0.00    -0.286 OA
ATOM     14  C   UNL d   1      55.022  33.552  54.948  0.00  0.00     0.045 C 
ENDBRANCH   1  12
TORSDOF 1
ENDMDL
