MODEL 1
REMARK VINA RESULT:      37.8      0.000      0.000
REMARK  2 active torsions:
REMARK  status: ('A' for Active; 'I' for Inactive)
REMARK    1  A    between atoms: N_2  and  S_1 
REMARK    2  A    between atoms: C_3  and  S_1 
ROOT
ATOM      1  S   UNL d   1     -57.093 -99.112 -44.682  0.00  0.00     0.273 S 
ATOM      2  O   UNL d   1     -57.393 -99.400 -43.953  0.00  0.00    -0.200 OA
ATOM      3  O   UNL d   1     -56.786 -98.829 -45.398  0.00  0.00    -0.200 OA
ENDROOT
BRANCH   1   4
ATOM      4  N   UNL d   1     -56.312 -99.235 -44.410  0.00  0.00    -0.231 N 
ATOM      5  C   UNL d   1     -55.960 -99.981 -44.502  0.00  0.00     0.075 A 
ATOM      6  C   UNL d   1     -55.202 -99.933 -44.187  0.00  0.00     0.018 A 
ATOM      7  C   UNL d   1     -56.231-100.671 -44.823  0.00  0.00     0.018 A 
ATOM      8  C   UNL d   1     -54.721-100.580 -44.197  0.00  0.00     0.002 A 
ATOM      9  C   UNL d   1     -55.084 -99.197 -43.912  0.00  0.00     0.021 A 
ATOM     10  C   UNL d   1     -54.988-101.294 -44.523  0.00  0.00     0.000 A 
ATOM     11  C   UNL d   1     -55.751-101.320 -44.834  0.00  0.00     0.002 A 
ATOM     12  C   UNL d   1     -55.772 -98.756 -44.048  0.00  0.00     0.092 A 
ENDBRANCH   1   4
BRANCH   1  13
ATOM     13  C   UNL d   1     -57.866 -98.994 -44.942  0.00  0.00     0.121 A 
ATOM     14  C   UNL d   1     -58.494 -98.935 -44.411  0.00  0.00     0.093 A 
ATOM     15  N   UNL d   1     -58.351 -98.995 -43.598  0.00  0.00    -0.243 NA
ATOM     16  C   UNL d   1     -59.264 -98.816 -44.696  0.00  0.00     0.018 A 
ATOM     17  C   UNL d   1     -58.976 -98.937 -43.069  0.00  0.00     0.099 A 
ATOM     18  C   UNL d   1     -59.750 -98.818 -43.347  0.00  0.00     0.021 A 
ATOM     19  C   UNL d   1     -59.889 -98.757 -44.167  0.00  0.00     0.003 A 
ATOM     20  C   UNL d   1     -59.406 -98.756 -45.509  0.00  0.00     0.002 A 
ATOM     21  C   UNL d   1     -58.778 -98.814 -46.040  0.00  0.00     0.001 A 
ATOM     22  C   UNL d   1     -58.013 -98.933 -45.755  0.00  0.00     0.014 A 
ENDBRANCH   1  13
TORSDOF 2
ENDMDL
MODEL 2
REMARK VINA RESULT:      38.6      0.626      1.378
REMARK  2 active torsions:
REMARK  status: ('A' for Active; 'I' for Inactive)
REMARK    1  A    between atoms: N_2  and  S_1 
REMARK    2  A    between atoms: C_3  and  S_1 
ROOT
ATOM      1  S   UNL d   1     -57.098 -99.140 -44.317  0.00  0.00     0.273 S 
ATOM      2  O   UNL d   1     -57.023 -99.519 -43.571  0.00  0.00    -0.200 OA
ATOM      3  O   UNL d   1     -57.163 -98.768 -45.054  0.00  0.00    -0.200 OA
ENDROOT
BRANCH   1   4
ATOM      4  N   UNL d   1     -56.284 -99.260 -44.462  0.00  0.00    -0.231 N 
ATOM      5  C   UNL d   1     -55.978-100.032 -44.465  0.00  0.00     0.075 A 
ATOM      6  C   UNL d   1     -55.174 -99.974 -44.621  0.00  0.00     0.018 A 
ATOM      7  C   UNL d   1     -56.326-100.751 -44.348  0.00  0.00     0.018 A 
ATOM      8  C   UNL d   1     -54.723-100.642 -44.659  0.00  0.00     0.002 A 
ATOM      9  C   UNL d   1     -54.983 -99.209 -44.712  0.00  0.00     0.021 A 
ATOM     10  C   UNL d   1     -55.068-101.386 -44.541  0.00  0.00     0.000 A 
ATOM     11  C   UNL d   1     -55.877-101.421 -44.385  0.00  0.00     0.002 A 
ATOM     12  C   UNL d   1     -55.671 -98.757 -44.614  0.00  0.00     0.092 A 
ENDBRANCH   1   4
BRANCH   1  13
ATOM     13  C   UNL d   1     -57.900 -99.026 -44.166  0.00  0.00     0.121 A 
ATOM     14  C   UNL d   1     -58.446 -98.949 -44.780  0.00  0.00     0.093 A 
ATOM     15  N   UNL d   1     -58.188 -98.987 -45.566  0.00  0.00    -0.243 NA
ATOM     16  C   UNL d   1     -59.249 -98.835 -44.605  0.00  0.00     0.018 A 
ATOM     17  C   UNL d   1     -58.731 -98.911 -46.177  0.00  0.00     0.099 A 
ATOM     18  C   UNL d   1     -59.537 -98.796 -46.009  0.00  0.00     0.021 A 
ATOM     19  C   UNL d   1     -59.792 -98.758 -45.216  0.00  0.00     0.003 A 
ATOM     20  C   UNL d   1     -59.506 -98.797 -43.820  0.00  0.00     0.002 A 
ATOM     21  C   UNL d   1     -58.961 -98.874 -43.205  0.00  0.00     0.001 A 
ATOM     22  C   UNL d   1     -58.163 -98.987 -43.382  0.00  0.00     0.014 A 
ENDBRANCH   1  13
TORSDOF 2
ENDMDL
