MODEL 1
REMARK VINA RESULT:      -3.2      0.000      0.000
REMARK  4 active torsions:
REMARK  status: ('A' for Active; 'I' for Inactive)
REMARK    1  A    between atoms: C_2  and  S_1 
REMARK    2  A    between atoms: N_3  and  S_1 
REMARK    3  A    between atoms: C_12  and  N_3 
REMARK    4  A    between atoms: N_4  and  C_8 
ROOT
ATOM      1  C   UNL d   1      30.499  16.572 -24.063  0.00  0.00     0.064 A 
ATOM      2  C   UNL d   1      32.000  17.251 -24.011  0.00  0.00     0.094 A 
ATOM      3  C   UNL d   1      30.646  17.272 -24.475  0.00  0.00     0.019 A 
ATOM      4  C   UNL d   1      31.101  16.212 -23.627  0.00  0.00     0.019 A 
ATOM      5  C   UNL d   1      31.405  17.611 -24.446  0.00  0.00     0.021 A 
ATOM      6  C   UNL d   1      31.846  16.551 -23.602  0.00  0.00     0.021 A 
ENDROOT
BRANCH   2   7
ATOM      7  N   UNL d   1      32.739  17.591 -23.989  0.00  0.00    -0.158 NA
BRANCH   7   8
ATOM      8  S   UNL d   1      32.879  18.246 -23.507  0.00  0.00     0.291 S 
ATOM      9  O   UNL d   1      32.790  18.742 -24.156  0.00  0.00    -0.198 OA
ATOM     10  O   UNL d   1      32.968  17.751 -22.861  0.00  0.00    -0.198 OA
BRANCH   8  11
ATOM     11  C   UNL d   1      33.018  18.893 -23.031  0.00  0.00     0.135 A 
ATOM     12  S   UNL d   1      33.082  19.663 -23.290  0.00  0.00    -0.073 SA
ATOM     13  C   UNL d   1      33.224  20.146 -22.620  0.00  0.00     0.036 A 
ATOM     14  C   UNL d   1      33.241  19.664 -21.985  0.00  0.00     0.008 A 
ATOM     15  C   UNL d   1      33.119  18.899 -22.199  0.00  0.00     0.020 A 
ENDBRANCH   8  11
ENDBRANCH   7   8
ENDBRANCH   2   7
BRANCH   1  16
ATOM     16  N   UNL d   1      29.749  16.232 -24.090  0.00  0.00    -0.304 N 
ATOM     17  C   UNL d   1      29.519  15.801 -24.754  0.00  0.00     0.080 A 
ATOM     18  C   UNL d   1      28.759  15.460 -24.776  0.00  0.00     0.019 A 
ATOM     19  C   UNL d   1      28.240  15.553 -24.135  0.00  0.00     0.003 A 
ATOM     20  C   UNL d   1      28.483  15.985 -23.479  0.00  0.00     0.019 A 
ATOM     21  C   UNL d   1      29.243  16.328 -23.455  0.00  0.00     0.080 A 
ENDBRANCH   1  16
TORSDOF 4
ENDMDL
MODEL 2
REMARK VINA RESULT:      -3.1      1.633      4.973
REMARK  4 active torsions:
REMARK  status: ('A' for Active; 'I' for Inactive)
REMARK    1  A    between atoms: C_2  and  S_1 
REMARK    2  A    between atoms: N_3  and  S_1 
REMARK    3  A    between atoms: C_12  and  N_3 
REMARK    4  A    between atoms: N_4  and  C_8 
ROOT
ATOM      1  C   UNL d   1      32.985  20.469 -22.159  0.00  0.00     0.064 A 
ATOM      2  C   UNL d   1      33.157  19.061 -22.997  0.00  0.00     0.094 A 
ATOM      3  C   UNL d   1      32.966  19.749 -21.756  0.00  0.00     0.019 A 
ATOM      4  C   UNL d   1      33.089  20.487 -22.978  0.00  0.00     0.019 A 
ATOM      5  C   UNL d   1      33.053  19.041 -22.183  0.00  0.00     0.021 A 
ATOM      6  C   UNL d   1      33.174  19.785 -23.392  0.00  0.00     0.021 A 
ENDROOT
BRANCH   2   7
ATOM      7  N   UNL d   1      33.241  18.363 -23.406  0.00  0.00    -0.158 NA
BRANCH   7   8
ATOM      8  S   UNL d   1      32.574  17.941 -23.647  0.00  0.00     0.291 S 
ATOM      9  O   UNL d   1      32.605  17.498 -22.955  0.00  0.00    -0.198 OA
ATOM     10  O   UNL d   1      32.543  18.382 -24.336  0.00  0.00    -0.198 OA
BRANCH   8  11
ATOM     11  C   UNL d   1      31.914  17.524 -23.884  0.00  0.00     0.135 A 
ATOM     12  S   UNL d   1      31.728  16.765 -23.653  0.00  0.00    -0.073 SA
ATOM     13  C   UNL d   1      31.008  16.555 -24.026  0.00  0.00     0.036 A 
ATOM     14  C   UNL d   1      30.782  17.180 -24.465  0.00  0.00     0.008 A 
ATOM     15  C   UNL d   1      31.308  17.784 -24.401  0.00  0.00     0.020 A 
ENDBRANCH   8  11
ENDBRANCH   7   8
ENDBRANCH   2   7
BRANCH   1  16
ATOM     16  N   UNL d   1      32.899  21.174 -21.739  0.00  0.00    -0.304 N 
ATOM     17  C   UNL d   1      33.240  21.866 -22.030  0.00  0.00     0.080 A 
ATOM     18  C   UNL d   1      33.151  22.576 -21.603  0.00  0.00     0.019 A 
ATOM     19  C   UNL d   1      32.723  22.584 -20.892  0.00  0.00     0.003 A 
ATOM     20  C   UNL d   1      32.389  21.887 -20.614  0.00  0.00     0.019 A 
ATOM     21  C   UNL d   1      32.477  21.175 -21.040  0.00  0.00     0.080 A 
ENDBRANCH   1  16
TORSDOF 4
ENDMDL
MODEL 3
REMARK VINA RESULT:      -2.5      2.069      4.445
REMARK  4 active torsions:
REMARK  status: ('A' for Active; 'I' for Inactive)
REMARK    1  A    between atoms: C_2  and  S_1 
REMARK    2  A    between atoms: N_3  and  S_1 
REMARK    3  A    between atoms: C_12  and  N_3 
REMARK    4  A    between atoms: N_4  and  C_8 
ROOT
ATOM      1  C   UNL d   1      32.033  17.698 -24.214  0.00  0.00     0.064 A 
ATOM      2  C   UNL d   1      31.230  16.259 -24.186  0.00  0.00     0.094 A 
ATOM      3  C   UNL d   1      31.539  17.493 -24.842  0.00  0.00     0.019 A 
ATOM      4  C   UNL d   1      32.125  17.186 -23.572  0.00  0.00     0.019 A 
ATOM      5  C   UNL d   1      31.136  16.766 -24.824  0.00  0.00     0.021 A 
ATOM      6  C   UNL d   1      31.725  16.472 -23.561  0.00  0.00     0.021 A 
ENDROOT
BRANCH   2   7
ATOM      7  N   UNL d   1      30.831  15.550 -24.177  0.00  0.00    -0.158 NA
BRANCH   7   8
ATOM      8  S   UNL d   1      30.035  15.525 -23.963  0.00  0.00     0.291 S 
ATOM      9  O   UNL d   1      29.820  15.570 -24.755  0.00  0.00    -0.198 OA
ATOM     10  O   UNL d   1      30.249  15.481 -23.173  0.00  0.00    -0.198 OA
BRANCH   8  11
ATOM     11  C   UNL d   1      29.247  15.501 -23.751  0.00  0.00     0.135 A 
ATOM     12  S   UNL d   1      28.620  15.470 -24.271  0.00  0.00    -0.073 SA
ATOM     13  C   UNL d   1      27.916  15.453 -23.818  0.00  0.00     0.036 A 
ATOM     14  C   UNL d   1      28.131  15.474 -23.051  0.00  0.00     0.008 A 
ATOM     15  C   UNL d   1      28.931  15.504 -22.975  0.00  0.00     0.020 A 
ENDBRANCH   8  11
ENDBRANCH   7   8
ENDBRANCH   2   7
BRANCH   1  16
ATOM     16  N   UNL d   1      32.434  18.418 -24.228  0.00  0.00    -0.304 N 
ATOM     17  C   UNL d   1      32.554  18.805 -24.946  0.00  0.00     0.080 A 
ATOM     18  C   UNL d   1      32.960  19.532 -24.956  0.00  0.00     0.019 A 
ATOM     19  C   UNL d   1      33.241  19.863 -24.248  0.00  0.00     0.003 A 
ATOM     20  C   UNL d   1      33.115  19.466 -23.539  0.00  0.00     0.019 A 
ATOM     21  C   UNL d   1      32.708  18.738 -23.528  0.00  0.00     0.080 A 
ENDBRANCH   1  16
TORSDOF 4
ENDMDL
MODEL 4
REMARK VINA RESULT:      -0.5      1.309      1.997
REMARK  4 active torsions:
REMARK  status: ('A' for Active; 'I' for Inactive)
REMARK    1  A    between atoms: C_2  and  S_1 
REMARK    2  A    between atoms: N_3  and  S_1 
REMARK    3  A    between atoms: C_12  and  N_3 
REMARK    4  A    between atoms: N_4  and  C_8 
ROOT
ATOM      1  C   UNL d   1      29.127  15.892 -23.823  0.00  0.00     0.064 A 
ATOM      2  C   UNL d   1      30.756  15.936 -24.068  0.00  0.00     0.094 A 
ATOM      3  C   UNL d   1      29.631  15.528 -23.281  0.00  0.00     0.019 A 
ATOM      4  C   UNL d   1      29.434  16.277 -24.485  0.00  0.00     0.019 A 
ATOM      5  C   UNL d   1      30.453  15.553 -23.408  0.00  0.00     0.021 A 
ATOM      6  C   UNL d   1      30.244  16.297 -24.605  0.00  0.00     0.021 A 
ENDROOT
BRANCH   2   7
ATOM      7  N   UNL d   1      31.561  15.956 -24.184  0.00  0.00    -0.158 NA
BRANCH   7   8
ATOM      8  S   UNL d   1      31.992  16.629 -23.981  0.00  0.00     0.291 S 
ATOM      9  O   UNL d   1      32.116  16.323 -23.228  0.00  0.00    -0.198 OA
ATOM     10  O   UNL d   1      31.869  16.934 -24.731  0.00  0.00    -0.198 OA
BRANCH   8  11
ATOM     11  C   UNL d   1      32.419  17.295 -23.780  0.00  0.00     0.135 A 
ATOM     12  S   UNL d   1      32.704  17.465 -23.036  0.00  0.00    -0.073 SA
ATOM     13  C   UNL d   1      33.106  18.198 -23.079  0.00  0.00     0.036 A 
ATOM     14  C   UNL d   1      33.055  18.447 -23.835  0.00  0.00     0.008 A 
ATOM     15  C   UNL d   1      32.645  17.923 -24.286  0.00  0.00     0.020 A 
ENDBRANCH   8  11
ENDBRANCH   7   8
ENDBRANCH   2   7
BRANCH   1  16
ATOM     16  N   UNL d   1      28.312  15.869 -23.700  0.00  0.00    -0.304 N 
ATOM     17  C   UNL d   1      27.827  15.488 -24.248  0.00  0.00     0.080 A 
ATOM     18  C   UNL d   1      27.004  15.468 -24.120  0.00  0.00     0.019 A 
ATOM     19  C   UNL d   1      26.676  15.828 -23.447  0.00  0.00     0.003 A 
ATOM     20  C   UNL d   1      27.172  16.204 -22.909  0.00  0.00     0.019 A 
ATOM     21  C   UNL d   1      27.996  16.225 -23.035  0.00  0.00     0.080 A 
ENDBRANCH   1  16
TORSDOF 4
ENDMDL
