MODEL 1
REMARK VINA RESULT:      -5.0      0.000      0.000
REMARK  3 active torsions:
REMARK  status: ('A' for Active; 'I' for Inactive)
REMARK    1  A    between atoms: C_2  and  S_1 
REMARK    2  A    between atoms: N_3  and  S_1 
REMARK    3  A    between atoms: N_4  and  C_6 
ROOT
ATOM      1  C   UNL d   1      56.299  -0.364  32.758  0.00  0.00     0.116 A 
ATOM      2  C   UNL d   1      56.767   0.155  32.304  0.00  0.00     0.037 A 
ATOM      3  C   UNL d   1      57.155  -0.131  31.644  0.00  0.00     0.127 A 
ATOM      4  C   UNL d   1      56.229  -1.166  32.542  0.00  0.00     0.070 A 
ATOM      5  C   UNL d   1      57.082  -0.952  31.423  0.00  0.00     0.024 A 
ATOM      6  C   UNL d   1      56.624  -1.445  31.874  0.00  0.00     0.014 A 
ATOM      7 CL   UNL d   1      55.791  -1.601  32.987  0.00  0.00    -0.082 Cl
ENDROOT
BRANCH   1   8
ATOM      8  S   UNL d   1      55.897  -0.066  33.442  0.00  0.00     0.273 S 
ATOM      9  O   UNL d   1      56.616  -0.033  33.856  0.00  0.00    -0.200 OA
ATOM     10  O   UNL d   1      55.155  -0.096  33.024  0.00  0.00    -0.200 OA
BRANCH   8  11
ATOM     11  N   UNL d   1      55.499   0.221  34.095  0.00  0.00    -0.210 N 
ATOM     12  C   UNL d   1      55.825   0.382  34.883  0.00  0.00     0.193 A 
ATOM     13  N   UNL d   1      55.187   0.668  35.346  0.00  0.00    -0.222 NA
ATOM     14  C   UNL d   1      54.494   0.682  34.861  0.00  0.00     0.120 A 
ATOM     15  C   UNL d   1      54.713   0.408  34.115  0.00  0.00     0.114 A 
ENDBRANCH   8  11
ENDBRANCH   1   8
BRANCH   3  16
ATOM     16  N   UNL d   1      57.612   0.384  31.203  0.00  0.00    -0.114 N 
ATOM     17  O   UNL d   1      58.336   0.665  31.407  0.00  0.00    -0.532 OA
ATOM     18  O   UNL d   1      57.372   0.682  30.473  0.00  0.00    -0.532 OA
ENDBRANCH   3  16
TORSDOF 3
ENDMDL
MODEL 2
REMARK VINA RESULT:      -4.6      1.249      3.432
REMARK  3 active torsions:
REMARK  status: ('A' for Active; 'I' for Inactive)
REMARK    1  A    between atoms: C_2  and  S_1 
REMARK    2  A    between atoms: N_3  and  S_1 
REMARK    3  A    between atoms: N_4  and  C_6 
ROOT
ATOM      1  C   UNL d   1      56.523  -0.381  32.327  0.00  0.00     0.116 A 
ATOM      2  C   UNL d   1      56.141   0.148  32.846  0.00  0.00     0.037 A 
ATOM      3  C   UNL d   1      55.589  -0.141  33.376  0.00  0.00     0.127 A 
ATOM      4  C   UNL d   1      56.344  -1.195  32.349  0.00  0.00     0.070 A 
ATOM      5  C   UNL d   1      55.407  -0.975  33.397  0.00  0.00     0.024 A 
ATOM      6  C   UNL d   1      55.786  -1.477  32.887  0.00  0.00     0.014 A 
ATOM      7 CL   UNL d   1      56.719  -1.638  31.856  0.00  0.00    -0.082 Cl
ENDROOT
BRANCH   1   8
ATOM      8  S   UNL d   1      57.095  -0.080  31.779  0.00  0.00     0.273 S 
ATOM      9  O   UNL d   1      56.635  -0.352  31.143  0.00  0.00    -0.200 OA
ATOM     10  O   UNL d   1      57.573   0.203  32.425  0.00  0.00    -0.200 OA
BRANCH   8  11
ATOM     11  N   UNL d   1      57.653   0.214  31.260  0.00  0.00    -0.210 N 
ATOM     12  C   UNL d   1      58.486   0.390  31.427  0.00  0.00     0.193 A 
ATOM     13  N   UNL d   1      58.813   0.678  30.711  0.00  0.00    -0.222 NA
ATOM     14  C   UNL d   1      58.203   0.680  30.124  0.00  0.00     0.120 A 
ATOM     15  C   UNL d   1      57.518   0.396  30.484  0.00  0.00     0.114 A 
ENDBRANCH   8  11
ENDBRANCH   1   8
BRANCH   3  16
ATOM     16  N   UNL d   1      55.218   0.383  33.881  0.00  0.00    -0.114 N 
ATOM     17  O   UNL d   1      54.477   0.681  33.790  0.00  0.00    -0.532 OA
ATOM     18  O   UNL d   1      55.574   0.673  34.564  0.00  0.00    -0.532 OA
ENDBRANCH   3  16
TORSDOF 3
ENDMDL
MODEL 3
REMARK VINA RESULT:      -4.1      1.587      2.042
REMARK  3 active torsions:
REMARK  status: ('A' for Active; 'I' for Inactive)
REMARK    1  A    between atoms: C_2  and  S_1 
REMARK    2  A    between atoms: N_3  and  S_1 
REMARK    3  A    between atoms: N_4  and  C_6 
ROOT
ATOM      1  C   UNL d   1      57.388   0.127  31.822  0.00  0.00     0.116 A 
ATOM      2  C   UNL d   1      57.370  -0.062  31.011  0.00  0.00     0.037 A 
ATOM      3  C   UNL d   1      58.014   0.123  30.543  0.00  0.00     0.127 A 
ATOM      4  C   UNL d   1      58.057   0.500  32.152  0.00  0.00     0.070 A 
ATOM      5  C   UNL d   1      58.698   0.505  30.882  0.00  0.00     0.024 A 
ATOM      6  C   UNL d   1      58.702   0.682  31.672  0.00  0.00     0.014 A 
ATOM      7 CL   UNL d   1      58.027   0.652  32.898  0.00  0.00    -0.082 Cl
ENDROOT
BRANCH   1   8
ATOM      8  S   UNL d   1      56.719  -0.065  32.306  0.00  0.00     0.273 S 
ATOM      9  O   UNL d   1      56.390   0.682  32.155  0.00  0.00    -0.200 OA
ATOM     10  O   UNL d   1      57.051  -0.834  32.466  0.00  0.00    -0.200 OA
BRANCH   8  11
ATOM     11  N   UNL d   1      56.080  -0.262  32.775  0.00  0.00    -0.210 N 
ATOM     12  C   UNL d   1      55.818  -1.058  33.000  0.00  0.00     0.193 A 
ATOM     13  N   UNL d   1      55.140  -0.953  33.482  0.00  0.00    -0.222 NA
ATOM     14  C   UNL d   1      54.991  -0.123  33.551  0.00  0.00     0.120 A 
ATOM     15  C   UNL d   1      55.572   0.266  33.115  0.00  0.00     0.114 A 
ENDBRANCH   8  11
ENDBRANCH   1   8
BRANCH   3  16
ATOM     16  N   UNL d   1      57.989  -0.065  29.748  0.00  0.00    -0.114 N 
ATOM     17  O   UNL d   1      58.323  -0.711  29.405  0.00  0.00    -0.532 OA
ATOM     18  O   UNL d   1      57.605   0.403  29.189  0.00  0.00    -0.532 OA
ENDBRANCH   3  16
TORSDOF 3
ENDMDL
MODEL 4
REMARK VINA RESULT:      -4.1      1.848      3.990
REMARK  3 active torsions:
REMARK  status: ('A' for Active; 'I' for Inactive)
REMARK    1  A    between atoms: C_2  and  S_1 
REMARK    2  A    between atoms: N_3  and  S_1 
REMARK    3  A    between atoms: N_4  and  C_6 
ROOT
ATOM      1  C   UNL d   1      57.341  -0.040  31.708  0.00  0.00     0.116 A 
ATOM      2  C   UNL d   1      56.632  -0.442  31.882  0.00  0.00     0.037 A 
ATOM      3  C   UNL d   1      56.370  -0.472  32.656  0.00  0.00     0.127 A 
ATOM      4  C   UNL d   1      57.777   0.327  32.315  0.00  0.00     0.070 A 
ATOM      5  C   UNL d   1      56.818  -0.096  33.277  0.00  0.00     0.024 A 
ATOM      6  C   UNL d   1      57.505   0.291  33.093  0.00  0.00     0.014 A 
ATOM      7 CL   UNL d   1      58.418   0.681  32.107  0.00  0.00    -0.082 Cl
ENDROOT
BRANCH   1   8
ATOM      8  S   UNL d   1      57.611  -0.010  30.905  0.00  0.00     0.273 S 
ATOM      9  O   UNL d   1      58.094  -0.673  31.037  0.00  0.00    -0.200 OA
ATOM     10  O   UNL d   1      57.119   0.670  30.760  0.00  0.00    -0.200 OA
BRANCH   8  11
ATOM     11  N   UNL d   1      57.864   0.029  30.129  0.00  0.00    -0.210 N 
ATOM     12  C   UNL d   1      57.700   0.657  29.553  0.00  0.00     0.193 A 
ATOM     13  N   UNL d   1      58.086   0.430  28.844  0.00  0.00    -0.222 NA
ATOM     14  C   UNL d   1      58.472  -0.310  28.978  0.00  0.00     0.120 A 
ATOM     15  C   UNL d   1      58.321  -0.526  29.759  0.00  0.00     0.114 A 
ENDBRANCH   8  11
ENDBRANCH   1   8
BRANCH   3  16
ATOM     16  N   UNL d   1      55.674  -0.868  32.820  0.00  0.00    -0.114 N 
ATOM     17  O   UNL d   1      55.027  -0.555  33.180  0.00  0.00    -0.532 OA
ATOM     18  O   UNL d   1      55.554  -1.660  32.629  0.00  0.00    -0.532 OA
ENDBRANCH   3  16
TORSDOF 3
ENDMDL
MODEL 5
REMARK VINA RESULT:      -2.3      4.173      5.445
REMARK  3 active torsions:
REMARK  status: ('A' for Active; 'I' for Inactive)
REMARK    1  A    between atoms: C_2  and  S_1 
REMARK    2  A    between atoms: N_3  and  S_1 
REMARK    3  A    between atoms: N_4  and  C_6 
ROOT
ATOM      1  C   UNL d   1      59.867  -1.174  29.160  0.00  0.00     0.116 A 
ATOM      2  C   UNL d   1      59.862  -1.974  29.393  0.00  0.00     0.037 A 
ATOM      3  C   UNL d   1      60.472  -2.464  29.156  0.00  0.00     0.127 A 
ATOM      4  C   UNL d   1      60.488  -0.877  28.690  0.00  0.00     0.070 A 
ATOM      5  C   UNL d   1      61.108  -2.158  28.674  0.00  0.00     0.024 A 
ATOM      6  C   UNL d   1      61.100  -1.378  28.455  0.00  0.00     0.014 A 
ATOM      7 CL   UNL d   1      60.449  -0.140  28.502  0.00  0.00    -0.082 Cl
ENDROOT
BRANCH   1   8
ATOM      8  S   UNL d   1      59.234  -0.668  29.407  0.00  0.00     0.273 S 
ATOM      9  O   UNL d   1      59.696  -0.390  30.038  0.00  0.00    -0.200 OA
ATOM     10  O   UNL d   1      58.753  -0.948  28.761  0.00  0.00    -0.200 OA
BRANCH   8  11
ATOM     11  N   UNL d   1      58.616  -0.186  29.635  0.00  0.00    -0.210 N 
ATOM     12  C   UNL d   1      58.104   0.292  29.122  0.00  0.00     0.193 A 
ATOM     13  N   UNL d   1      57.562   0.682  29.630  0.00  0.00    -0.222 NA
ATOM     14  C   UNL d   1      57.734   0.452  30.426  0.00  0.00     0.120 A 
ATOM     15  C   UNL d   1      58.372  -0.069  30.397  0.00  0.00     0.114 A 
ENDBRANCH   8  11
ENDBRANCH   1   8
BRANCH   3  16
ATOM     16  N   UNL d   1      60.461  -3.247  29.388  0.00  0.00    -0.114 N 
ATOM     17  O   UNL d   1      60.975  -3.595  29.899  0.00  0.00    -0.532 OA
ATOM     18  O   UNL d   1      59.903  -3.787  29.114  0.00  0.00    -0.532 OA
ENDBRANCH   3  16
TORSDOF 3
ENDMDL
