MODEL 1
REMARK VINA RESULT:     133.2      0.000      0.000
REMARK  5 active torsions:
REMARK  status: ('A' for Active; 'I' for Inactive)
REMARK    1  A    between atoms: N_7  and  C_1 
REMARK    2  A    between atoms: C_14  and  N_4 
REMARK    3  A    between atoms: S_5  and  N_8 
REMARK    4  A    between atoms: C_13  and  S_5 
REMARK       I    between atoms: C_9  and  N_7 
REMARK    5  A    between atoms: C_15  and  C_9 
ROOT
ATOM      1  N   UNL d   1      60.337  46.853  51.022  0.00  0.00    -0.202 NA
ATOM      2  C   UNL d   1      60.680  46.456  50.375  0.00  0.00     0.279 C 
ATOM      3  O   UNL d   1      60.669  46.799  49.618  0.00  0.00    -0.265 OA
ENDROOT
BRANCH   2   4
ATOM      4  C   UNL d   1      61.033  45.719  50.481  0.00  0.00     0.061 A 
ATOM      5  C   UNL d   1      61.579  45.424  49.935  0.00  0.00     0.025 A 
ATOM      6  C   UNL d   1      61.927  44.686  50.048  0.00  0.00     0.092 A 
ATOM      7  N   UNL d   1      61.734  44.235  50.708  0.00  0.00    -0.229 N 
ATOM      8  C   UNL d   1      61.184  44.522  51.266  0.00  0.00     0.092 A 
ATOM      9  C   UNL d   1      60.838  45.256  51.154  0.00  0.00     0.025 A 
BRANCH   7  10
ATOM     10  S   UNL d   1      62.090  43.486  50.819  0.00  0.00     0.271 S 
ATOM     11  O   UNL d   1      61.593  43.346  51.466  0.00  0.00    -0.200 OA
ATOM     12  O   UNL d   1      62.582  43.642  50.166  0.00  0.00    -0.200 OA
BRANCH  10  13
ATOM     13  C   UNL d   1      62.445  42.750  50.922  0.00  0.00     0.104 A 
ATOM     14  C   UNL d   1      62.802  42.369  50.283  0.00  0.00     0.013 A 
ATOM     15  C   UNL d   1      63.158  41.632  50.385  0.00  0.00     0.001 A 
ATOM     16  C   UNL d   1      63.157  41.274  51.133  0.00  0.00     0.000 A 
ATOM     17  C   UNL d   1      62.799  41.655  51.776  0.00  0.00     0.001 A 
ATOM     18  C   UNL d   1      62.441  42.399  51.667  0.00  0.00     0.013 A 
ENDBRANCH  10  13
ENDBRANCH   7  10
ENDBRANCH   2   4
BRANCH   1  19
ATOM     19  C   UNL d   1      59.985  47.590  50.912  0.00  0.00     0.160 A 
ATOM     20  C   UNL d   1      59.179  47.731  50.822  0.00  0.00     0.298 A 
ATOM     21  N   UNL d   1      59.073  48.540  50.727  0.00  0.00    -0.209 N 
ATOM     22  O   UNL d   1      58.588  47.161  50.828  0.00  0.00    -0.263 OA
ATOM     23  N   UNL d   1      59.811  48.897  50.758  0.00  0.00    -0.238 N 
ATOM     24  C   UNL d   1      60.376  48.312  50.872  0.00  0.00     0.104 A 
ATOM     25  C   UNL d   1      59.958  49.704  50.686  0.00  0.00     0.120 C 
ATOM     26  C   UNL d   1      61.190  48.428  50.935  0.00  0.00     0.022 C 
BRANCH  21  27
ATOM     27  C   UNL d   1      58.350  48.921  50.620  0.00  0.00     0.085 A 
ATOM     28  C   UNL d   1      57.791  48.891  51.222  0.00  0.00     0.019 A 
ATOM     29  C   UNL d   1      57.065  49.270  51.121  0.00  0.00     0.002 A 
ATOM     30  C   UNL d   1      56.905  49.677  50.416  0.00  0.00     0.000 A 
ATOM     31  C   UNL d   1      57.474  49.702  49.815  0.00  0.00     0.002 A 
ATOM     32  C   UNL d   1      58.196  49.324  49.918  0.00  0.00     0.019 A 
ENDBRANCH  21  27
ENDBRANCH   1  19
TORSDOF 5
ENDMDL
