MODEL 1
REMARK VINA RESULT:       0.2      0.000      0.000
REMARK  4 active torsions:
REMARK  status: ('A' for Active; 'I' for Inactive)
REMARK    1  A    between atoms: N_10  and  C_3 
REMARK    2  A    between atoms: C_13  and  C_5 
REMARK    3  A    between atoms: C_19  and  C_9 
REMARK    4  A    between atoms: C_12  and  N_11 
ROOT
ATOM      1  N   UNL d   1      32.585  20.408 -22.310  0.00  0.00    -0.196 N 
ATOM      2  C   UNL d   1      32.624  21.184 -22.066  0.00  0.00     0.167 A 
ATOM      3  C   UNL d   1      32.730  20.235 -23.078  0.00  0.00     0.152 A 
ATOM      4  N   UNL d   1      32.259  20.016 -21.012  0.00  0.00    -0.163 NA
ATOM      5  C   UNL d   1      32.483  21.366 -21.309  0.00  0.00     0.055 A 
ATOM      6  N   UNL d   1      32.807  21.756 -22.599  0.00  0.00    -0.227 NA
ATOM      7  C   UNL d   1      32.917  20.831 -23.620  0.00  0.00     0.057 A 
ATOM      8  C   UNL d   1      32.298  20.792 -20.768  0.00  0.00     0.104 A 
ATOM      9  C   UNL d   1      32.949  21.575 -23.360  0.00  0.00     0.086 A 
ATOM     10  C   UNL d   1      32.158  20.975 -20.015  0.00  0.00     0.023 C 
ENDROOT
BRANCH   3  11
ATOM     11  N   UNL d   1      32.691  19.440 -23.332  0.00  0.00    -0.286 N 
ATOM     12  C   UNL d   1      32.204  19.233 -23.970  0.00  0.00     0.101 A 
ATOM     13  C   UNL d   1      32.164  18.435 -24.226  0.00  0.00     0.101 A 
ATOM     14  N   UNL d   1      32.612  17.851 -23.840  0.00  0.00    -0.286 N 
ATOM     15  C   UNL d   1      33.102  18.058 -23.200  0.00  0.00     0.101 A 
ATOM     16  C   UNL d   1      33.145  18.851 -22.942  0.00  0.00     0.101 A 
BRANCH  14  17
ATOM     17  C   UNL d   1      32.573  17.057 -24.095  0.00  0.00     0.148 A 
ATOM     18  N   UNL d   1      32.934  16.835 -24.817  0.00  0.00    -0.227 NA
ATOM     19  C   UNL d   1      32.893  16.044 -25.068  0.00  0.00     0.101 A 
ATOM     20  C   UNL d   1      32.494  15.470 -24.606  0.00  0.00     0.021 A 
ATOM     21  C   UNL d   1      32.137  15.695 -23.892  0.00  0.00     0.005 A 
ATOM     22  C   UNL d   1      32.176  16.493 -23.635  0.00  0.00     0.037 A 
ENDBRANCH  14  17
ENDBRANCH   3  11
BRANCH   9  23
ATOM     23  C   UNL d   1      33.141  22.181 -23.916  0.00  0.00     0.018 C 
ATOM     24  C   UNL d   1      33.241  22.976 -23.657  0.00  0.00     0.002 C 
ATOM     25  C   UNL d   1      33.231  21.980 -24.734  0.00  0.00     0.002 C 
ENDBRANCH   9  23
BRANCH   5  26
ATOM     26  C   UNL d   1      32.522  22.149 -21.062  0.00  0.00     0.004 A 
ATOM     27  C   UNL d   1      33.085  22.377 -20.545  0.00  0.00     0.000 A 
ATOM     28  C   UNL d   1      33.130  23.134 -20.301  0.00  0.00     0.000 A 
ATOM     29  C   UNL d   1      32.599  23.676 -20.582  0.00  0.00     0.000 A 
ATOM     30  C   UNL d   1      32.034  23.454 -21.100  0.00  0.00     0.000 A 
ATOM     31  C   UNL d   1      31.995  22.683 -21.343  0.00  0.00     0.000 A 
ENDBRANCH   5  26
TORSDOF 4
ENDMDL
MODEL 2
REMARK VINA RESULT:       1.9      1.147      5.448
REMARK  4 active torsions:
REMARK  status: ('A' for Active; 'I' for Inactive)
REMARK    1  A    between atoms: N_10  and  C_3 
REMARK    2  A    between atoms: C_13  and  C_5 
REMARK    3  A    between atoms: C_19  and  C_9 
REMARK    4  A    between atoms: C_12  and  N_11 
ROOT
ATOM      1  N   UNL d   1      32.753  18.595 -22.456  0.00  0.00    -0.196 N 
ATOM      2  C   UNL d   1      32.646  17.996 -22.996  0.00  0.00     0.167 A 
ATOM      3  C   UNL d   1      32.587  19.348 -22.671  0.00  0.00     0.152 A 
ATOM      4  N   UNL d   1      33.188  17.665 -21.512  0.00  0.00    -0.163 NA
ATOM      5  C   UNL d   1      32.807  17.248 -22.793  0.00  0.00     0.055 A 
ATOM      6  N   UNL d   1      32.375  18.172 -23.732  0.00  0.00    -0.227 NA
ATOM      7  C   UNL d   1      32.309  19.520 -23.432  0.00  0.00     0.057 A 
ATOM      8  C   UNL d   1      33.080  17.066 -22.052  0.00  0.00     0.104 A 
ATOM      9  C   UNL d   1      32.212  18.923 -23.938  0.00  0.00     0.086 A 
ATOM     10  C   UNL d   1      33.241  16.322 -21.852  0.00  0.00     0.023 C 
ENDROOT
BRANCH   3  11
ATOM     11  N   UNL d   1      32.696  19.965 -22.120  0.00  0.00    -0.286 N 
ATOM     12  C   UNL d   1      32.406  19.886 -21.347  0.00  0.00     0.101 A 
ATOM     13  C   UNL d   1      32.515  20.506 -20.792  0.00  0.00     0.101 A 
ATOM     14  N   UNL d   1      32.914  21.200 -21.016  0.00  0.00    -0.286 N 
ATOM     15  C   UNL d   1      33.206  21.280 -21.792  0.00  0.00     0.101 A 
ATOM     16  C   UNL d   1      33.099  20.666 -22.347  0.00  0.00     0.101 A 
BRANCH  14  17
ATOM     17  C   UNL d   1      33.023  21.816 -20.464  0.00  0.00     0.148 A 
ATOM     18  N   UNL d   1      33.115  21.634 -19.652  0.00  0.00    -0.227 NA
ATOM     19  C   UNL d   1      33.223  22.250 -19.104  0.00  0.00     0.101 A 
ATOM     20  C   UNL d   1      33.240  23.048 -19.358  0.00  0.00     0.021 A 
ATOM     21  C   UNL d   1      33.148  23.224 -20.164  0.00  0.00     0.005 A 
ATOM     22  C   UNL d   1      33.039  22.605 -20.720  0.00  0.00     0.037 A 
ENDBRANCH  14  17
ENDBRANCH   3  11
BRANCH   9  23
ATOM     23  C   UNL d   1      31.929  19.102 -24.712  0.00  0.00     0.018 C 
ATOM     24  C   UNL d   1      32.166  19.812 -25.096  0.00  0.00     0.002 C 
ATOM     25  C   UNL d   1      31.404  18.560 -25.097  0.00  0.00     0.002 C 
ENDBRANCH   9  23
BRANCH   5  26
ATOM     26  C   UNL d   1      32.699  16.643 -23.339  0.00  0.00     0.004 A 
ATOM     27  C   UNL d   1      33.241  16.520 -23.911  0.00  0.00     0.000 A 
ATOM     28  C   UNL d   1      33.142  15.936 -24.443  0.00  0.00     0.000 A 
ATOM     29  C   UNL d   1      32.487  15.464 -24.402  0.00  0.00     0.000 A 
ATOM     30  C   UNL d   1      31.941  15.583 -23.832  0.00  0.00     0.000 A 
ATOM     31  C   UNL d   1      32.048  16.178 -23.295  0.00  0.00     0.000 A 
ENDBRANCH   5  26
TORSDOF 4
ENDMDL
