MODEL 1
REMARK VINA RESULT:      34.4      0.000      0.000
REMARK  7 active torsions:
REMARK  status: ('A' for Active; 'I' for Inactive)
REMARK    1  A    between atoms: S_2  and  C_1 
REMARK    2  A    between atoms: N_14  and  S_2 
REMARK    3  A    between atoms: C_9  and  C_18 
REMARK       I    between atoms: N_17  and  C_9 
REMARK    4  A    between atoms: C_13  and  C_23 
REMARK    5  A    between atoms: C_24  and  N_14 
REMARK    6  A    between atoms: C_23  and  N_17 
REMARK    7  A    between atoms: C_18  and  C_24 
ROOT
ATOM      1  S   UNL d   1      13.889  15.215  -4.353  0.00  0.00     0.287 S 
ATOM      2  O   UNL d   1      14.006  14.969  -3.574  0.00  0.00    -0.198 OA
ATOM      3  O   UNL d   1      13.773  15.461  -5.131  0.00  0.00    -0.198 OA
ENDROOT
BRANCH   1   4
ATOM      4  C   UNL d   1      14.387  15.857  -4.224  0.00  0.00     0.127 A 
ATOM      5  C   UNL d   1      14.579  16.084  -3.457  0.00  0.00     0.142 A 
ATOM      6  C   UNL d   1      15.079  16.728  -3.328  0.00  0.00     0.131 A 
ATOM      7  N   UNL d   1      14.363  15.784  -2.723  0.00  0.00    -0.101 NA
ATOM      8  N   UNL d   1      15.170  16.823  -2.516  0.00  0.00    -0.102 NA
ATOM      9  C   UNL d   1      15.387  17.145  -3.967  0.00  0.00     0.023 A 
ATOM     10  O   UNL d   1      14.726  16.238  -2.140  0.00  0.00    -0.106 OA
ATOM     11  C   UNL d   1      15.196  16.920  -4.744  0.00  0.00     0.002 A 
ATOM     12  C   UNL d   1      14.697  16.276  -4.873  0.00  0.00     0.015 A 
ENDBRANCH   1   4
BRANCH   1  13
ATOM     13  N   UNL d   1      13.387  14.568  -4.482  0.00  0.00    -0.157 NA
BRANCH  13  14
ATOM     14  C   UNL d   1      13.591  13.822  -4.196  0.00  0.00     0.117 C 
BRANCH  14  15
ATOM     15  C   UNL d   1      13.029  13.219  -4.174  0.00  0.00     0.084 C 
BRANCH  15  16
ATOM     16  C   UNL d   1      13.195  12.511  -3.779  0.00  0.00     0.281 C 
ATOM     17  N   UNL d   1      13.401  12.524  -2.974  0.00  0.00    -0.206 NA
ATOM     18  O   UNL d   1      13.156  11.785  -4.188  0.00  0.00    -0.265 OA
BRANCH  17  19
ATOM     19  C   UNL d   1      13.568  11.803  -2.581  0.00  0.00     0.109 C 
BRANCH  19  20
ATOM     20  C   UNL d   1      13.903  11.805  -1.823  0.00  0.00     0.049 A 
ATOM     21  S   UNL d   1      13.506  11.781  -1.100  0.00  0.00    -0.085 SA
ATOM     22  C   UNL d   1      14.049  11.792  -0.490  0.00  0.00     0.035 A 
ATOM     23  C   UNL d   1      14.803  11.824  -0.830  0.00  0.00     0.007 A 
ATOM     24  C   UNL d   1      14.720  11.832  -1.649  0.00  0.00     0.009 A 
ENDBRANCH  19  20
ENDBRANCH  17  19
ENDBRANCH  15  16
ENDBRANCH  14  15
ENDBRANCH  13  14
ENDBRANCH   1  13
TORSDOF 7
ENDMDL
MODEL 2
REMARK VINA RESULT:      34.7      2.223      3.009
REMARK  7 active torsions:
REMARK  status: ('A' for Active; 'I' for Inactive)
REMARK    1  A    between atoms: S_2  and  C_1 
REMARK    2  A    between atoms: N_14  and  S_2 
REMARK    3  A    between atoms: C_9  and  C_18 
REMARK       I    between atoms: N_17  and  C_9 
REMARK    4  A    between atoms: C_13  and  C_23 
REMARK    5  A    between atoms: C_24  and  N_14 
REMARK    6  A    between atoms: C_23  and  N_17 
REMARK    7  A    between atoms: C_18  and  C_24 
ROOT
ATOM      1  S   UNL d   1      15.359  15.235  -0.901  0.00  0.00     0.287 S 
ATOM      2  O   UNL d   1      15.008  14.749  -1.468  0.00  0.00    -0.198 OA
ATOM      3  O   UNL d   1      15.710  15.721  -0.334  0.00  0.00    -0.198 OA
ENDROOT
BRANCH   1   4
ATOM      4  C   UNL d   1      15.206  15.893  -1.370  0.00  0.00     0.127 A 
ATOM      5  C   UNL d   1      15.386  16.648  -1.095  0.00  0.00     0.142 A 
ATOM      6  C   UNL d   1      15.233  17.308  -1.566  0.00  0.00     0.131 A 
ATOM      7  N   UNL d   1      15.716  16.913  -0.391  0.00  0.00    -0.101 NA
ATOM      8  N   UNL d   1      15.468  17.979  -1.151  0.00  0.00    -0.102 NA
ATOM      9  C   UNL d   1      14.898  17.214  -2.312  0.00  0.00     0.023 A 
ATOM     10  O   UNL d   1      15.768  17.735  -0.422  0.00  0.00    -0.106 OA
ATOM     11  C   UNL d   1      14.714  16.454  -2.594  0.00  0.00     0.002 A 
ATOM     12  C   UNL d   1      14.867  15.794  -2.124  0.00  0.00     0.015 A 
ENDBRANCH   1   4
BRANCH   1  13
ATOM     13  N   UNL d   1      15.513  14.572  -0.428  0.00  0.00    -0.157 NA
BRANCH  13  14
ATOM     14  C   UNL d   1      14.906  14.047  -0.240  0.00  0.00     0.117 C 
BRANCH  14  15
ATOM     15  C   UNL d   1      15.055  13.237  -0.205  0.00  0.00     0.084 C 
BRANCH  15  16
ATOM     16  C   UNL d   1      14.491  12.698  -0.481  0.00  0.00     0.281 C 
ATOM     17  N   UNL d   1      14.592  12.336  -1.222  0.00  0.00    -0.206 NA
ATOM     18  O   UNL d   1      13.822  12.519  -0.017  0.00  0.00    -0.265 OA
BRANCH  17  19
ATOM     19  C   UNL d   1      14.017  11.792  -1.496  0.00  0.00     0.109 C 
BRANCH  19  20
ATOM     20  C   UNL d   1      13.678  11.880  -2.247  0.00  0.00     0.049 A 
ATOM     21  S   UNL d   1      12.891  12.058  -2.423  0.00  0.00    -0.085 SA
ATOM     22  C   UNL d   1      12.794  12.093  -3.233  0.00  0.00     0.035 A 
ATOM     23  C   UNL d   1      13.530  11.935  -3.578  0.00  0.00     0.007 A 
ATOM     24  C   UNL d   1      14.077  11.803  -2.977  0.00  0.00     0.009 A 
ENDBRANCH  19  20
ENDBRANCH  17  19
ENDBRANCH  15  16
ENDBRANCH  14  15
ENDBRANCH  13  14
ENDBRANCH   1  13
TORSDOF 7
ENDMDL
MODEL 3
REMARK VINA RESULT:      37.2      1.471      4.373
REMARK  7 active torsions:
REMARK  status: ('A' for Active; 'I' for Inactive)
REMARK    1  A    between atoms: S_2  and  C_1 
REMARK    2  A    between atoms: N_14  and  S_2 
REMARK    3  A    between atoms: C_9  and  C_18 
REMARK       I    between atoms: N_17  and  C_9 
REMARK    4  A    between atoms: C_13  and  C_23 
REMARK    5  A    between atoms: C_24  and  N_14 
REMARK    6  A    between atoms: C_23  and  N_17 
REMARK    7  A    between atoms: C_18  and  C_24 
ROOT
ATOM      1  S   UNL d   1      13.650  12.176  -2.419  0.00  0.00     0.287 S 
ATOM      2  O   UNL d   1      12.935  11.780  -2.311  0.00  0.00    -0.198 OA
ATOM      3  O   UNL d   1      14.366  12.573  -2.527  0.00  0.00    -0.198 OA
ENDROOT
BRANCH   1   4
ATOM      4  C   UNL d   1      13.820  12.088  -1.620  0.00  0.00     0.127 A 
ATOM      5  C   UNL d   1      14.584  12.217  -1.342  0.00  0.00     0.142 A 
ATOM      6  C   UNL d   1      14.754  12.129  -0.540  0.00  0.00     0.131 A 
ATOM      7  N   UNL d   1      15.278  12.434  -1.723  0.00  0.00    -0.101 NA
ATOM      8  N   UNL d   1      15.553  12.292  -0.428  0.00  0.00    -0.102 NA
ATOM      9  C   UNL d   1      14.160  11.911  -0.014  0.00  0.00     0.023 A 
ATOM     10  O   UNL d   1      15.879  12.481  -1.162  0.00  0.00    -0.106 OA
ATOM     11  C   UNL d   1      13.386  11.780  -0.288  0.00  0.00     0.002 A 
ATOM     12  C   UNL d   1      13.216  11.868  -1.091  0.00  0.00     0.015 A 
ENDBRANCH   1   4
BRANCH   1  13
ATOM     13  N   UNL d   1      13.479  12.265  -3.226  0.00  0.00    -0.157 NA
BRANCH  13  14
ATOM     14  C   UNL d   1      13.101  12.946  -3.496  0.00  0.00     0.117 C 
BRANCH  14  15
ATOM     15  C   UNL d   1      13.112  13.135  -4.299  0.00  0.00     0.084 C 
BRANCH  15  16
ATOM     16  C   UNL d   1      13.264  13.911  -4.541  0.00  0.00     0.281 C 
ATOM     17  N   UNL d   1      13.902  14.331  -4.214  0.00  0.00    -0.206 NA
ATOM     18  O   UNL d   1      12.777  14.274  -5.113  0.00  0.00    -0.265 OA
BRANCH  17  19
ATOM     19  C   UNL d   1      14.051  15.116  -4.463  0.00  0.00     0.109 C 
BRANCH  19  20
ATOM     20  C   UNL d   1      14.346  15.678  -3.932  0.00  0.00     0.049 A 
ATOM     21  S   UNL d   1      14.709  15.537  -3.203  0.00  0.00    -0.085 SA
ATOM     22  C   UNL d   1      14.916  16.247  -2.859  0.00  0.00     0.035 A 
ATOM     23  C   UNL d   1      14.682  16.851  -3.376  0.00  0.00     0.007 A 
ATOM     24  C   UNL d   1      14.331  16.507  -4.037  0.00  0.00     0.009 A 
ENDBRANCH  19  20
ENDBRANCH  17  19
ENDBRANCH  15  16
ENDBRANCH  14  15
ENDBRANCH  13  14
ENDBRANCH   1  13
TORSDOF 7
ENDMDL
