MODEL 1
REMARK VINA RESULT:      57.8      0.000      0.000
REMARK  2 active torsions:
REMARK  status: ('A' for Active; 'I' for Inactive)
REMARK    1  A    between atoms: C_2  and  C_1 
REMARK    2  A    between atoms: C_14  and  N_5 
ROOT
ATOM      1  C   UNL d   1     -54.851-101.254 -40.482  0.00  0.00     0.117 A 
ATOM      2  N   UNL d   1     -54.851-101.661 -41.215  0.00  0.00    -0.164 NA
ATOM      3  C   UNL d   1     -54.779-100.456 -40.633  0.00  0.00     0.107 A 
ATOM      4  N   UNL d   1     -54.779-101.106 -41.802  0.00  0.00    -0.228 N 
ATOM      5  C   UNL d   1     -54.734-100.354 -41.442  0.00  0.00     0.112 A 
ATOM      6  C   UNL d   1     -54.754 -99.838 -40.073  0.00  0.00     0.104 C 
ATOM      7  N   UNL d   1     -54.729 -99.225 -39.514  0.00  0.00    -0.191 NA
ENDROOT
BRANCH   1   8
ATOM      8  C   UNL d   1     -54.917-101.648 -39.747  0.00  0.00     0.084 A 
ATOM      9  C   UNL d   1     -55.131-102.466 -39.735  0.00  0.00     0.302 A 
ATOM     10  O   UNL d   1     -55.198-102.860 -39.034  0.00  0.00    -0.273 OA
ATOM     11  O   UNL d   1     -55.272-102.868 -40.440  0.00  0.00    -0.259 OA
ATOM     12  C   UNL d   1     -55.059-102.472 -38.310  0.00  0.00     0.103 A 
ATOM     13  C   UNL d   1     -54.850-101.671 -38.325  0.00  0.00     0.023 A 
ATOM     14  C   UNL d   1     -55.130-102.877 -37.611  0.00  0.00     0.025 A 
ATOM     15  C   UNL d   1     -54.780-101.263 -39.039  0.00  0.00     0.009 A 
ATOM     16  C   UNL d   1     -54.712-101.285 -37.607  0.00  0.00     0.002 A 
ATOM     17  C   UNL d   1     -54.785-101.697 -36.907  0.00  0.00     0.000 A 
ATOM     18  C   UNL d   1     -54.992-102.491 -36.895  0.00  0.00     0.002 A 
ENDBRANCH   1   8
BRANCH   4  19
ATOM     19  C   UNL d   1     -54.756-101.283 -42.609  0.00  0.00     0.083 A 
ATOM     20  C   UNL d   1     -54.738-102.067 -42.869  0.00  0.00     0.019 A 
ATOM     21  C   UNL d   1     -54.716-102.232 -43.670  0.00  0.00     0.002 A 
ATOM     22  C   UNL d   1     -54.712-101.621 -44.212  0.00  0.00     0.000 A 
ATOM     23  C   UNL d   1     -54.731-100.814 -43.966  0.00  0.00     0.002 A 
ATOM     24  C   UNL d   1     -54.754-100.659 -43.148  0.00  0.00     0.019 A 
ENDBRANCH   4  19
TORSDOF 2
ENDMDL
