MODEL 1
REMARK VINA RESULT:      23.0      0.000      0.000
REMARK  2 active torsions:
REMARK  status: ('A' for Active; 'I' for Inactive)
REMARK    1  A    between atoms: C_6  and  C_1 
REMARK    2  A    between atoms: C_11  and  C_6 
ROOT
ATOM      1  C   UNL d   1      59.388  49.659  51.204  0.00  0.00     0.059 A 
ATOM      2  C   UNL d   1      59.251  49.684  52.015  0.00  0.00     0.085 A 
ATOM      3  N   UNL d   1      58.436  49.704  52.172  0.00  0.00    -0.245 NA
ATOM      4  C   UNL d   1      58.637  49.664  50.833  0.00  0.00     0.022 A 
ATOM      5  C   UNL d   1      58.051  49.692  51.421  0.00  0.00     0.082 A 
ATOM      6  C   UNL d   1      59.873  49.686  52.549  0.00  0.00     0.021 C 
ATOM      7  C   UNL d   1      58.421  49.647  50.038  0.00  0.00     0.002 A 
ATOM      8  C   UNL d   1      57.249  49.702  51.216  0.00  0.00     0.019 A 
ATOM      9  C   UNL d   1      57.607  49.658  49.844  0.00  0.00     0.000 A 
ATOM     10  C   UNL d   1      57.048  49.685  50.416  0.00  0.00     0.002 A 
ENDROOT
BRANCH   1  11
ATOM     11  C   UNL d   1      60.130  49.634  50.834  0.00  0.00     0.208 C 
ATOM     12  O   UNL d   1      60.820  49.582  51.273  0.00  0.00    -0.286 OA
BRANCH  11  13
ATOM     13  C   UNL d   1      60.174  49.662  50.024  0.00  0.00     0.110 C 
ATOM     14 CL   UNL d   1      60.898  49.682  49.669  0.00  0.00    -0.078 Cl
ENDBRANCH  11  13
ENDBRANCH   1  11
TORSDOF 2
ENDMDL
MODEL 2
REMARK VINA RESULT:      23.4      1.915      3.069
REMARK  2 active torsions:
REMARK  status: ('A' for Active; 'I' for Inactive)
REMARK    1  A    between atoms: C_6  and  C_1 
REMARK    2  A    between atoms: C_11  and  C_6 
ROOT
ATOM      1  C   UNL d   1      57.990  49.498  50.266  0.00  0.00     0.059 A 
ATOM      2  C   UNL d   1      58.155  49.474  49.460  0.00  0.00     0.085 A 
ATOM      3  N   UNL d   1      58.973  49.529  49.329  0.00  0.00    -0.245 NA
ATOM      4  C   UNL d   1      58.725  49.570  50.660  0.00  0.00     0.022 A 
ATOM      5  C   UNL d   1      59.331  49.590  50.091  0.00  0.00     0.082 A 
ATOM      6  C   UNL d   1      57.554  49.405  48.907  0.00  0.00     0.021 C 
ATOM      7  C   UNL d   1      58.913  49.619  51.461  0.00  0.00     0.002 A 
ATOM      8  C   UNL d   1      60.123  49.659  50.322  0.00  0.00     0.019 A 
ATOM      9  C   UNL d   1      59.717  49.689  51.681  0.00  0.00     0.000 A 
ATOM     10  C   UNL d   1      60.295  49.707  51.127  0.00  0.00     0.002 A 
ENDROOT
BRANCH   1  11
ATOM     11  C   UNL d   1      57.237  49.457  50.612  0.00  0.00     0.208 C 
ATOM     12  O   UNL d   1      57.111  49.707  51.382  0.00  0.00    -0.286 OA
BRANCH  11  13
ATOM     13  C   UNL d   1      56.615  49.164  50.180  0.00  0.00     0.110 C 
ATOM     14 CL   UNL d   1      56.040  48.742  50.556  0.00  0.00    -0.078 Cl
ENDBRANCH  11  13
ENDBRANCH   1  11
TORSDOF 2
ENDMDL
MODEL 3
REMARK VINA RESULT:      25.4      1.482      2.542
REMARK  2 active torsions:
REMARK  status: ('A' for Active; 'I' for Inactive)
REMARK    1  A    between atoms: C_6  and  C_1 
REMARK    2  A    between atoms: C_11  and  C_6 
ROOT
ATOM      1  C   UNL d   1      59.520  49.686  51.256  0.00  0.00     0.059 A 
ATOM      2  C   UNL d   1      59.979  49.691  51.939  0.00  0.00     0.085 A 
ATOM      3  N   UNL d   1      60.787  49.694  51.747  0.00  0.00    -0.245 NA
ATOM      4  C   UNL d   1      60.051  49.685  50.609  0.00  0.00     0.022 A 
ATOM      5  C   UNL d   1      60.829  49.691  50.904  0.00  0.00     0.082 A 
ATOM      6  C   UNL d   1      59.633  49.693  52.683  0.00  0.00     0.021 C 
ATOM      7  C   UNL d   1      59.921  49.681  49.796  0.00  0.00     0.002 A 
ATOM      8  C   UNL d   1      61.475  49.691  50.386  0.00  0.00     0.019 A 
ATOM      9  C   UNL d   1      60.583  49.682  49.284  0.00  0.00     0.000 A 
ATOM     10  C   UNL d   1      61.328  49.687  49.575  0.00  0.00     0.002 A 
ENDROOT
BRANCH   1  11
ATOM     11  C   UNL d   1      58.691  49.681  51.225  0.00  0.00     0.208 C 
ATOM     12  O   UNL d   1      58.242  49.682  51.911  0.00  0.00    -0.286 OA
BRANCH  11  13
ATOM     13  C   UNL d   1      58.319  49.676  50.504  0.00  0.00     0.110 C 
ATOM     14 CL   UNL d   1      57.513  49.682  50.478  0.00  0.00    -0.078 Cl
ENDBRANCH  11  13
ENDBRANCH   1  11
TORSDOF 2
ENDMDL
