MODEL 1
REMARK VINA RESULT:      31.7      0.000      0.000
REMARK  3 active torsions:
REMARK  status: ('A' for Active; 'I' for Inactive)
REMARK       I    between atoms: N_2  and  C_1 
REMARK    1  A    between atoms: C_3  and  C_1 
REMARK    2  A    between atoms: C_6  and  N_2 
REMARK    3  A    between atoms: C_5  and  C_4 
ROOT
ATOM      1  C   UNL d   1     -50.686  25.648  33.368  0.00  0.00     0.279 C 
ATOM      2  N   UNL d   1     -51.366  26.122  33.377  0.00  0.00    -0.207 NA
ATOM      3  O   UNL d   1     -49.942  25.999  33.343  0.00  0.00    -0.265 OA
ENDROOT
BRANCH   1   4
ATOM      4  C   UNL d   1     -50.759  24.825  33.385  0.00  0.00     0.064 A 
ATOM      5  C   UNL d   1     -50.085  24.357  33.413  0.00  0.00     0.069 A 
ATOM      6  C   UNL d   1     -50.145  23.530  33.430  0.00  0.00     0.006 A 
ATOM      7  C   UNL d   1     -50.897  23.190  33.418  0.00  0.00     0.000 A 
ATOM      8  C   UNL d   1     -51.571  23.658  33.389  0.00  0.00     0.000 A 
ATOM      9  C   UNL d   1     -51.502  24.474  33.373  0.00  0.00     0.005 A 
BRANCH   5  10
ATOM     10  C   UNL d   1     -49.335  24.709  33.425  0.00  0.00     0.211 C 
ATOM     11  O   UNL d   1     -49.258  25.526  33.307  0.00  0.00    -0.644 OA
ATOM     12  O   UNL d   1     -48.666  24.243  33.555  0.00  0.00    -0.644 OA
ENDBRANCH   5  10
ENDBRANCH   1   4
BRANCH   2  13
ATOM     13  C   UNL d   1     -51.299  26.945  33.360  0.00  0.00     0.095 A 
ATOM     14  C   UNL d   1     -51.972  27.413  33.335  0.00  0.00     0.075 A 
ATOM     15 CL   UNL d   1     -52.717  27.062  33.327  0.00  0.00    -0.081 Cl
ATOM     16  C   UNL d   1     -51.905  28.230  33.319  0.00  0.00     0.013 A 
ATOM     17  C   UNL d   1     -51.156  28.587  33.327  0.00  0.00     0.001 A 
ATOM     18  C   UNL d   1     -50.481  28.113  33.352  0.00  0.00     0.002 A 
ATOM     19  C   UNL d   1     -50.553  27.290  33.369  0.00  0.00     0.020 A 
ENDBRANCH   2  13
TORSDOF 3
ENDMDL
MODEL 2
REMARK VINA RESULT:      32.9      1.564      2.155
REMARK  3 active torsions:
REMARK  status: ('A' for Active; 'I' for Inactive)
REMARK       I    between atoms: N_2  and  C_1 
REMARK    1  A    between atoms: C_3  and  C_1 
REMARK    2  A    between atoms: C_6  and  N_2 
REMARK    3  A    between atoms: C_5  and  C_4 
ROOT
ATOM      1  C   UNL d   1     -51.086  25.630  33.571  0.00  0.00     0.279 C 
ATOM      2  N   UNL d   1     -50.373  25.960  33.307  0.00  0.00    -0.207 NA
ATOM      3  O   UNL d   1     -51.677  26.117  33.873  0.00  0.00    -0.265 OA
ENDROOT
BRANCH   1   4
ATOM      4  C   UNL d   1     -51.199  24.813  33.529  0.00  0.00     0.064 A 
ATOM      5  C   UNL d   1     -51.945  24.497  33.667  0.00  0.00     0.069 A 
ATOM      6  C   UNL d   1     -52.071  23.679  33.628  0.00  0.00     0.006 A 
ATOM      7  C   UNL d   1     -51.431  23.189  33.448  0.00  0.00     0.000 A 
ATOM      8  C   UNL d   1     -50.686  23.505  33.310  0.00  0.00     0.000 A 
ATOM      9  C   UNL d   1     -50.570  24.315  33.350  0.00  0.00     0.005 A 
BRANCH   5  10
ATOM     10  C   UNL d   1     -52.580  24.997  33.847  0.00  0.00     0.211 C 
ATOM     11  O   UNL d   1     -52.818  25.578  33.306  0.00  0.00    -0.644 OA
ATOM     12  O   UNL d   1     -52.975  24.914  34.568  0.00  0.00    -0.644 OA
ENDBRANCH   5  10
ENDBRANCH   1   4
BRANCH   2  13
ATOM     13  C   UNL d   1     -50.254  26.777  33.346  0.00  0.00     0.095 A 
ATOM     14  C   UNL d   1     -49.494  27.081  33.408  0.00  0.00     0.075 A 
ATOM     15 CL   UNL d   1     -48.848  26.570  33.431  0.00  0.00    -0.081 Cl
ATOM     16  C   UNL d   1     -49.377  27.891  33.447  0.00  0.00     0.013 A 
ATOM     17  C   UNL d   1     -50.026  28.408  33.424  0.00  0.00     0.001 A 
ATOM     18  C   UNL d   1     -50.789  28.099  33.362  0.00  0.00     0.002 A 
ATOM     19  C   UNL d   1     -50.902  27.281  33.323  0.00  0.00     0.020 A 
ENDBRANCH   2  13
TORSDOF 3
ENDMDL
