MODEL 1
REMARK VINA RESULT:      64.0      0.000      0.000
REMARK  6 active torsions:
REMARK  status: ('A' for Active; 'I' for Inactive)
REMARK    1  A    between atoms: N_7  and  C_1 
REMARK    2  A    between atoms: C_10  and  C_3 
REMARK    3  A    between atoms: C_17  and  C_5 
REMARK    4  A    between atoms: C_12  and  N_7 
REMARK    5  A    between atoms: C_8  and  C_9 
REMARK    6  A    between atoms: C_13  and  C_17 
ROOT
ATOM      1  C   UNL d   1      60.407  49.236  50.655  0.00  0.00     0.165 A 
ATOM      2  N   UNL d   1      59.691  49.307  50.236  0.00  0.00    -0.208 NA
ATOM      3  C   UNL d   1      58.990  49.499  50.635  0.00  0.00     0.164 A 
ATOM      4  N   UNL d   1      59.002  49.622  51.453  0.00  0.00    -0.227 NA
ATOM      5  C   UNL d   1      60.411  49.360  51.472  0.00  0.00     0.054 A 
ATOM      6  C   UNL d   1      59.713  49.551  51.859  0.00  0.00     0.086 A 
ATOM      7  C   UNL d   1      59.725  49.674  52.681  0.00  0.00     0.021 C 
ENDROOT
BRANCH   1   8
ATOM      8  N   UNL d   1      61.103  49.044  50.256  0.00  0.00    -0.227 NA
BRANCH   8   9
ATOM      9  C   UNL d   1      61.285  48.246  50.093  0.00  0.00     0.083 A 
ATOM     10  C   UNL d   1      61.606  48.045  49.376  0.00  0.00     0.019 A 
ATOM     11  C   UNL d   1      61.787  47.251  49.214  0.00  0.00     0.008 A 
ATOM     12  C   UNL d   1      61.639  46.673  49.786  0.00  0.00     0.065 A 
ATOM     13  C   UNL d   1      61.315  46.880  50.509  0.00  0.00     0.008 A 
ATOM     14  C   UNL d   1      61.135  47.670  50.670  0.00  0.00     0.019 A 
BRANCH  12  15
ATOM     15  C   UNL d   1      61.821  45.878  49.624  0.00  0.00     0.211 C 
ATOM     16  O   UNL d   1      62.418  45.497  50.046  0.00  0.00    -0.644 OA
ATOM     17  O   UNL d   1      61.407  45.470  49.045  0.00  0.00    -0.644 OA
ENDBRANCH  12  15
ENDBRANCH   8   9
ENDBRANCH   1   8
BRANCH   5  18
ATOM     18  C   UNL d   1      61.113  49.292  51.891  0.00  0.00     0.005 C 
BRANCH  18  19
ATOM     19  C   UNL d   1      61.143  49.433  52.695  0.00  0.00     0.000 C 
ATOM     20  C   UNL d   1      61.823  49.708  53.064  0.00  0.00     0.000 C 
ENDBRANCH  18  19
ENDBRANCH   5  18
BRANCH   3  21
ATOM     21  C   UNL d   1      58.283  49.568  50.217  0.00  0.00     0.036 A 
ATOM     22  C   UNL d   1      58.289  49.568  49.395  0.00  0.00     0.003 A 
ATOM     23  C   UNL d   1      57.585  49.637  48.972  0.00  0.00     0.000 A 
ATOM     24  C   UNL d   1      56.859  49.707  49.384  0.00  0.00     0.000 A 
ATOM     25  C   UNL d   1      56.854  49.708  50.206  0.00  0.00     0.000 A 
ATOM     26  C   UNL d   1      57.573  49.638  50.625  0.00  0.00     0.003 A 
ENDBRANCH   3  21
TORSDOF 6
ENDMDL
