MODEL 1
REMARK VINA RESULT:      -8.3      0.000      0.000
REMARK  3 active torsions:
REMARK  status: ('A' for Active; 'I' for Inactive)
REMARK    1  A    between atoms: N_3  and  C_1 
REMARK       I    between atoms: C_5  and  N_3 
REMARK    2  A    between atoms: C_10  and  C_4 
REMARK       I    between atoms: N_8  and  C_5 
REMARK    3  A    between atoms: C_11  and  N_8 
ROOT
ATOM      1  C   UNL d   1      52.181  33.734  52.845  0.00  0.00     0.199 A 
ATOM      2  N   UNL d   1      51.420  33.892  53.125  0.00  0.00    -0.221 NA
ATOM      3  C   UNL d   1      50.986  34.286  52.503  0.00  0.00     0.090 A 
ATOM      4  S   UNL d   1      52.262  34.006  52.071  0.00  0.00    -0.046 SA
ATOM      5  C   UNL d   1      51.512  34.357  51.844  0.00  0.00     0.058 A 
ENDROOT
BRANCH   1   6
ATOM      6  N   UNL d   1      52.789  33.348  53.289  0.00  0.00    -0.166 NA
ATOM      7  C   UNL d   1      52.935  32.531  53.145  0.00  0.00     0.370 C 
ATOM      8  N   UNL d   1      53.542  32.146  53.588  0.00  0.00    -0.191 NA
ATOM      9  O   UNL d   1      52.511  32.111  52.595  0.00  0.00    -0.242 OA
BRANCH   8  10
ATOM     10  C   UNL d   1      53.968  32.571  54.141  0.00  0.00     0.086 A 
ATOM     11  C   UNL d   1      53.747  32.625  54.928  0.00  0.00     0.019 A 
ATOM     12  C   UNL d   1      54.190  33.061  55.475  0.00  0.00     0.002 A 
ATOM     13  C   UNL d   1      54.871  33.451  55.223  0.00  0.00     0.000 A 
ATOM     14  C   UNL d   1      55.106  33.407  54.438  0.00  0.00     0.002 A 
ATOM     15  C   UNL d   1      54.647  32.965  53.910  0.00  0.00     0.019 A 
ENDBRANCH   8  10
ENDBRANCH   1   6
BRANCH   3  16
ATOM     16  C   UNL d   1      50.203  34.543  52.549  0.00  0.00     0.018 A 
ATOM     17  C   UNL d   1      49.666  34.409  51.915  0.00  0.00     0.002 A 
ATOM     18  C   UNL d   1      48.901  34.659  51.957  0.00  0.00     0.000 A 
ATOM     19  C   UNL d   1      48.626  35.063  52.646  0.00  0.00     0.000 A 
ATOM     20  C   UNL d   1      49.155  35.193  53.268  0.00  0.00     0.000 A 
ATOM     21  C   UNL d   1      49.935  34.933  53.213  0.00  0.00     0.002 A 
ENDBRANCH   3  16
TORSDOF 3
ENDMDL
MODEL 2
REMARK VINA RESULT:      -8.3      2.407      3.538
REMARK  3 active torsions:
REMARK  status: ('A' for Active; 'I' for Inactive)
REMARK    1  A    between atoms: N_3  and  C_1 
REMARK       I    between atoms: C_5  and  N_3 
REMARK    2  A    between atoms: C_10  and  C_4 
REMARK       I    between atoms: N_8  and  C_5 
REMARK    3  A    between atoms: C_11  and  N_8 
ROOT
ATOM      1  C   UNL d   1      53.656  31.959  53.718  0.00  0.00     0.199 A 
ATOM      2  N   UNL d   1      53.203  32.578  54.021  0.00  0.00    -0.221 NA
ATOM      3  C   UNL d   1      53.617  33.310  53.867  0.00  0.00     0.090 A 
ATOM      4  S   UNL d   1      54.347  32.251  53.374  0.00  0.00    -0.046 SA
ATOM      5  C   UNL d   1      54.332  33.105  53.463  0.00  0.00     0.058 A 
ENDROOT
BRANCH   1   6
ATOM      6  N   UNL d   1      53.443  31.141  53.755  0.00  0.00    -0.166 NA
ATOM      7  C   UNL d   1      53.006  30.810  53.116  0.00  0.00     0.370 C 
ATOM      8  N   UNL d   1      52.793  29.993  53.153  0.00  0.00    -0.191 NA
ATOM      9  O   UNL d   1      52.787  31.253  52.473  0.00  0.00    -0.242 OA
BRANCH   8  10
ATOM     10  C   UNL d   1      53.016  29.548  53.802  0.00  0.00     0.086 A 
ATOM     11  C   UNL d   1      52.614  29.571  54.516  0.00  0.00     0.019 A 
ATOM     12  C   UNL d   1      52.853  29.114  55.164  0.00  0.00     0.002 A 
ATOM     13  C   UNL d   1      53.512  28.624  55.090  0.00  0.00     0.000 A 
ATOM     14  C   UNL d   1      53.924  28.590  54.382  0.00  0.00     0.002 A 
ATOM     15  C   UNL d   1      53.667  29.056  53.749  0.00  0.00     0.019 A 
ENDBRANCH   8  10
ENDBRANCH   1   6
BRANCH   3  16
ATOM     16  C   UNL d   1      53.359  34.065  54.078  0.00  0.00     0.018 A 
ATOM     17  C   UNL d   1      52.943  34.548  53.530  0.00  0.00     0.002 A 
ATOM     18  C   UNL d   1      52.690  35.286  53.733  0.00  0.00     0.000 A 
ATOM     19  C   UNL d   1      52.842  35.585  54.508  0.00  0.00     0.000 A 
ATOM     20  C   UNL d   1      53.251  35.109  55.046  0.00  0.00     0.000 A 
ATOM     21  C   UNL d   1      53.505  34.357  54.826  0.00  0.00     0.002 A 
ENDBRANCH   3  16
TORSDOF 3
ENDMDL
MODEL 3
REMARK VINA RESULT:      -7.9      1.520      2.104
REMARK  3 active torsions:
REMARK  status: ('A' for Active; 'I' for Inactive)
REMARK    1  A    between atoms: N_3  and  C_1 
REMARK       I    between atoms: C_5  and  N_3 
REMARK    2  A    between atoms: C_10  and  C_4 
REMARK       I    between atoms: N_8  and  C_5 
REMARK    3  A    between atoms: C_11  and  N_8 
ROOT
ATOM      1  C   UNL d   1      52.248  33.021  53.306  0.00  0.00     0.199 A 
ATOM      2  N   UNL d   1      51.531  33.105  52.906  0.00  0.00    -0.221 NA
ATOM      3  C   UNL d   1      51.270  33.914  52.997  0.00  0.00     0.090 A 
ATOM      4  S   UNL d   1      52.466  33.737  53.654  0.00  0.00    -0.046 SA
ATOM      5  C   UNL d   1      51.854  34.308  53.464  0.00  0.00     0.058 A 
ENDROOT
BRANCH   1   6
ATOM      6  N   UNL d   1      52.694  32.304  53.354  0.00  0.00    -0.166 NA
ATOM      7  C   UNL d   1      53.534  32.350  53.321  0.00  0.00     0.370 C 
ATOM      8  N   UNL d   1      53.980  31.634  53.368  0.00  0.00    -0.191 NA
ATOM      9  O   UNL d   1      53.920  33.060  53.246  0.00  0.00    -0.242 OA
BRANCH   8  10
ATOM     10  C   UNL d   1      53.588  30.921  53.444  0.00  0.00     0.086 A 
ATOM     11  C   UNL d   1      53.234  30.538  52.811  0.00  0.00     0.019 A 
ATOM     12  C   UNL d   1      52.841  29.815  52.906  0.00  0.00     0.002 A 
ATOM     13  C   UNL d   1      52.803  29.472  53.654  0.00  0.00     0.000 A 
ATOM     14  C   UNL d   1      53.153  29.842  54.297  0.00  0.00     0.002 A 
ATOM     15  C   UNL d   1      53.540  30.564  54.178  0.00  0.00     0.019 A 
ENDBRANCH   8  10
ENDBRANCH   1   6
BRANCH   3  16
ATOM     16  C   UNL d   1      50.578  34.236  52.683  0.00  0.00     0.018 A 
ATOM     17  C   UNL d   1      50.402  34.169  51.863  0.00  0.00     0.002 A 
ATOM     18  C   UNL d   1      49.727  34.483  51.554  0.00  0.00     0.000 A 
ATOM     19  C   UNL d   1      49.182  34.887  52.057  0.00  0.00     0.000 A 
ATOM     20  C   UNL d   1      49.355  34.952  52.863  0.00  0.00     0.000 A 
ATOM     21  C   UNL d   1      50.049  34.627  53.166  0.00  0.00     0.002 A 
ENDBRANCH   3  16
TORSDOF 3
ENDMDL
MODEL 4
REMARK VINA RESULT:      -7.9      1.934      4.768
REMARK  3 active torsions:
REMARK  status: ('A' for Active; 'I' for Inactive)
REMARK    1  A    between atoms: N_3  and  C_1 
REMARK       I    between atoms: C_5  and  N_3 
REMARK    2  A    between atoms: C_10  and  C_4 
REMARK       I    between atoms: N_8  and  C_5 
REMARK    3  A    between atoms: C_11  and  N_8 
ROOT
ATOM      1  C   UNL d   1      52.984  32.454  53.387  0.00  0.00     0.199 A 
ATOM      2  N   UNL d   1      52.698  31.704  53.578  0.00  0.00    -0.221 NA
ATOM      3  C   UNL d   1      53.369  31.189  53.703  0.00  0.00     0.090 A 
ATOM      4  S   UNL d   1      53.809  32.453  53.382  0.00  0.00    -0.046 SA
ATOM      5  C   UNL d   1      54.063  31.657  53.580  0.00  0.00     0.058 A 
ENDROOT
BRANCH   1   6
ATOM      6  N   UNL d   1      52.500  33.128  53.221  0.00  0.00    -0.166 NA
ATOM      7  C   UNL d   1      52.718  33.871  53.554  0.00  0.00     0.370 C 
ATOM      8  N   UNL d   1      52.235  34.544  53.389  0.00  0.00    -0.191 NA
ATOM      9  O   UNL d   1      53.373  33.953  54.026  0.00  0.00    -0.242 OA
BRANCH   8  10
ATOM     10  C   UNL d   1      51.575  34.458  52.913  0.00  0.00     0.086 A 
ATOM     11  C   UNL d   1      51.619  34.393  52.098  0.00  0.00     0.019 A 
ATOM     12  C   UNL d   1      50.940  34.306  51.631  0.00  0.00     0.002 A 
ATOM     13  C   UNL d   1      50.201  34.285  51.996  0.00  0.00     0.000 A 
ATOM     14  C   UNL d   1      50.140  34.350  52.811  0.00  0.00     0.002 A 
ATOM     15  C   UNL d   1      50.832  34.435  53.256  0.00  0.00     0.019 A 
ENDBRANCH   8  10
ENDBRANCH   1   6
BRANCH   3  16
ATOM     16  C   UNL d   1      53.333  30.389  53.904  0.00  0.00     0.018 A 
ATOM     17  C   UNL d   1      53.394  30.142  54.706  0.00  0.00     0.002 A 
ATOM     18  C   UNL d   1      53.359  29.361  54.905  0.00  0.00     0.000 A 
ATOM     19  C   UNL d   1      53.259  28.777  54.304  0.00  0.00     0.000 A 
ATOM     20  C   UNL d   1      53.199  29.021  53.516  0.00  0.00     0.000 A 
ATOM     21  C   UNL d   1      53.236  29.822  53.325  0.00  0.00     0.002 A 
ENDBRANCH   3  16
TORSDOF 3
ENDMDL
MODEL 5
REMARK VINA RESULT:      -7.4      2.466      4.636
REMARK  3 active torsions:
REMARK  status: ('A' for Active; 'I' for Inactive)
REMARK    1  A    between atoms: N_3  and  C_1 
REMARK       I    between atoms: C_5  and  N_3 
REMARK    2  A    between atoms: C_10  and  C_4 
REMARK       I    between atoms: N_8  and  C_5 
REMARK    3  A    between atoms: C_11  and  N_8 
ROOT
ATOM      1  C   UNL d   1      53.228  31.779  53.565  0.00  0.00     0.199 A 
ATOM      2  N   UNL d   1      53.425  31.213  54.132  0.00  0.00    -0.221 NA
ATOM      3  C   UNL d   1      53.198  30.446  53.833  0.00  0.00     0.090 A 
ATOM      4  S   UNL d   1      52.882  31.416  52.909  0.00  0.00    -0.046 SA
ATOM      5  C   UNL d   1      52.858  30.573  53.068  0.00  0.00     0.058 A 
ENDROOT
BRANCH   1   6
ATOM      6  N   UNL d   1      53.360  32.610  53.644  0.00  0.00    -0.166 NA
ATOM      7  C   UNL d   1      54.130  32.912  53.481  0.00  0.00     0.370 C 
ATOM      8  N   UNL d   1      54.262  33.743  53.560  0.00  0.00    -0.191 NA
ATOM      9  O   UNL d   1      54.739  32.427  53.253  0.00  0.00    -0.242 OA
BRANCH   8  10
ATOM     10  C   UNL d   1      53.646  34.228  53.790  0.00  0.00     0.086 A 
ATOM     11  C   UNL d   1      53.093  34.525  53.264  0.00  0.00     0.019 A 
ATOM     12  C   UNL d   1      52.474  35.016  53.514  0.00  0.00     0.002 A 
ATOM     13  C   UNL d   1      52.413  35.211  54.313  0.00  0.00     0.000 A 
ATOM     14  C   UNL d   1      52.959  34.921  54.852  0.00  0.00     0.002 A 
ATOM     15  C   UNL d   1      53.568  34.433  54.578  0.00  0.00     0.019 A 
ENDBRANCH   8  10
ENDBRANCH   1   6
BRANCH   3  16
ATOM     16  C   UNL d   1      53.296  29.726  54.224  0.00  0.00     0.018 A 
ATOM     17  C   UNL d   1      53.062  29.635  55.027  0.00  0.00     0.002 A 
ATOM     18  C   UNL d   1      53.157  28.933  55.412  0.00  0.00     0.000 A 
ATOM     19  C   UNL d   1      53.496  28.273  55.008  0.00  0.00     0.000 A 
ATOM     20  C   UNL d   1      53.725  28.364  54.218  0.00  0.00     0.000 A 
ATOM     21  C   UNL d   1      53.623  29.086  53.836  0.00  0.00     0.002 A 
ENDBRANCH   3  16
TORSDOF 3
ENDMDL
