MODEL 1
REMARK VINA RESULT:      73.2      0.000      0.000
REMARK  3 active torsions:
REMARK  status: ('A' for Active; 'I' for Inactive)
REMARK    1  A    between atoms: N_9  and  C_2 
REMARK    2  A    between atoms: C_15  and  C_7 
REMARK    3  A    between atoms: C_11  and  C_14 
ROOT
ATOM      1  C   UNL d   1      13.757  14.582  -3.911  0.00  0.00     0.152 A 
ATOM      2  C   UNL d   1      14.068  15.297  -3.625  0.00  0.00     0.174 A 
ATOM      3  C   UNL d   1      13.466  14.535  -4.688  0.00  0.00     0.111 A 
ATOM      4  N   UNL d   1      14.085  15.966  -4.127  0.00  0.00    -0.207 NA
ATOM      5  N   UNL d   1      13.483  15.193  -5.182  0.00  0.00    -0.225 NA
ATOM      6  O   UNL d   1      13.740  13.916  -3.413  0.00  0.00    -0.302 OA
ATOM      7  C   UNL d   1      13.791  15.911  -4.907  0.00  0.00     0.164 A 
ATOM      8  C   UNL d   1      13.140  13.151  -4.468  0.00  0.00     0.043 A 
ATOM      9  C   UNL d   1      13.430  13.198  -3.690  0.00  0.00     0.102 A 
ATOM     10  C   UNL d   1      12.833  12.436  -4.743  0.00  0.00     0.004 A 
ATOM     11  C   UNL d   1      13.415  12.545  -3.198  0.00  0.00     0.025 A 
ATOM     12  C   UNL d   1      12.816  11.779  -4.249  0.00  0.00     0.000 A 
ATOM     13  C   UNL d   1      13.109  11.834  -3.473  0.00  0.00     0.002 A 
ENDROOT
BRANCH   2  14
ATOM     14  N   UNL d   1      14.358  15.351  -2.857  0.00  0.00    -0.287 N 
ATOM     15  C   UNL d   1      14.369  14.686  -2.383  0.00  0.00     0.082 A 
ATOM     16  C   UNL d   1      14.659  14.743  -1.616  0.00  0.00     0.025 A 
ATOM     17  C   UNL d   1      14.935  15.466  -1.330  0.00  0.00     0.067 A 
ATOM     18  C   UNL d   1      14.919  16.128  -1.811  0.00  0.00     0.025 A 
ATOM     19  C   UNL d   1      14.630  16.074  -2.579  0.00  0.00     0.082 A 
BRANCH  17  20
ATOM     20  C   UNL d   1      15.233  15.522  -0.538  0.00  0.00     0.211 C 
ATOM     21  O   UNL d   1      15.605  16.235  -0.275  0.00  0.00    -0.644 OA
ATOM     22  O   UNL d   1      15.158  14.864  -0.014  0.00  0.00    -0.644 OA
ENDBRANCH  17  20
ENDBRANCH   2  14
BRANCH   7  23
ATOM     23  C   UNL d   1      13.806  16.564  -5.400  0.00  0.00     0.036 A 
ATOM     24  C   UNL d   1      13.167  16.736  -5.872  0.00  0.00     0.003 A 
ATOM     25  C   UNL d   1      13.180  17.397  -6.373  0.00  0.00     0.000 A 
ATOM     26  C   UNL d   1      13.844  17.879  -6.389  0.00  0.00     0.000 A 
ATOM     27  C   UNL d   1      14.498  17.704  -5.906  0.00  0.00     0.000 A 
ATOM     28  C   UNL d   1      14.475  17.053  -5.418  0.00  0.00     0.003 A 
ENDBRANCH   7  23
TORSDOF 3
ENDMDL
