MODEL 1
REMARK VINA RESULT:      -7.9      0.000      0.000
REMARK  5 active torsions:
REMARK  status: ('A' for Active; 'I' for Inactive)
REMARK    1  A    between atoms: S_3  and  N_1 
REMARK    2  A    between atoms: C_7  and  C_4 
REMARK    3  A    between atoms: C_8  and  C_5 
REMARK    4  A    between atoms: O_17  and  C_12 
REMARK    5  A    between atoms: C_20  and  O_17 
ROOT
ATOM      1  N   UNL d   1     -49.193  12.977  22.321  0.00  0.00    -0.155 N 
ATOM      2  N   UNL d   1     -49.735  13.611  22.320  0.00  0.00    -0.155 NA
ATOM      3  C   UNL d   1     -48.768  13.016  23.005  0.00  0.00     0.098 A 
ATOM      4  C   UNL d   1     -49.625  14.025  23.014  0.00  0.00     0.110 A 
ATOM      5  C   UNL d   1     -49.011  13.658  23.463  0.00  0.00     0.041 A 
ENDROOT
BRANCH   3   6
ATOM      6  C   UNL d   1     -48.171  12.489  23.224  0.00  0.00     0.041 A 
ATOM      7  C   UNL d   1     -47.394  12.737  23.259  0.00  0.00     0.102 A 
ATOM      8  C   UNL d   1     -46.798  12.211  23.478  0.00  0.00     0.025 A 
ATOM      9  C   UNL d   1     -46.979  11.436  23.662  0.00  0.00     0.002 A 
ATOM     10  C   UNL d   1     -47.762  11.181  23.629  0.00  0.00     0.000 A 
ATOM     11  C   UNL d   1     -48.359  11.708  23.410  0.00  0.00     0.004 A 
BRANCH   7  12
ATOM     12  O   UNL d   1     -47.203  13.522  23.073  0.00  0.00    -0.305 OA
BRANCH  12  13
ATOM     13  C   UNL d   1     -46.417  13.749  23.006  0.00  0.00     0.123 C 
ATOM     14  C   UNL d   1     -46.221  14.551  22.937  0.00  0.00     0.029 C 
ENDBRANCH  12  13
ENDBRANCH   7  12
ENDBRANCH   3   6
BRANCH   1  15
ATOM     15  S   UNL d   1     -49.122  12.432  21.731  0.00  0.00     0.266 S 
ATOM     16  O   UNL d   1     -49.627  11.907  22.145  0.00  0.00    -0.203 OA
ATOM     17  O   UNL d   1     -48.627  12.914  21.299  0.00  0.00    -0.203 OA
ATOM     18  C   UNL d   1     -49.061  11.844  21.124  0.00  0.00     0.165 C 
ENDBRANCH   1  15
BRANCH   4  19
ATOM     19  C   UNL d   1     -50.035  14.701  23.265  0.00  0.00     0.049 A 
ATOM     20  S   UNL d   1     -50.851  14.731  23.318  0.00  0.00    -0.085 SA
ATOM     21  C   UNL d   1     -51.043  15.489  23.585  0.00  0.00     0.035 A 
ATOM     22  C   UNL d   1     -50.344  15.922  23.696  0.00  0.00     0.007 A 
ATOM     23  C   UNL d   1     -49.711  15.422  23.492  0.00  0.00     0.009 A 
ENDBRANCH   4  19
TORSDOF 5
ENDMDL
MODEL 2
REMARK VINA RESULT:      -7.4      1.705      3.741
REMARK  5 active torsions:
REMARK  status: ('A' for Active; 'I' for Inactive)
REMARK    1  A    between atoms: S_3  and  N_1 
REMARK    2  A    between atoms: C_7  and  C_4 
REMARK    3  A    between atoms: C_8  and  C_5 
REMARK    4  A    between atoms: O_17  and  C_12 
REMARK    5  A    between atoms: C_20  and  O_17 
ROOT
ATOM      1  N   UNL d   1     -48.625  14.447  22.757  0.00  0.00    -0.155 N 
ATOM      2  N   UNL d   1     -47.816  14.398  22.956  0.00  0.00    -0.155 NA
ATOM      3  C   UNL d   1     -48.818  13.782  22.342  0.00  0.00     0.098 A 
ATOM      4  C   UNL d   1     -47.534  13.696  22.653  0.00  0.00     0.110 A 
ATOM      5  C   UNL d   1     -48.161  13.290  22.257  0.00  0.00     0.041 A 
ENDROOT
BRANCH   3   6
ATOM      6  C   UNL d   1     -49.568  13.612  22.040  0.00  0.00     0.041 A 
ATOM      7  C   UNL d   1     -49.991  12.974  22.325  0.00  0.00     0.102 A 
ATOM      8  C   UNL d   1     -50.740  12.804  22.023  0.00  0.00     0.025 A 
ATOM      9  C   UNL d   1     -51.064  13.272  21.438  0.00  0.00     0.002 A 
ATOM     10  C   UNL d   1     -50.640  13.916  21.148  0.00  0.00     0.000 A 
ATOM     11  C   UNL d   1     -49.892  14.087  21.449  0.00  0.00     0.004 A 
BRANCH   7  12
ATOM     12  O   UNL d   1     -49.668  12.496  22.919  0.00  0.00    -0.305 OA
BRANCH  12  13
ATOM     13  C   UNL d   1     -50.039  11.795  23.130  0.00  0.00     0.123 C 
ATOM     14  C   UNL d   1     -49.696  11.298  23.698  0.00  0.00     0.029 C 
ENDBRANCH  12  13
ENDBRANCH   7  12
ENDBRANCH   3   6
BRANCH   1  15
ATOM     15  S   UNL d   1     -49.111  15.059  22.955  0.00  0.00     0.266 S 
ATOM     16  O   UNL d   1     -49.276  14.699  23.694  0.00  0.00    -0.203 OA
ATOM     17  O   UNL d   1     -48.976  15.439  22.247  0.00  0.00    -0.203 OA
ATOM     18  C   UNL d   1     -49.627  15.691  23.183  0.00  0.00     0.165 C 
ENDBRANCH   1  15
BRANCH   4  19
ATOM     19  C   UNL d   1     -46.761  13.400  22.708  0.00  0.00     0.049 A 
ATOM     20  S   UNL d   1     -46.100  13.853  22.538  0.00  0.00    -0.085 SA
ATOM     21  C   UNL d   1     -45.443  13.366  22.658  0.00  0.00     0.035 A 
ATOM     22  C   UNL d   1     -45.702  12.616  22.900  0.00  0.00     0.007 A 
ATOM     23  C   UNL d   1     -46.533  12.643  22.930  0.00  0.00     0.009 A 
ENDBRANCH   4  19
TORSDOF 5
ENDMDL
MODEL 3
REMARK VINA RESULT:      -7.1      1.147      3.312
REMARK  5 active torsions:
REMARK  status: ('A' for Active; 'I' for Inactive)
REMARK    1  A    between atoms: S_3  and  N_1 
REMARK    2  A    between atoms: C_7  and  C_4 
REMARK    3  A    between atoms: C_8  and  C_5 
REMARK    4  A    between atoms: O_17  and  C_12 
REMARK    5  A    between atoms: C_20  and  O_17 
ROOT
ATOM      1  N   UNL d   1     -49.261  12.576  22.424  0.00  0.00    -0.155 N 
ATOM      2  N   UNL d   1     -48.585  12.085  22.430  0.00  0.00    -0.155 NA
ATOM      3  C   UNL d   1     -49.167  13.132  23.001  0.00  0.00     0.098 A 
ATOM      4  C   UNL d   1     -48.092  12.360  23.018  0.00  0.00     0.110 A 
ATOM      5  C   UNL d   1     -48.448  13.028  23.393  0.00  0.00     0.041 A 
ENDROOT
BRANCH   3   6
ATOM      6  C   UNL d   1     -49.712  13.727  23.180  0.00  0.00     0.041 A 
ATOM      7  C   UNL d   1     -49.527  14.510  23.041  0.00  0.00     0.102 A 
ATOM      8  C   UNL d   1     -50.071  15.104  23.220  0.00  0.00     0.025 A 
ATOM      9  C   UNL d   1     -50.799  14.914  23.537  0.00  0.00     0.002 A 
ATOM     10  C   UNL d   1     -50.989  14.125  23.679  0.00  0.00     0.000 A 
ATOM     11  C   UNL d   1     -50.446  13.531  23.500  0.00  0.00     0.004 A 
BRANCH   7  12
ATOM     12  O   UNL d   1     -48.790  14.710  22.719  0.00  0.00    -0.305 OA
BRANCH  12  13
ATOM     13  C   UNL d   1     -48.589  15.498  22.611  0.00  0.00     0.123 C 
ATOM     14  C   UNL d   1     -47.901  15.697  22.194  0.00  0.00     0.029 C 
ENDBRANCH  12  13
ENDBRANCH   7  12
ENDBRANCH   3   6
BRANCH   1  15
ATOM     15  S   UNL d   1     -49.886  12.491  21.922  0.00  0.00     0.266 S 
ATOM     16  O   UNL d   1     -49.467  12.896  21.320  0.00  0.00    -0.203 OA
ATOM     17  O   UNL d   1     -50.325  12.094  22.482  0.00  0.00    -0.203 OA
ATOM     18  C   UNL d   1     -50.531  12.414  21.378  0.00  0.00     0.165 C 
ENDBRANCH   1  15
BRANCH   4  19
ATOM     19  C   UNL d   1     -47.353  12.053  23.236  0.00  0.00     0.049 A 
ATOM     20  S   UNL d   1     -47.259  11.304  23.551  0.00  0.00    -0.085 SA
ATOM     21  C   UNL d   1     -46.451  11.207  23.693  0.00  0.00     0.035 A 
ATOM     22  C   UNL d   1     -46.051  11.896  23.465  0.00  0.00     0.007 A 
ATOM     23  C   UNL d   1     -46.623  12.427  23.177  0.00  0.00     0.009 A 
ENDBRANCH   4  19
TORSDOF 5
ENDMDL
MODEL 4
REMARK VINA RESULT:      -6.3      1.449      3.877
REMARK  5 active torsions:
REMARK  status: ('A' for Active; 'I' for Inactive)
REMARK    1  A    between atoms: S_3  and  N_1 
REMARK    2  A    between atoms: C_7  and  C_4 
REMARK    3  A    between atoms: C_8  and  C_5 
REMARK    4  A    between atoms: O_17  and  C_12 
REMARK    5  A    between atoms: C_20  and  O_17 
ROOT
ATOM      1  N   UNL d   1     -48.269  14.281  22.683  0.00  0.00    -0.155 N 
ATOM      2  N   UNL d   1     -47.710  13.663  22.732  0.00  0.00    -0.155 NA
ATOM      3  C   UNL d   1     -48.923  14.055  23.099  0.00  0.00     0.098 A 
ATOM      4  C   UNL d   1     -48.042  13.070  23.181  0.00  0.00     0.110 A 
ATOM      5  C   UNL d   1     -48.817  13.303  23.424  0.00  0.00     0.041 A 
ENDROOT
BRANCH   3   6
ATOM      6  C   UNL d   1     -49.608  14.508  23.190  0.00  0.00     0.041 A 
ATOM      7  C   UNL d   1     -50.318  14.247  22.884  0.00  0.00     0.102 A 
ATOM      8  C   UNL d   1     -51.002  14.699  22.975  0.00  0.00     0.025 A 
ATOM      9  C   UNL d   1     -50.975  15.412  23.373  0.00  0.00     0.002 A 
ATOM     10  C   UNL d   1     -50.259  15.679  23.683  0.00  0.00     0.000 A 
ATOM     11  C   UNL d   1     -49.576  15.227  23.592  0.00  0.00     0.004 A 
BRANCH   7  12
ATOM     12  O   UNL d   1     -50.353  13.524  22.480  0.00  0.00    -0.305 OA
BRANCH  12  13
ATOM     13  C   UNL d   1     -51.048  13.294  22.108  0.00  0.00     0.123 C 
ATOM     14  C   UNL d   1     -51.050  12.639  21.601  0.00  0.00     0.029 C 
ENDBRANCH  12  13
ENDBRANCH   7  12
ENDBRANCH   3   6
BRANCH   1  15
ATOM     15  S   UNL d   1     -48.157  14.974  22.286  0.00  0.00     0.266 S 
ATOM     16  O   UNL d   1     -47.873  15.337  22.986  0.00  0.00    -0.203 OA
ATOM     17  O   UNL d   1     -48.428  14.656  21.587  0.00  0.00    -0.203 OA
ATOM     18  C   UNL d   1     -48.031  15.712  21.890  0.00  0.00     0.165 C 
ENDBRANCH   1  15
BRANCH   4  19
ATOM     19  C   UNL d   1     -47.699  12.343  23.384  0.00  0.00     0.049 A 
ATOM     20  S   UNL d   1     -46.893  12.248  23.494  0.00  0.00    -0.085 SA
ATOM     21  C   UNL d   1     -46.773  11.454  23.688  0.00  0.00     0.035 A 
ATOM     22  C   UNL d   1     -47.504  11.063  23.696  0.00  0.00     0.007 A 
ATOM     23  C   UNL d   1     -48.085  11.628  23.504  0.00  0.00     0.009 A 
ENDBRANCH   4  19
TORSDOF 5
ENDMDL
MODEL 5
REMARK VINA RESULT:      -6.1      9.449     10.826
REMARK  5 active torsions:
REMARK  status: ('A' for Active; 'I' for Inactive)
REMARK    1  A    between atoms: S_3  and  N_1 
REMARK    2  A    between atoms: C_7  and  C_4 
REMARK    3  A    between atoms: C_8  and  C_5 
REMARK    4  A    between atoms: O_17  and  C_12 
REMARK    5  A    between atoms: C_20  and  O_17 
ROOT
ATOM      1  N   UNL d   1     -40.176  15.002  18.122  0.00  0.00    -0.155 N 
ATOM      2  N   UNL d   1     -40.359  14.991  18.936  0.00  0.00    -0.155 NA
ATOM      3  C   UNL d   1     -39.384  14.865  18.045  0.00  0.00     0.098 A 
ATOM      4  C   UNL d   1     -39.665  14.846  19.338  0.00  0.00     0.110 A 
ATOM      5  C   UNL d   1     -39.033  14.763  18.785  0.00  0.00     0.041 A 
ENDROOT
BRANCH   3   6
ATOM      6  C   UNL d   1     -38.976  14.831  17.328  0.00  0.00     0.041 A 
ATOM      7  C   UNL d   1     -38.616  14.137  17.091  0.00  0.00     0.102 A 
ATOM      8  C   UNL d   1     -38.208  14.103  16.375  0.00  0.00     0.025 A 
ATOM      9  C   UNL d   1     -38.160  14.763  15.897  0.00  0.00     0.002 A 
ATOM     10  C   UNL d   1     -38.521  15.466  16.132  0.00  0.00     0.000 A 
ATOM     11  C   UNL d   1     -38.929  15.500  16.848  0.00  0.00     0.004 A 
BRANCH   7  12
ATOM     12  O   UNL d   1     -38.662  13.464  17.572  0.00  0.00    -0.305 OA
BRANCH  12  13
ATOM     13  C   UNL d   1     -38.255  12.782  17.364  0.00  0.00     0.123 C 
ATOM     14  C   UNL d   1     -38.303  12.107  17.843  0.00  0.00     0.029 C 
ENDBRANCH  12  13
ENDBRANCH   7  12
ENDBRANCH   3   6
BRANCH   1  15
ATOM     15  S   UNL d   1     -40.710  15.128  17.531  0.00  0.00     0.266 S 
ATOM     16  O   UNL d   1     -40.929  14.320  17.546  0.00  0.00    -0.203 OA
ATOM     17  O   UNL d   1     -40.524  15.920  17.487  0.00  0.00    -0.203 OA
ATOM     18  C   UNL d   1     -41.277  15.238  16.912  0.00  0.00     0.165 C 
ENDBRANCH   1  15
BRANCH   4  19
ATOM     19  C   UNL d   1     -39.566  14.784  20.159  0.00  0.00     0.049 A 
ATOM     20  S   UNL d   1     -39.149  15.334  20.599  0.00  0.00    -0.085 SA
ATOM     21  C   UNL d   1     -39.176  15.080  21.384  0.00  0.00     0.035 A 
ATOM     22  C   UNL d   1     -39.609  14.374  21.425  0.00  0.00     0.007 A 
ATOM     23  C   UNL d   1     -39.854  14.191  20.651  0.00  0.00     0.009 A 
ENDBRANCH   4  19
TORSDOF 5
ENDMDL
MODEL 6
REMARK VINA RESULT:      -6.0      8.957     10.693
REMARK  5 active torsions:
REMARK  status: ('A' for Active; 'I' for Inactive)
REMARK    1  A    between atoms: S_3  and  N_1 
REMARK    2  A    between atoms: C_7  and  C_4 
REMARK    3  A    between atoms: C_8  and  C_5 
REMARK    4  A    between atoms: O_17  and  C_12 
REMARK    5  A    between atoms: C_20  and  O_17 
ROOT
ATOM      1  N   UNL d   1     -39.256  14.178  18.488  0.00  0.00    -0.155 N 
ATOM      2  N   UNL d   1     -39.585  14.184  19.255  0.00  0.00    -0.155 NA
ATOM      3  C   UNL d   1     -39.282  14.932  18.202  0.00  0.00     0.098 A 
ATOM      4  C   UNL d   1     -39.806  14.951  19.417  0.00  0.00     0.110 A 
ATOM      5  C   UNL d   1     -39.620  15.443  18.756  0.00  0.00     0.041 A 
ENDROOT
BRANCH   3   6
ATOM      6  C   UNL d   1     -39.010  15.168  17.458  0.00  0.00     0.041 A 
ATOM      7  C   UNL d   1     -39.529  15.474  16.908  0.00  0.00     0.102 A 
ATOM      8  C   UNL d   1     -39.258  15.710  16.165  0.00  0.00     0.025 A 
ATOM      9  C   UNL d   1     -38.467  15.638  15.974  0.00  0.00     0.002 A 
ATOM     10  C   UNL d   1     -37.940  15.329  16.527  0.00  0.00     0.000 A 
ATOM     11  C   UNL d   1     -38.211  15.094  17.269  0.00  0.00     0.004 A 
BRANCH   7  12
ATOM     12  O   UNL d   1     -40.333  15.550  17.096  0.00  0.00    -0.305 OA
BRANCH  12  13
ATOM     13  C   UNL d   1     -40.848  15.906  16.565  0.00  0.00     0.123 C 
ATOM     14  C   UNL d   1     -41.661  15.922  16.722  0.00  0.00     0.029 C 
ENDBRANCH  12  13
ENDBRANCH   7  12
ENDBRANCH   3   6
BRANCH   1  15
ATOM     15  S   UNL d   1     -38.967  13.523  18.116  0.00  0.00     0.266 S 
ATOM     16  O   UNL d   1     -39.739  13.322  17.858  0.00  0.00    -0.203 OA
ATOM     17  O   UNL d   1     -38.204  13.686  18.348  0.00  0.00    -0.203 OA
ATOM     18  C   UNL d   1     -38.687  12.830  17.718  0.00  0.00     0.165 C 
ENDBRANCH   1  15
BRANCH   4  19
ATOM     19  C   UNL d   1     -40.160  15.234  20.112  0.00  0.00     0.049 A 
ATOM     20  S   UNL d   1     -39.745  15.647  20.685  0.00  0.00    -0.085 SA
ATOM     21  C   UNL d   1     -40.285  15.830  21.282  0.00  0.00     0.035 A 
ATOM     22  C   UNL d   1     -41.030  15.530  21.075  0.00  0.00     0.007 A 
ATOM     23  C   UNL d   1     -40.946  15.155  20.337  0.00  0.00     0.009 A 
ENDBRANCH   4  19
TORSDOF 5
ENDMDL
MODEL 7
REMARK VINA RESULT:      -5.1      9.074     10.909
REMARK  5 active torsions:
REMARK  status: ('A' for Active; 'I' for Inactive)
REMARK    1  A    between atoms: S_3  and  N_1 
REMARK    2  A    between atoms: C_7  and  C_4 
REMARK    3  A    between atoms: C_8  and  C_5 
REMARK    4  A    between atoms: O_17  and  C_12 
REMARK    5  A    between atoms: C_20  and  O_17 
ROOT
ATOM      1  N   UNL d   1     -38.521  14.801  19.581  0.00  0.00    -0.155 N 
ATOM      2  N   UNL d   1     -38.044  14.417  19.013  0.00  0.00    -0.155 NA
ATOM      3  C   UNL d   1     -39.291  14.630  19.412  0.00  0.00     0.098 A 
ATOM      4  C   UNL d   1     -38.543  14.018  18.508  0.00  0.00     0.110 A 
ATOM      5  C   UNL d   1     -39.343  14.143  18.747  0.00  0.00     0.041 A 
ENDROOT
BRANCH   3   6
ATOM      6  C   UNL d   1     -39.943  14.902  19.840  0.00  0.00     0.041 A 
ATOM      7  C   UNL d   1     -40.537  15.320  19.466  0.00  0.00     0.102 A 
ATOM      8  C   UNL d   1     -41.187  15.591  19.894  0.00  0.00     0.025 A 
ATOM      9  C   UNL d   1     -41.244  15.445  20.696  0.00  0.00     0.002 A 
ATOM     10  C   UNL d   1     -40.646  15.024  21.077  0.00  0.00     0.000 A 
ATOM     11  C   UNL d   1     -39.996  14.752  20.649  0.00  0.00     0.004 A 
BRANCH   7  12
ATOM     12  O   UNL d   1     -40.486  15.471  18.653  0.00  0.00    -0.305 OA
BRANCH  12  13
ATOM     13  C   UNL d   1     -41.097  15.862  18.269  0.00  0.00     0.123 C 
ATOM     14  C   UNL d   1     -41.096  15.922  17.442  0.00  0.00     0.029 C 
ENDBRANCH  12  13
ENDBRANCH   7  12
ENDBRANCH   3   6
BRANCH   1  15
ATOM     15  S   UNL d   1     -38.242  15.258  20.184  0.00  0.00     0.266 S 
ATOM     16  O   UNL d   1     -38.256  14.597  20.700  0.00  0.00    -0.203 OA
ATOM     17  O   UNL d   1     -38.214  15.922  19.713  0.00  0.00    -0.203 OA
ATOM     18  C   UNL d   1     -37.949  15.718  20.832  0.00  0.00     0.165 C 
ENDBRANCH   1  15
BRANCH   4  19
ATOM     19  C   UNL d   1     -38.328  13.555  17.854  0.00  0.00     0.049 A 
ATOM     20  S   UNL d   1     -38.320  12.737  17.873  0.00  0.00    -0.085 SA
ATOM     21  C   UNL d   1     -38.079  12.485  17.124  0.00  0.00     0.035 A 
ATOM     22  C   UNL d   1     -37.940  13.149  16.647  0.00  0.00     0.007 A 
ATOM     23  C   UNL d   1     -38.098  13.821  17.111  0.00  0.00     0.009 A 
ENDBRANCH   4  19
TORSDOF 5
ENDMDL
MODEL 8
REMARK VINA RESULT:      -4.9      8.342     10.232
REMARK  5 active torsions:
REMARK  status: ('A' for Active; 'I' for Inactive)
REMARK    1  A    between atoms: S_3  and  N_1 
REMARK    2  A    between atoms: C_7  and  C_4 
REMARK    3  A    between atoms: C_8  and  C_5 
REMARK    4  A    between atoms: O_17  and  C_12 
REMARK    5  A    between atoms: C_20  and  O_17 
ROOT
ATOM      1  N   UNL d   1     -39.098  14.620  19.035  0.00  0.00    -0.155 N 
ATOM      2  N   UNL d   1     -39.404  14.598  18.259  0.00  0.00    -0.155 NA
ATOM      3  C   UNL d   1     -39.457  15.229  19.425  0.00  0.00     0.098 A 
ATOM      4  C   UNL d   1     -39.948  15.201  18.196  0.00  0.00     0.110 A 
ATOM      5  C   UNL d   1     -39.995  15.615  18.931  0.00  0.00     0.041 A 
ENDROOT
BRANCH   3   6
ATOM      6  C   UNL d   1     -39.311  15.443  20.209  0.00  0.00     0.041 A 
ATOM      7  C   UNL d   1     -39.905  15.394  20.767  0.00  0.00     0.102 A 
ATOM      8  C   UNL d   1     -39.760  15.608  21.550  0.00  0.00     0.025 A 
ATOM      9  C   UNL d   1     -39.019  15.869  21.775  0.00  0.00     0.002 A 
ATOM     10  C   UNL d   1     -38.416  15.920  21.215  0.00  0.00     0.000 A 
ATOM     11  C   UNL d   1     -38.562  15.706  20.432  0.00  0.00     0.004 A 
BRANCH   7  12
ATOM     12  O   UNL d   1     -40.659  15.130  20.545  0.00  0.00    -0.305 OA
BRANCH  12  13
ATOM     13  C   UNL d   1     -41.288  15.197  21.067  0.00  0.00     0.123 C 
ATOM     14  C   UNL d   1     -41.903  14.642  21.050  0.00  0.00     0.029 C 
ENDBRANCH  12  13
ENDBRANCH   7  12
ENDBRANCH   3   6
BRANCH   1  15
ATOM     15  S   UNL d   1     -38.541  14.114  19.325  0.00  0.00     0.266 S 
ATOM     16  O   UNL d   1     -37.940  14.677  19.173  0.00  0.00    -0.203 OA
ATOM     17  O   UNL d   1     -39.098  13.542  19.488  0.00  0.00    -0.203 OA
ATOM     18  C   UNL d   1     -37.940  13.599  19.626  0.00  0.00     0.165 C 
ENDBRANCH   1  15
BRANCH   4  19
ATOM     19  C   UNL d   1     -40.400  15.401  17.529  0.00  0.00     0.049 A 
ATOM     20  S   UNL d   1     -40.097  15.827  16.900  0.00  0.00    -0.085 SA
ATOM     21  C   UNL d   1     -40.711  15.911  16.354  0.00  0.00     0.035 A 
ATOM     22  C   UNL d   1     -41.389  15.537  16.649  0.00  0.00     0.007 A 
ATOM     23  C   UNL d   1     -41.189  15.217  17.390  0.00  0.00     0.009 A 
ENDBRANCH   4  19
TORSDOF 5
ENDMDL
