MODEL 1
REMARK VINA RESULT:      56.9      0.000      0.000
REMARK  5 active torsions:
REMARK  status: ('A' for Active; 'I' for Inactive)
REMARK    1  A    between atoms: S_2  and  N_1 
REMARK    2  A    between atoms: C_10  and  S_2 
REMARK    3  A    between atoms: N_7  and  C_3 
REMARK    4  A    between atoms: C_12  and  C_6 
REMARK    5  A    between atoms: C_13  and  N_7 
ROOT
ATOM      1  N   UNL d   1      45.914 -17.073  43.055  0.00  0.00    -0.176 N 
ATOM      2  C   UNL d   1      45.985 -17.839  43.344  0.00  0.00     0.191 A 
ATOM      3  C   UNL d   1      45.978 -17.085  42.241  0.00  0.00     0.281 A 
ATOM      4  S   UNL d   1      46.095 -18.328  42.689  0.00  0.00    -0.044 SA
ATOM      5  C   UNL d   1      46.087 -17.835  42.010  0.00  0.00     0.089 A 
ATOM      6  O   UNL d   1      45.939 -16.432  41.705  0.00  0.00    -0.265 OA
ENDROOT
BRANCH   1   7
ATOM      7  S   UNL d   1      45.797 -16.394  43.502  0.00  0.00     0.275 S 
ATOM      8  O   UNL d   1      44.969 -16.434  43.416  0.00  0.00    -0.199 OA
ATOM      9  O   UNL d   1      46.619 -16.317  43.615  0.00  0.00    -0.199 OA
BRANCH   7  10
ATOM     10  C   UNL d   1      45.688 -15.719  43.949  0.00  0.00     0.104 A 
ATOM     11  C   UNL d   1      44.939 -15.549  44.265  0.00  0.00     0.013 A 
ATOM     12  C   UNL d   1      44.803 -14.867  44.723  0.00  0.00     0.001 A 
ATOM     13  C   UNL d   1      45.447 -14.327  44.873  0.00  0.00     0.000 A 
ATOM     14  C   UNL d   1      46.159 -14.524  44.550  0.00  0.00     0.001 A 
ATOM     15  C   UNL d   1      46.290 -15.186  44.106  0.00  0.00     0.013 A 
ENDBRANCH   7  10
ENDBRANCH   1   7
BRANCH   2  16
ATOM     16  N   UNL d   1      45.942 -17.985  44.139  0.00  0.00    -0.222 NA
BRANCH  16  17
ATOM     17  C   UNL d   1      45.931 -18.771  44.413  0.00  0.00     0.084 A 
ATOM     18  C   UNL d   1      46.637 -19.179  44.507  0.00  0.00     0.019 A 
ATOM     19  C   UNL d   1      46.640 -19.959  44.777  0.00  0.00     0.002 A 
ATOM     20  C   UNL d   1      45.904 -20.330  44.955  0.00  0.00     0.000 A 
ATOM     21  C   UNL d   1      45.198 -19.921  44.861  0.00  0.00     0.002 A 
ATOM     22  C   UNL d   1      45.217 -19.138  44.588  0.00  0.00     0.019 A 
ENDBRANCH  16  17
ENDBRANCH   2  16
BRANCH   5  23
ATOM     23  C   UNL d   1      46.173 -18.049  41.223  0.00  0.00     0.011 A 
ATOM     24  C   UNL d   1      46.544 -18.742  41.030  0.00  0.00     0.001 A 
ATOM     25  C   UNL d   1      46.634 -18.962  40.238  0.00  0.00     0.000 A 
ATOM     26  C   UNL d   1      46.351 -18.487  39.635  0.00  0.00     0.000 A 
ATOM     27  C   UNL d   1      45.970 -17.774  39.837  0.00  0.00     0.000 A 
ATOM     28  C   UNL d   1      45.877 -17.549  40.630  0.00  0.00     0.001 A 
ENDBRANCH   5  23
TORSDOF 5
ENDMDL
