MODEL 1
REMARK VINA RESULT:      67.0      0.000      0.000
REMARK  5 active torsions:
REMARK  status: ('A' for Active; 'I' for Inactive)
REMARK    1  A    between atoms: S_2  and  C_1 
REMARK    2  A    between atoms: N_3  and  C_1 
REMARK    3  A    between atoms: C_4  and  C_1 
REMARK    4  A    between atoms: C_6  and  S_2 
REMARK       I    between atoms: C_5  and  N_3 
REMARK    5  A    between atoms: C_9  and  C_5 
ROOT
ATOM      1  C   UNL d   1     -48.154  29.736  35.121  0.00  0.00     0.193 C 
ENDROOT
BRANCH   1   2
ATOM      2  S   UNL d   1     -48.051  30.502  34.834  0.00  0.00     0.228 S 
ATOM      3  O   UNL d   1     -47.296  30.524  35.165  0.00  0.00    -0.216 OA
ATOM      4  O   UNL d   1     -48.812  30.486  34.497  0.00  0.00    -0.216 OA
BRANCH   2   5
ATOM      5  C   UNL d   1     -47.941  31.303  34.534  0.00  0.00     0.089 A 
ATOM      6  C   UNL d   1     -48.467  31.603  33.974  0.00  0.00     0.011 A 
ATOM      7  C   UNL d   1     -48.361  32.369  33.687  0.00  0.00     0.001 A 
ATOM      8  C   UNL d   1     -47.731  32.835  33.961  0.00  0.00     0.000 A 
ATOM      9  C   UNL d   1     -47.202  32.537  34.522  0.00  0.00     0.001 A 
ATOM     10  C   UNL d   1     -47.632  33.610  33.665  0.00  0.00     0.000 C 
ATOM     11  C   UNL d   1     -47.308  31.771  34.808  0.00  0.00     0.011 A 
ENDBRANCH   2   5
ENDBRANCH   1   2
BRANCH   1  12
ATOM     12  N   UNL d   1     -48.706  29.248  34.797  0.00  0.00    -0.195 NA
ATOM     13  C   UNL d   1     -48.511  28.473  34.592  0.00  0.00     0.280 C 
ATOM     14  O   UNL d   1     -47.771  28.201  34.715  0.00  0.00    -0.265 OA
BRANCH  13  15
ATOM     15  C   UNL d   1     -49.106  28.015  34.265  0.00  0.00     0.058 A 
ATOM     16  C   UNL d   1     -49.244  27.286  34.585  0.00  0.00     0.005 A 
ATOM     17  C   UNL d   1     -49.827  26.813  34.279  0.00  0.00     0.000 A 
ATOM     18  C   UNL d   1     -50.288  27.060  33.643  0.00  0.00     0.000 A 
ATOM     19  C   UNL d   1     -50.153  27.794  33.317  0.00  0.00     0.000 A 
ATOM     20  C   UNL d   1     -50.910  26.571  33.308  0.00  0.00     0.000 C 
ATOM     21  C   UNL d   1     -49.555  28.276  33.633  0.00  0.00     0.005 A 
ENDBRANCH  13  15
ENDBRANCH   1  12
BRANCH   1  22
ATOM     22  C   UNL d   1     -47.700  29.452  35.741  0.00  0.00     0.144 C 
ATOM     23 CL   UNL d   1     -46.977  29.264  35.558  0.00  0.00    -0.068 Cl
ATOM     24 CL   UNL d   1     -48.035  29.377  36.543  0.00  0.00    -0.068 Cl
ENDBRANCH   1  22
TORSDOF 5
ENDMDL
MODEL 2
REMARK VINA RESULT:      67.5      0.596      4.381
REMARK  5 active torsions:
REMARK  status: ('A' for Active; 'I' for Inactive)
REMARK    1  A    between atoms: S_2  and  C_1 
REMARK    2  A    between atoms: N_3  and  C_1 
REMARK    3  A    between atoms: C_4  and  C_1 
REMARK    4  A    between atoms: C_6  and  S_2 
REMARK       I    between atoms: C_5  and  N_3 
REMARK    5  A    between atoms: C_9  and  C_5 
ROOT
ATOM      1  C   UNL d   1     -48.170  29.413  34.942  0.00  0.00     0.193 C 
ENDROOT
BRANCH   1   2
ATOM      2  S   UNL d   1     -48.625  28.806  34.619  0.00  0.00     0.228 S 
ATOM      3  O   UNL d   1     -48.013  28.272  34.762  0.00  0.00    -0.216 OA
ATOM      4  O   UNL d   1     -49.246  29.340  34.472  0.00  0.00    -0.216 OA
BRANCH   2   5
ATOM      5  C   UNL d   1     -49.100  28.170  34.282  0.00  0.00     0.089 A 
ATOM      6  C   UNL d   1     -49.689  28.349  33.734  0.00  0.00     0.011 A 
ATOM      7  C   UNL d   1     -50.143  27.739  33.412  0.00  0.00     0.001 A 
ATOM      8  C   UNL d   1     -50.007  26.952  33.639  0.00  0.00     0.000 A 
ATOM      9  C   UNL d   1     -49.417  26.770  34.188  0.00  0.00     0.001 A 
ATOM     10  C   UNL d   1     -50.472  26.342  33.308  0.00  0.00     0.000 C 
ATOM     11  C   UNL d   1     -48.964  27.379  34.510  0.00  0.00     0.011 A 
ENDBRANCH   2   5
ENDBRANCH   1   2
BRANCH   1  12
ATOM     12  N   UNL d   1     -48.140  30.135  34.586  0.00  0.00    -0.195 NA
ATOM     13  C   UNL d   1     -47.846  30.790  34.993  0.00  0.00     0.280 C 
ATOM     14  O   UNL d   1     -47.588  30.711  35.744  0.00  0.00    -0.265 OA
BRANCH  13  15
ATOM     15  C   UNL d   1     -47.836  31.503  34.590  0.00  0.00     0.058 A 
ATOM     16  C   UNL d   1     -47.140  31.911  34.557  0.00  0.00     0.005 A 
ATOM     17  C   UNL d   1     -47.104  32.619  34.165  0.00  0.00     0.000 A 
ATOM     18  C   UNL d   1     -47.766  32.937  33.794  0.00  0.00     0.000 A 
ATOM     19  C   UNL d   1     -48.471  32.530  33.824  0.00  0.00     0.000 A 
ATOM     20  C   UNL d   1     -47.745  33.686  33.374  0.00  0.00     0.000 C 
ATOM     21  C   UNL d   1     -48.504  31.804  34.228  0.00  0.00     0.005 A 
ENDBRANCH  13  15
ENDBRANCH   1  12
BRANCH   1  22
ATOM     22  C   UNL d   1     -47.738  29.299  35.627  0.00  0.00     0.144 C 
ATOM     23 CL   UNL d   1     -48.142  29.348  36.281  0.00  0.00    -0.068 Cl
ATOM     24 CL   UNL d   1     -46.881  29.135  35.596  0.00  0.00    -0.068 Cl
ENDBRANCH   1  22
TORSDOF 5
ENDMDL
