MODEL 1
REMARK VINA RESULT:      40.7      0.000      0.000
REMARK  5 active torsions:
REMARK  status: ('A' for Active; 'I' for Inactive)
REMARK    1  A    between atoms: C_9  and  C_1 
REMARK    2  A    between atoms: N_4  and  C_2 
REMARK    3  A    between atoms: C_8  and  C_3 
REMARK       I    between atoms: C_7  and  N_4 
REMARK    4  A    between atoms: C_10  and  C_7 
REMARK    5  A    between atoms: O_18  and  C_9 
ROOT
ATOM      1  C   UNL d   1     -57.526 -98.827 -44.149  0.00  0.00     0.088 A 
ATOM      2  C   UNL d   1     -56.708 -98.825 -44.145  0.00  0.00     0.119 A 
ATOM      3  C   UNL d   1     -57.754 -98.783 -44.952  0.00  0.00     0.020 A 
ATOM      4  S   UNL d   1     -56.401 -98.783 -44.864  0.00  0.00    -0.067 SA
ATOM      5  C   UNL d   1     -57.055 -98.755 -45.408  0.00  0.00     0.038 A 
ENDROOT
BRANCH   2   6
ATOM      6  N   UNL d   1     -56.197 -98.862 -43.439  0.00  0.00    -0.201 NA
ATOM      7  C   UNL d   1     -55.463 -99.292 -43.482  0.00  0.00     0.281 C 
ATOM      8  O   UNL d   1     -54.989 -99.317 -42.796  0.00  0.00    -0.265 OA
BRANCH   7   9
ATOM      9  C   UNL d   1     -55.221 -99.666 -44.147  0.00  0.00     0.077 A 
ATOM     10  C   UNL d   1     -55.074-100.461 -44.122  0.00  0.00     0.104 A 
ATOM     11  N   UNL d   1     -54.824-100.874 -44.788  0.00  0.00    -0.242 NA
ATOM     12  C   UNL d   1     -54.717-100.467 -45.512  0.00  0.00     0.099 A 
ATOM     13  C   UNL d   1     -54.870 -99.645 -45.533  0.00  0.00     0.021 A 
ATOM     14  C   UNL d   1     -55.118 -99.252 -44.863  0.00  0.00     0.008 A 
ENDBRANCH   7   9
ENDBRANCH   2   6
BRANCH   1  15
ATOM     15  C   UNL d   1     -58.042 -98.865 -43.492  0.00  0.00     0.298 C 
ATOM     16  O   UNL d   1     -57.739 -98.758 -42.714  0.00  0.00    -0.259 OA
BRANCH  15  17
ATOM     17  O   UNL d   1     -58.845 -99.009 -43.619  0.00  0.00    -0.296 OA
ATOM     18  C   UNL d   1     -59.311 -99.349 -43.006  0.00  0.00     0.185 C 
ENDBRANCH  15  17
ENDBRANCH   1  15
BRANCH   3  19
ATOM     19  C   UNL d   1     -58.553 -98.773 -45.169  0.00  0.00     0.030 A 
ATOM     20  S   UNL d   1     -59.332 -98.765 -44.950  0.00  0.00    -0.086 SA
ATOM     21  C   UNL d   1     -59.764 -98.759 -45.640  0.00  0.00     0.035 A 
ATOM     22  C   UNL d   1     -59.270 -98.763 -46.275  0.00  0.00     0.007 A 
ATOM     23  C   UNL d   1     -58.501 -98.772 -45.978  0.00  0.00     0.007 A 
ENDBRANCH   3  19
TORSDOF 5
ENDMDL
