MODEL 1
REMARK VINA RESULT:      88.2      0.000      0.000
REMARK  6 active torsions:
REMARK  status: ('A' for Active; 'I' for Inactive)
REMARK    1  A    between atoms: N_7  and  C_1 
REMARK    2  A    between atoms: C_6  and  C_4 
REMARK    3  A    between atoms: C_19  and  N_9 
REMARK    4  A    between atoms: C_21  and  C_13 
REMARK    5  A    between atoms: O_20  and  C_21 
REMARK    6  A    between atoms: C_22  and  O_20 
ROOT
ATOM      1  C   UNL d   1      44.694 -17.401  39.515  0.00  0.00     0.198 A 
ATOM      2  C   UNL d   1      44.251 -17.581  40.231  0.00  0.00     0.191 A 
ATOM      3  O   UNL d   1      45.368 -17.888  39.527  0.00  0.00    -0.268 OA
ATOM      4  C   UNL d   1      45.339 -18.333  40.199  0.00  0.00     0.208 A 
ATOM      5  N   UNL d   1      44.684 -18.158  40.618  0.00  0.00    -0.206 NA
ATOM      6  C   UNL d   1      43.540 -17.224  40.447  0.00  0.00     0.124 C 
ATOM      7  N   UNL d   1      42.820 -16.882  40.692  0.00  0.00    -0.190 NA
ENDROOT
BRANCH   1   8
ATOM      8  N   UNL d   1      44.414 -16.841  38.995  0.00  0.00    -0.280 N 
ATOM      9  C   UNL d   1      44.922 -16.360  38.566  0.00  0.00     0.101 A 
ATOM     10  C   UNL d   1      44.642 -15.801  38.046  0.00  0.00     0.100 A 
ATOM     11  N   UNL d   1      43.824 -15.719  37.951  0.00  0.00    -0.301 N 
ATOM     12  C   UNL d   1      43.293 -16.198  38.378  0.00  0.00     0.100 A 
ATOM     13  C   UNL d   1      43.596 -16.759  38.900  0.00  0.00     0.101 A 
BRANCH  11  14
ATOM     14  C   UNL d   1      43.521 -15.157  37.429  0.00  0.00     0.064 A 
ATOM     15  C   UNL d   1      44.021 -14.711  36.926  0.00  0.00     0.018 A 
ATOM     16  C   UNL d   1      43.718 -14.150  36.405  0.00  0.00     0.002 A 
ATOM     17  C   UNL d   1      42.898 -14.028  36.379  0.00  0.00     0.000 A 
ATOM     18  C   UNL d   1      42.395 -14.459  36.867  0.00  0.00     0.002 A 
ATOM     19  C   UNL d   1      42.701 -15.035  37.403  0.00  0.00     0.018 A 
ENDBRANCH  11  14
ENDBRANCH   1   8
BRANCH   4  20
ATOM     20  C   UNL d   1      45.557 -18.880  40.764  0.00  0.00     0.141 A 
ATOM     21  O   UNL d   1      45.395 -19.345  41.448  0.00  0.00    -0.301 OA
ATOM     22  C   UNL d   1      46.067 -19.793  41.624  0.00  0.00     0.125 A 
ATOM     23  C   UNL d   1      46.642 -19.634  41.086  0.00  0.00     0.029 A 
ATOM     24  C   UNL d   1      46.308 -19.063  40.557  0.00  0.00     0.030 A 
BRANCH  22  25
ATOM     25  C   UNL d   1      46.172 -20.330  42.242  0.00  0.00     0.147 C 
BRANCH  25  26
ATOM     26  O   UNL d   1      45.755 -20.266  42.955  0.00  0.00    -0.303 OA
BRANCH  26  27
ATOM     27  C   UNL d   1      46.049 -19.862  43.598  0.00  0.00     0.100 A 
ATOM     28  C   UNL d   1      46.192 -19.055  43.594  0.00  0.00     0.025 A 
ATOM     29  C   UNL d   1      46.489 -18.666  44.253  0.00  0.00     0.002 A 
ATOM     30  C   UNL d   1      46.640 -17.848  44.265  0.00  0.00     0.000 C 
ATOM     31  C   UNL d   1      46.645 -19.097  44.931  0.00  0.00     0.000 A 
ATOM     32  C   UNL d   1      46.502 -19.933  44.950  0.00  0.00     0.002 A 
ATOM     33  C   UNL d   1      46.207 -20.309  44.291  0.00  0.00     0.025 A 
ENDBRANCH  26  27
ENDBRANCH  25  26
ENDBRANCH  22  25
ENDBRANCH   4  20
TORSDOF 6
ENDMDL
