MODEL 1
REMARK VINA RESULT:      12.2      0.000      0.000
REMARK  1 active torsions:
REMARK  status: ('A' for Active; 'I' for Inactive)
REMARK    1  A    between atoms: O_8  and  C_4 
ROOT
ATOM      1  C   UNL d   1     -58.315 -98.757 -44.716  0.00  0.00     0.021 A 
ATOM      2  C   UNL d   1     -59.046 -98.757 -44.332  0.00  0.00     0.024 A 
ATOM      3  C   UNL d   1     -57.611 -98.758 -44.286  0.00  0.00     0.103 A 
ATOM      4  C   UNL d   1     -59.078 -98.758 -43.514  0.00  0.00     0.094 A 
ATOM      5  C   UNL d   1     -57.640 -98.758 -43.460  0.00  0.00     0.023 A 
ATOM      6  C   UNL d   1     -58.370 -98.758 -43.076  0.00  0.00     0.026 A 
ATOM      7  N   UNL d   1     -56.883 -98.758 -44.683  0.00  0.00    -0.148 N 
ATOM      8  C   UNL d   1     -58.284 -98.757 -45.538  0.00  0.00     0.002 A 
ATOM      9  C   UNL d   1     -59.740 -98.756 -44.772  0.00  0.00     0.002 A 
ATOM     10  C   UNL d   1     -58.981 -98.756 -45.982  0.00  0.00     0.000 A 
ATOM     11  C   UNL d   1     -59.711 -98.756 -45.597  0.00  0.00     0.000 A 
ENDROOT
BRANCH   4  12
ATOM     12  O   UNL d   1     -59.812 -98.758 -43.128  0.00  0.00    -0.328 OA
ATOM     13  C   UNL d   1     -59.845 -98.755 -42.309  0.00  0.00     0.181 C 
ENDBRANCH   4  12
TORSDOF 1
ENDMDL
MODEL 2
REMARK VINA RESULT:      12.6      1.370      2.063
REMARK  1 active torsions:
REMARK  status: ('A' for Active; 'I' for Inactive)
REMARK    1  A    between atoms: O_8  and  C_4 
ROOT
ATOM      1  C   UNL d   1     -59.039 -98.755 -44.164  0.00  0.00     0.021 A 
ATOM      2  C   UNL d   1     -58.383 -98.755 -44.665  0.00  0.00     0.024 A 
ATOM      3  C   UNL d   1     -58.944 -98.756 -43.344  0.00  0.00     0.103 A 
ATOM      4  C   UNL d   1     -57.627 -98.755 -44.351  0.00  0.00     0.094 A 
ATOM      5  C   UNL d   1     -58.183 -98.756 -43.023  0.00  0.00     0.023 A 
ATOM      6  C   UNL d   1     -57.527 -98.756 -43.525  0.00  0.00     0.026 A 
ATOM      7  N   UNL d   1     -59.610 -98.756 -42.850  0.00  0.00    -0.148 N 
ATOM      8  C   UNL d   1     -59.798 -98.755 -44.481  0.00  0.00     0.002 A 
ATOM      9  C   UNL d   1     -58.491 -98.755 -45.481  0.00  0.00     0.002 A 
ATOM     10  C   UNL d   1     -59.907 -98.755 -45.300  0.00  0.00     0.000 A 
ATOM     11  C   UNL d   1     -59.252 -98.755 -45.801  0.00  0.00     0.000 A 
ENDROOT
BRANCH   4  12
ATOM     12  O   UNL d   1     -56.968 -98.755 -44.855  0.00  0.00    -0.328 OA
ATOM     13  C   UNL d   1     -56.211 -98.758 -44.541  0.00  0.00     0.181 C 
ENDBRANCH   4  12
TORSDOF 1
ENDMDL
