MODEL 1
REMARK VINA RESULT:      62.2      0.000      0.000
REMARK  4 active torsions:
REMARK  status: ('A' for Active; 'I' for Inactive)
REMARK    1  A    between atoms: C_8  and  N_1 
REMARK    2  A    between atoms: C_11  and  C_13 
REMARK       I    between atoms: N_14  and  C_11 
REMARK    3  A    between atoms: C_18  and  N_14 
REMARK    4  A    between atoms: C_20  and  C_18 
ROOT
ATOM      1  C   UNL d   1      14.971  12.978  -1.293  0.00  0.00     0.066 A 
ATOM      2  C   UNL d   1      15.151  13.777  -1.199  0.00  0.00     0.022 A 
ATOM      3  C   UNL d   1      15.616  14.017  -0.556  0.00  0.00     0.059 A 
ATOM      4  C   UNL d   1      15.251  12.415  -0.752  0.00  0.00     0.017 A 
ATOM      5  C   UNL d   1      15.895  13.453  -0.015  0.00  0.00     0.005 A 
ATOM      6  C   UNL d   1      15.711  12.658  -0.116  0.00  0.00     0.002 A 
ENDROOT
BRANCH   1   7
ATOM      7  N   UNL d   1      14.511  12.735  -1.929  0.00  0.00    -0.261 N 
ATOM      8  C   UNL d   1      14.770  13.045  -2.645  0.00  0.00     0.174 A 
ATOM      9  O   UNL d   1      14.518  12.982  -3.433  0.00  0.00    -0.316 OA
ATOM     10  C   UNL d   1      13.812  12.284  -2.382  0.00  0.00     0.079 A 
ATOM     11  C   UNL d   1      15.416  13.543  -2.729  0.00  0.00     0.055 C 
ATOM     12  C   UNL d   1      13.910  12.589  -3.824  0.00  0.00     0.094 A 
ATOM     13  C   UNL d   1      13.994  12.781  -4.627  0.00  0.00     0.024 A 
ATOM     14  C   UNL d   1      13.295  12.090  -3.591  0.00  0.00     0.022 A 
ATOM     15  C   UNL d   1      13.469  12.477  -5.183  0.00  0.00     0.002 A 
ATOM     16  C   UNL d   1      12.856  11.978  -4.943  0.00  0.00    -0.000 A 
ATOM     17  C   UNL d   1      12.769  11.785  -4.147  0.00  0.00    -0.001 A 
ATOM     18  C   UNL d   1      13.035  11.780  -2.875  0.00  0.00     0.137 A 
ATOM     19  N   UNL d   1      13.282  11.838  -2.081  0.00  0.00    -0.216 NA
ATOM     20  C   UNL d   1      13.890  12.231  -1.690  0.00  0.00     0.348 A 
ATOM     21  O   UNL d   1      13.887  12.098  -0.882  0.00  0.00    -0.245 OA
ENDBRANCH   1   7
BRANCH   3  22
ATOM     22  C   UNL d   1      15.796  14.816  -0.462  0.00  0.00     0.279 C 
ATOM     23  N   UNL d   1      15.318  15.388  -0.808  0.00  0.00    -0.206 NA
ATOM     24  O   UNL d   1      16.458  15.037  -0.018  0.00  0.00    -0.265 OA
BRANCH  23  25
ATOM     25  C   UNL d   1      15.500  16.190  -0.713  0.00  0.00     0.102 C 
BRANCH  25  26
ATOM     26  C   UNL d   1      15.313  16.725  -1.310  0.00  0.00     0.019 A 
ATOM     27  C   UNL d   1      15.188  17.522  -1.134  0.00  0.00     0.002 A 
ATOM     28  C   UNL d   1      15.001  18.050  -1.738  0.00  0.00     0.000 A 
ATOM     29  C   UNL d   1      14.937  17.794  -2.518  0.00  0.00     0.000 A 
ATOM     30  C   UNL d   1      15.063  16.992  -2.692  0.00  0.00     0.000 A 
ATOM     31  C   UNL d   1      15.250  16.461  -2.093  0.00  0.00     0.002 A 
ENDBRANCH  25  26
ENDBRANCH  23  25
ENDBRANCH   3  22
TORSDOF 4
ENDMDL
