MODEL 1
REMARK VINA RESULT:      38.0      0.000      0.000
REMARK  6 active torsions:
REMARK  status: ('A' for Active; 'I' for Inactive)
REMARK    1  A    between atoms: N_2  and  S_1 
REMARK    2  A    between atoms: C_3  and  S_1 
REMARK    3  A    between atoms: C_9  and  N_2 
REMARK    4  A    between atoms: C_13  and  C_9 
REMARK    5  A    between atoms: O_14  and  C_10 
REMARK    6  A    between atoms: C_17  and  O_14 
ROOT
ATOM      1  S   UNL d   1     -51.125  26.298  33.498  0.00  0.00     0.285 S 
ATOM      2  O   UNL d   1     -51.639  26.930  33.376  0.00  0.00    -0.198 OA
ATOM      3  O   UNL d   1     -50.611  25.665  33.621  0.00  0.00    -0.198 OA
ENDROOT
BRANCH   1   4
ATOM      4  N   UNL d   1     -51.730  25.769  33.312  0.00  0.00    -0.157 NA
BRANCH   4   5
ATOM      5  C   UNL d   1     -51.698  24.988  33.585  0.00  0.00     0.112 C 
BRANCH   5   6
ATOM      6  C   UNL d   1     -52.356  24.497  33.510  0.00  0.00     0.023 A 
ATOM      7  C   UNL d   1     -53.114  24.825  33.411  0.00  0.00     0.022 A 
ATOM      8  C   UNL d   1     -53.772  24.334  33.335  0.00  0.00     0.099 A 
ATOM      9  N   UNL d   1     -53.681  23.521  33.358  0.00  0.00    -0.242 NA
ATOM     10  C   UNL d   1     -52.931  23.191  33.456  0.00  0.00     0.099 A 
ATOM     11  C   UNL d   1     -52.265  23.684  33.532  0.00  0.00     0.022 A 
ENDBRANCH   5   6
ENDBRANCH   4   5
ENDBRANCH   1   4
BRANCH   1  12
ATOM     12  C   UNL d   1     -50.519  26.826  33.684  0.00  0.00     0.105 A 
ATOM     13  C   UNL d   1     -49.732  26.591  33.612  0.00  0.00     0.015 A 
ATOM     14  C   UNL d   1     -49.127  27.119  33.798  0.00  0.00     0.025 A 
ATOM     15  C   UNL d   1     -49.309  27.883  34.057  0.00  0.00     0.100 A 
ATOM     16  C   UNL d   1     -50.096  28.118  34.130  0.00  0.00     0.025 A 
ATOM     17  C   UNL d   1     -50.701  27.590  33.944  0.00  0.00     0.015 A 
BRANCH  15  18
ATOM     18  O   UNL d   1     -48.703  28.411  34.243  0.00  0.00    -0.305 OA
BRANCH  18  19
ATOM     19  C   UNL d   1     -48.227  28.275  34.903  0.00  0.00     0.123 C 
ATOM     20  C   UNL d   1     -47.667  28.840  35.134  0.00  0.00     0.029 C 
ENDBRANCH  18  19
ENDBRANCH  15  18
ENDBRANCH   1  12
TORSDOF 6
ENDMDL
