MODEL 1
REMARK VINA RESULT:      -7.3      0.000      0.000
REMARK  5 active torsions:
REMARK  status: ('A' for Active; 'I' for Inactive)
REMARK    1  A    between atoms: N_6  and  C_1 
REMARK    2  A    between atoms: S_2  and  C_11 
REMARK    3  A    between atoms: N_8  and  S_2 
REMARK    4  A    between atoms: C_10  and  C_3 
REMARK       I    between atoms: C_9  and  N_6 
REMARK    5  A    between atoms: C_14  and  C_9 
REMARK       I    between atoms: N_22  and  C_10 
ROOT
ATOM      1  C   UNL d   1     -46.215  11.672  23.314  0.00  0.00     0.104 A 
ATOM      2  C   UNL d   1     -47.635  12.525  23.247  0.00  0.00     0.058 A 
ATOM      3  C   UNL d   1     -46.215  12.483  23.453  0.00  0.00     0.013 A 
ATOM      4  C   UNL d   1     -46.930  11.280  23.139  0.00  0.00     0.013 A 
ATOM      5  C   UNL d   1     -46.924  12.911  23.420  0.00  0.00     0.005 A 
ATOM      6  C   UNL d   1     -47.636  11.706  23.106  0.00  0.00     0.005 A 
ENDROOT
BRANCH   2   7
ATOM      7  C   UNL d   1     -48.341  12.951  23.214  0.00  0.00     0.280 C 
ATOM      8  N   UNL d   1     -48.340  13.603  22.507  0.00  0.00    -0.201 NA
ATOM      9  O   UNL d   1     -48.780  12.751  23.697  0.00  0.00    -0.265 OA
BRANCH   8  10
ATOM     10  C   UNL d   1     -48.985  13.961  22.511  0.00  0.00     0.119 A 
ATOM     11  C   UNL d   1     -49.673  14.054  22.166  0.00  0.00     0.082 A 
ATOM     12  C   UNL d   1     -50.079  14.605  22.562  0.00  0.00     0.013 A 
ATOM     13  C   UNL d   1     -50.799  14.915  22.458  0.00  0.00     0.001 A 
ATOM     14  C   UNL d   1     -49.624  14.851  23.162  0.00  0.00     0.031 A 
ATOM     15  C   UNL d   1     -51.062  15.469  22.954  0.00  0.00     0.001 A 
ATOM     16  C   UNL d   1     -50.611  15.714  23.550  0.00  0.00     0.006 A 
ATOM     17  S   UNL d   1     -48.948  14.453  23.130  0.00  0.00    -0.068 SA
BRANCH  11  18
ATOM     18  C   UNL d   1     -49.927  13.666  21.527  0.00  0.00     0.281 C 
ATOM     19  O   UNL d   1     -49.539  13.740  20.841  0.00  0.00    -0.265 OA
ATOM     20  N   UNL d   1     -50.568  13.204  21.571  0.00  0.00    -0.205 NA
ATOM     21  C   UNL d   1     -50.830  12.799  20.901  0.00  0.00     0.123 C 
ENDBRANCH  11  18
ENDBRANCH   8  10
ENDBRANCH   2   7
BRANCH   1  22
ATOM     22  S   UNL d   1     -45.506  11.244  23.347  0.00  0.00     0.272 S 
ATOM     23  O   UNL d   1     -45.914  10.592  23.644  0.00  0.00    -0.200 OA
ATOM     24  O   UNL d   1     -45.096  11.900  23.048  0.00  0.00    -0.200 OA
BRANCH  22  25
ATOM     25  N   UNL d   1     -44.800  10.819  23.379  0.00  0.00    -0.225 N 
ATOM     26  C   UNL d   1     -44.792  10.045  23.665  0.00  0.00     0.118 A 
ATOM     27  C   UNL d   1     -44.079   9.615  23.698  0.00  0.00     0.142 A 
ATOM     28  O   UNL d   1     -43.374   9.967  23.442  0.00  0.00    -0.300 OA
ATOM     29  C   UNL d   1     -43.385  10.733  23.160  0.00  0.00     0.142 A 
ATOM     30  C   UNL d   1     -44.091  11.159  23.127  0.00  0.00     0.118 A 
ENDBRANCH  22  25
ENDBRANCH   1  22
TORSDOF 5
ENDMDL
MODEL 2
REMARK VINA RESULT:      -6.4      1.551      1.810
REMARK  5 active torsions:
REMARK  status: ('A' for Active; 'I' for Inactive)
REMARK    1  A    between atoms: N_6  and  C_1 
REMARK    2  A    between atoms: S_2  and  C_11 
REMARK    3  A    between atoms: N_8  and  S_2 
REMARK    4  A    between atoms: C_10  and  C_3 
REMARK       I    between atoms: C_9  and  N_6 
REMARK    5  A    between atoms: C_14  and  C_9 
REMARK       I    between atoms: N_22  and  C_10 
ROOT
ATOM      1  C   UNL d   1     -45.441  13.197  22.294  0.00  0.00     0.104 A 
ATOM      2  C   UNL d   1     -46.966  13.654  22.754  0.00  0.00     0.058 A 
ATOM      3  C   UNL d   1     -45.578  13.963  22.559  0.00  0.00     0.013 A 
ATOM      4  C   UNL d   1     -46.069  12.650  22.257  0.00  0.00     0.013 A 
ATOM      5  C   UNL d   1     -46.340  14.193  22.790  0.00  0.00     0.005 A 
ATOM      6  C   UNL d   1     -46.828  12.879  22.486  0.00  0.00     0.005 A 
ENDROOT
BRANCH   2   7
ATOM      7  C   UNL d   1     -47.724  13.883  22.984  0.00  0.00     0.280 C 
ATOM      8  N   UNL d   1     -48.307  14.020  22.231  0.00  0.00    -0.201 NA
ATOM      9  O   UNL d   1     -47.781  13.928  23.663  0.00  0.00    -0.265 OA
BRANCH   8  10
ATOM     10  C   UNL d   1     -48.972  14.223  22.477  0.00  0.00     0.119 A 
ATOM     11  C   UNL d   1     -49.723  14.036  22.535  0.00  0.00     0.082 A 
ATOM     12  C   UNL d   1     -50.096  14.618  22.920  0.00  0.00     0.013 A 
ATOM     13  C   UNL d   1     -50.851  14.720  23.132  0.00  0.00     0.001 A 
ATOM     14  C   UNL d   1     -49.556  15.170  23.098  0.00  0.00     0.031 A 
ATOM     15  C   UNL d   1     -51.064  15.372  23.520  0.00  0.00     0.001 A 
ATOM     16  C   UNL d   1     -50.529  15.921  23.698  0.00  0.00     0.006 A 
ATOM     17  S   UNL d   1     -48.862  14.926  22.824  0.00  0.00    -0.068 SA
BRANCH  11  18
ATOM     18  C   UNL d   1     -50.059  13.379  22.259  0.00  0.00     0.281 C 
ATOM     19  O   UNL d   1     -50.319  12.827  22.764  0.00  0.00    -0.265 OA
ATOM     20  N   UNL d   1     -50.138  13.268  21.480  0.00  0.00    -0.205 NA
ATOM     21  C   UNL d   1     -50.490  12.579  21.194  0.00  0.00     0.123 C 
ENDBRANCH  11  18
ENDBRANCH   8  10
ENDBRANCH   2   7
BRANCH   1  22
ATOM     22  S   UNL d   1     -44.679  12.967  22.063  0.00  0.00     0.272 S 
ATOM     23  O   UNL d   1     -44.874  12.178  22.205  0.00  0.00    -0.200 OA
ATOM     24  O   UNL d   1     -44.482  13.760  21.920  0.00  0.00    -0.200 OA
BRANCH  22  25
ATOM     25  N   UNL d   1     -43.920  12.738  21.833  0.00  0.00    -0.225 N 
ATOM     26  C   UNL d   1     -43.529  12.130  22.230  0.00  0.00     0.118 A 
ATOM     27  C   UNL d   1     -42.763  11.899  21.998  0.00  0.00     0.142 A 
ATOM     28  O   UNL d   1     -42.392  12.282  21.365  0.00  0.00    -0.300 OA
ATOM     29  C   UNL d   1     -42.781  12.884  20.973  0.00  0.00     0.142 A 
ATOM     30  C   UNL d   1     -43.540  13.113  21.203  0.00  0.00     0.118 A 
ENDBRANCH  22  25
ENDBRANCH   1  22
TORSDOF 5
ENDMDL
MODEL 3
REMARK VINA RESULT:      -5.1      2.069      2.590
REMARK  5 active torsions:
REMARK  status: ('A' for Active; 'I' for Inactive)
REMARK    1  A    between atoms: N_6  and  C_1 
REMARK    2  A    between atoms: S_2  and  C_11 
REMARK    3  A    between atoms: N_8  and  S_2 
REMARK    4  A    between atoms: C_10  and  C_3 
REMARK       I    between atoms: C_9  and  N_6 
REMARK    5  A    between atoms: C_14  and  C_9 
REMARK       I    between atoms: N_22  and  C_10 
ROOT
ATOM      1  C   UNL d   1     -45.128  13.115  22.123  0.00  0.00     0.104 A 
ATOM      2  C   UNL d   1     -46.695  13.029  22.654  0.00  0.00     0.058 A 
ATOM      3  C   UNL d   1     -45.553  13.805  22.262  0.00  0.00     0.013 A 
ATOM      4  C   UNL d   1     -45.485  12.372  22.249  0.00  0.00     0.013 A 
ATOM      5  C   UNL d   1     -46.337  13.764  22.527  0.00  0.00     0.005 A 
ATOM      6  C   UNL d   1     -46.266  12.331  22.514  0.00  0.00     0.005 A 
ENDROOT
BRANCH   2   7
ATOM      7  C   UNL d   1     -47.476  12.988  22.918  0.00  0.00     0.280 C 
ATOM      8  N   UNL d   1     -48.108  13.030  22.193  0.00  0.00    -0.201 NA
ATOM      9  O   UNL d   1     -47.511  12.932  23.597  0.00  0.00    -0.265 OA
BRANCH   8  10
ATOM     10  C   UNL d   1     -48.791  12.991  22.469  0.00  0.00     0.119 A 
ATOM     11  C   UNL d   1     -49.460  13.364  22.591  0.00  0.00     0.082 A 
ATOM     12  C   UNL d   1     -49.957  12.871  22.960  0.00  0.00     0.013 A 
ATOM     13  C   UNL d   1     -50.701  12.955  23.215  0.00  0.00     0.001 A 
ATOM     14  C   UNL d   1     -49.578  12.183  23.063  0.00  0.00     0.031 A 
ATOM     15  C   UNL d   1     -51.064  12.353  23.571  0.00  0.00     0.001 A 
ATOM     16  C   UNL d   1     -50.688  11.669  23.674  0.00  0.00     0.006 A 
ATOM     17  S   UNL d   1     -48.858  12.257  22.760  0.00  0.00    -0.068 SA
BRANCH  11  18
ATOM     18  C   UNL d   1     -49.620  14.108  22.384  0.00  0.00     0.281 C 
ATOM     19  O   UNL d   1     -49.842  14.270  21.641  0.00  0.00    -0.265 OA
ATOM     20  N   UNL d   1     -49.558  14.691  22.914  0.00  0.00    -0.205 NA
ATOM     21  C   UNL d   1     -49.726  15.468  22.693  0.00  0.00     0.123 C 
ENDBRANCH  11  18
ENDBRANCH   8  10
ENDBRANCH   2   7
BRANCH   1  22
ATOM     22  S   UNL d   1     -44.343  13.156  21.858  0.00  0.00     0.272 S 
ATOM     23  O   UNL d   1     -44.395  13.980  21.834  0.00  0.00    -0.200 OA
ATOM     24  O   UNL d   1     -44.292  12.329  21.882  0.00  0.00    -0.200 OA
BRANCH  22  25
ATOM     25  N   UNL d   1     -43.563  13.197  21.594  0.00  0.00    -0.225 N 
ATOM     26  C   UNL d   1     -43.064  12.544  21.661  0.00  0.00     0.118 A 
ATOM     27  C   UNL d   1     -42.276  12.585  21.394  0.00  0.00     0.142 A 
ATOM     28  O   UNL d   1     -41.991  13.288  21.059  0.00  0.00    -0.300 OA
ATOM     29  C   UNL d   1     -42.487  13.934  20.994  0.00  0.00     0.142 A 
ATOM     30  C   UNL d   1     -43.268  13.893  21.258  0.00  0.00     0.118 A 
ENDBRANCH  22  25
ENDBRANCH   1  22
TORSDOF 5
ENDMDL
MODEL 4
REMARK VINA RESULT:      -4.6      1.435      5.994
REMARK  5 active torsions:
REMARK  status: ('A' for Active; 'I' for Inactive)
REMARK    1  A    between atoms: N_6  and  C_1 
REMARK    2  A    between atoms: S_2  and  C_11 
REMARK    3  A    between atoms: N_8  and  S_2 
REMARK    4  A    between atoms: C_10  and  C_3 
REMARK       I    between atoms: C_9  and  N_6 
REMARK    5  A    between atoms: C_14  and  C_9 
REMARK       I    between atoms: N_22  and  C_10 
ROOT
ATOM      1  C   UNL d   1     -48.263  13.826  22.784  0.00  0.00     0.104 A 
ATOM      2  C   UNL d   1     -46.863  12.962  22.987  0.00  0.00     0.058 A 
ATOM      3  C   UNL d   1     -47.558  14.218  22.946  0.00  0.00     0.013 A 
ATOM      4  C   UNL d   1     -48.273  12.995  22.721  0.00  0.00     0.013 A 
ATOM      5  C   UNL d   1     -46.857  13.787  23.048  0.00  0.00     0.005 A 
ATOM      6  C   UNL d   1     -47.575  12.566  22.823  0.00  0.00     0.005 A 
ENDROOT
BRANCH   2   7
ATOM      7  C   UNL d   1     -46.165  12.534  23.088  0.00  0.00     0.280 C 
ATOM      8  N   UNL d   1     -45.588  12.591  22.320  0.00  0.00    -0.201 NA
ATOM      9  O   UNL d   1     -46.142  12.228  23.698  0.00  0.00    -0.265 OA
BRANCH   8  10
ATOM     10  C   UNL d   1     -44.978  12.197  22.450  0.00  0.00     0.119 A 
ATOM     11  C   UNL d   1     -44.215  12.131  22.329  0.00  0.00     0.082 A 
ATOM     12  C   UNL d   1     -43.958  11.483  22.703  0.00  0.00     0.013 A 
ATOM     13  C   UNL d   1     -43.242  11.153  22.767  0.00  0.00     0.001 A 
ATOM     14  C   UNL d   1     -44.582  11.149  23.058  0.00  0.00     0.031 A 
ATOM     15  C   UNL d   1     -43.152  10.491  23.186  0.00  0.00     0.001 A 
ATOM     16  C   UNL d   1     -43.771  10.159  23.539  0.00  0.00     0.006 A 
ATOM     17  S   UNL d   1     -45.212  11.590  22.902  0.00  0.00    -0.068 SA
BRANCH  11  18
ATOM     18  C   UNL d   1     -43.769  12.626  21.906  0.00  0.00     0.281 C 
ATOM     19  O   UNL d   1     -43.498  13.292  22.237  0.00  0.00    -0.265 OA
ATOM     20  N   UNL d   1     -43.592  12.459  21.154  0.00  0.00    -0.205 NA
ATOM     21  C   UNL d   1     -43.126  12.978  20.714  0.00  0.00     0.123 C 
ENDBRANCH  11  18
ENDBRANCH   8  10
ENDBRANCH   2   7
BRANCH   1  22
ATOM     22  S   UNL d   1     -48.964  14.256  22.682  0.00  0.00     0.272 S 
ATOM     23  O   UNL d   1     -49.217  14.023  23.432  0.00  0.00    -0.200 OA
ATOM     24  O   UNL d   1     -48.710  14.491  21.928  0.00  0.00    -0.200 OA
BRANCH  22  25
ATOM     25  N   UNL d   1     -49.662  14.685  22.580  0.00  0.00    -0.225 N 
ATOM     26  C   UNL d   1     -50.283  14.372  22.138  0.00  0.00     0.118 A 
ATOM     27  C   UNL d   1     -50.988  14.804  22.036  0.00  0.00     0.142 A 
ATOM     28  O   UNL d   1     -51.064  15.554  22.381  0.00  0.00    -0.300 OA
ATOM     29  C   UNL d   1     -50.447  15.861  22.818  0.00  0.00     0.142 A 
ATOM     30  C   UNL d   1     -49.749  15.433  22.920  0.00  0.00     0.118 A 
ENDBRANCH  22  25
ENDBRANCH   1  22
TORSDOF 5
ENDMDL
MODEL 5
REMARK VINA RESULT:      -4.4      1.880      5.884
REMARK  5 active torsions:
REMARK  status: ('A' for Active; 'I' for Inactive)
REMARK    1  A    between atoms: N_6  and  C_1 
REMARK    2  A    between atoms: S_2  and  C_11 
REMARK    3  A    between atoms: N_8  and  S_2 
REMARK    4  A    between atoms: C_10  and  C_3 
REMARK       I    between atoms: C_9  and  N_6 
REMARK    5  A    between atoms: C_14  and  C_9 
REMARK       I    between atoms: N_22  and  C_10 
ROOT
ATOM      1  C   UNL d   1     -47.828  13.165  22.889  0.00  0.00     0.104 A 
ATOM      2  C   UNL d   1     -46.212  13.224  22.528  0.00  0.00     0.058 A 
ATOM      3  C   UNL d   1     -47.271  13.085  23.488  0.00  0.00     0.013 A 
ATOM      4  C   UNL d   1     -47.580  13.277  22.100  0.00  0.00     0.013 A 
ATOM      5  C   UNL d   1     -46.462  13.114  23.309  0.00  0.00     0.005 A 
ATOM      6  C   UNL d   1     -46.775  13.306  21.923  0.00  0.00     0.005 A 
ENDROOT
BRANCH   2   7
ATOM      7  C   UNL d   1     -45.407  13.253  22.351  0.00  0.00     0.280 C 
ATOM      8  N   UNL d   1     -45.047  12.384  22.147  0.00  0.00    -0.201 NA
ATOM      9  O   UNL d   1     -45.162  13.890  22.386  0.00  0.00    -0.265 OA
BRANCH   8  10
ATOM     10  C   UNL d   1     -44.329  12.452  21.995  0.00  0.00     0.119 A 
ATOM     11  C   UNL d   1     -43.611  12.199  22.143  0.00  0.00     0.082 A 
ATOM     12  C   UNL d   1     -43.103  12.610  21.697  0.00  0.00     0.013 A 
ATOM     13  C   UNL d   1     -42.316  12.585  21.623  0.00  0.00     0.001 A 
ATOM     14  C   UNL d   1     -43.526  13.125  21.268  0.00  0.00     0.031 A 
ATOM     15  C   UNL d   1     -41.954  13.074  21.122  0.00  0.00     0.001 A 
ATOM     16  C   UNL d   1     -42.373  13.586  20.695  0.00  0.00     0.006 A 
ATOM     17  S   UNL d   1     -44.283  13.028  21.452  0.00  0.00    -0.068 SA
BRANCH  11  18
ATOM     18  C   UNL d   1     -43.417  11.628  22.652  0.00  0.00     0.281 C 
ATOM     19  O   UNL d   1     -42.725  11.660  23.036  0.00  0.00    -0.265 OA
ATOM     20  N   UNL d   1     -43.912  11.025  22.781  0.00  0.00    -0.205 NA
ATOM     21  C   UNL d   1     -43.707  10.430  23.314  0.00  0.00     0.123 C 
ENDBRANCH  11  18
ENDBRANCH   8  10
ENDBRANCH   2   7
BRANCH   1  22
ATOM     22  S   UNL d   1     -48.637  13.136  23.067  0.00  0.00     0.272 S 
ATOM     23  O   UNL d   1     -48.744  13.870  22.706  0.00  0.00    -0.200 OA
ATOM     24  O   UNL d   1     -48.531  12.399  23.431  0.00  0.00    -0.200 OA
BRANCH  22  25
ATOM     25  N   UNL d   1     -49.443  13.107  23.245  0.00  0.00    -0.225 N 
ATOM     26  C   UNL d   1     -49.865  12.405  23.152  0.00  0.00     0.118 A 
ATOM     27  C   UNL d   1     -50.678  12.376  23.332  0.00  0.00     0.142 A 
ATOM     28  O   UNL d   1     -51.064  13.057  23.604  0.00  0.00    -0.300 OA
ATOM     29  C   UNL d   1     -50.643  13.751  23.695  0.00  0.00     0.142 A 
ATOM     30  C   UNL d   1     -49.838  13.780  23.517  0.00  0.00     0.118 A 
ENDBRANCH  22  25
ENDBRANCH   1  22
TORSDOF 5
ENDMDL
