MODEL 1
REMARK VINA RESULT:      87.0      0.000      0.000
REMARK  3 active torsions:
REMARK  status: ('A' for Active; 'I' for Inactive)
REMARK    1  A    between atoms: C_12  and  C_9 
REMARK    2  A    between atoms: O_26  and  C_19 
REMARK    3  A    between atoms: O_27  and  C_22 
ROOT
ATOM      1  C   UNL d   1      46.317 -18.922  42.493  0.00  0.00     0.156 A 
ATOM      2  C   UNL d   1      46.210 -18.218  42.907  0.00  0.00     0.091 A 
ATOM      3  N   UNL d   1      46.462 -19.622  42.897  0.00  0.00    -0.241 N 
ATOM      4  N   UNL d   1      46.394 -18.917  44.131  0.00  0.00    -0.224 N 
ATOM      5  C   UNL d   1      46.500 -19.620  43.714  0.00  0.00     0.343 A 
ATOM      6  C   UNL d   1      46.249 -18.219  43.731  0.00  0.00     0.271 A 
ATOM      7  C   UNL d   1      46.026 -17.519  41.683  0.00  0.00     0.056 A 
ATOM      8  N   UNL d   1      46.278 -18.923  41.672  0.00  0.00    -0.228 NA
ATOM      9  C   UNL d   1      46.065 -17.520  42.506  0.00  0.00     0.012 A 
ATOM     10  C   UNL d   1      46.134 -18.230  41.265  0.00  0.00     0.082 A 
ATOM     11  C   UNL d   1      45.881 -16.819  41.279  0.00  0.00     0.193 A 
ATOM     12  C   UNL d   1      46.095 -18.231  40.445  0.00  0.00    -0.003 A 
ATOM     13  C   UNL d   1      45.950 -17.532  40.036  0.00  0.00     0.042 A 
ATOM     14  O   UNL d   1      46.646 -20.322  44.121  0.00  0.00    -0.245 OA
ATOM     15  C   UNL d   1      45.843 -16.827  40.454  0.00  0.00     0.019 A 
ATOM     16  O   UNL d   1      46.171 -17.694  44.067  0.00  0.00    -0.266 OA
ATOM     17  O   UNL d   1      45.788 -16.204  41.649  0.00  0.00    -0.287 OA
ATOM     18  C   UNL d   1      46.569 -20.324  42.480  0.00  0.00     0.105 C 
ATOM     19  C   UNL d   1      46.433 -18.919  44.955  0.00  0.00     0.107 C 
ATOM     20  C   UNL d   1      46.036 -18.095  39.701  0.00  0.00     0.009 C 
ATOM     21  C   UNL d   1      45.805 -16.828  39.634  0.00  0.00     0.009 C 
ENDROOT
BRANCH   9  22
ATOM     22  C   UNL d   1      45.953 -16.776  42.948  0.00  0.00     0.003 A 
ATOM     23  C   UNL d   1      46.366 -15.955  42.659  0.00  0.00     0.026 A 
ATOM     24  C   UNL d   1      46.222 -15.237  43.136  0.00  0.00     0.116 A 
ATOM     25  C   UNL d   1      45.726 -15.284  43.835  0.00  0.00     0.116 A 
ATOM     26  C   UNL d   1      45.366 -16.040  44.071  0.00  0.00     0.026 A 
ATOM     27  C   UNL d   1      45.506 -16.749  43.603  0.00  0.00     0.002 A 
BRANCH  24  28
ATOM     28  O   UNL d   1      46.581 -14.493  42.896  0.00  0.00    -0.326 OA
ATOM     29  C   UNL d   1      46.099 -13.778  42.822  0.00  0.00     0.181 C 
ENDBRANCH  24  28
BRANCH  25  30
ATOM     30  O   UNL d   1      45.592 -14.577  44.293  0.00  0.00    -0.326 OA
ATOM     31  C   UNL d   1      46.117 -14.366  44.954  0.00  0.00     0.181 C 
ENDBRANCH  25  30
ENDBRANCH   9  22
TORSDOF 3
ENDMDL
