MODEL 1
REMARK VINA RESULT:     138.8      0.000      0.000
REMARK  6 active torsions:
REMARK  status: ('A' for Active; 'I' for Inactive)
REMARK    1  A    between atoms: C_2  and  S_1 
REMARK    2  A    between atoms: C_13  and  S_1 
REMARK    3  A    between atoms: C_5  and  C_3 
REMARK    4  A    between atoms: C_16  and  C_5 
REMARK    5  A    between atoms: O_30  and  C_24 
REMARK    6  A    between atoms: C_33  and  O_30 
ROOT
ATOM      1  C   UNL d   1      60.731  47.839  50.324  0.00  0.00     0.094 A 
ATOM      2  C   UNL d   1      61.323  48.331  50.619  0.00  0.00     0.069 A 
ATOM      3  C   UNL d   1      60.921  47.087  50.052  0.00  0.00     0.031 A 
ATOM      4  C   UNL d   1      61.704  46.824  50.074  0.00  0.00     0.084 A 
ATOM      5  C   UNL d   1      60.330  46.595  49.758  0.00  0.00     0.029 A 
ATOM      6  N   UNL d   1      62.295  47.315  50.368  0.00  0.00    -0.244 NA
ATOM      7  C   UNL d   1      62.106  48.068  50.640  0.00  0.00     0.103 A 
ATOM      8  C   UNL d   1      61.893  46.071  49.801  0.00  0.00     0.046 A 
ATOM      9  C   UNL d   1      60.519  45.843  49.485  0.00  0.00     0.123 A 
ATOM     10  C   UNL d   1      61.302  45.580  49.507  0.00  0.00     0.124 A 
ATOM     11  O   UNL d   1      59.928  45.351  49.191  0.00  0.00    -0.301 OA
ATOM     12  O   UNL d   1      61.492  44.826  49.235  0.00  0.00    -0.301 OA
ATOM     13  C   UNL d   1      60.114  44.587  48.914  0.00  0.00     0.149 A 
ATOM     14  C   UNL d   1      60.897  44.324  48.935  0.00  0.00     0.149 A 
ENDROOT
BRANCH   1  15
ATOM     15  S   UNL d   1      59.948  48.098  50.301  0.00  0.00     0.210 S 
ATOM     16  O   UNL d   1      59.711  47.430  50.722  0.00  0.00    -0.217 OA
ATOM     17  O   UNL d   1      60.186  48.767  49.880  0.00  0.00    -0.217 OA
BRANCH  15  18
ATOM     18  C   UNL d   1      59.168  48.364  50.274  0.00  0.00     0.088 A 
ATOM     19  C   UNL d   1      58.566  47.907  50.598  0.00  0.00     0.013 A 
ATOM     20  C   UNL d   1      57.782  48.178  50.568  0.00  0.00     0.025 A 
ATOM     21  C   UNL d   1      57.609  48.901  50.215  0.00  0.00     0.100 A 
ATOM     22  C   UNL d   1      58.206  49.358  49.891  0.00  0.00     0.025 A 
ATOM     23  C   UNL d   1      58.994  49.086  49.921  0.00  0.00     0.013 A 
BRANCH  21  24
ATOM     24  O   UNL d   1      56.822  49.172  50.185  0.00  0.00    -0.305 OA
BRANCH  24  25
ATOM     25  C   UNL d   1      56.586  49.693  49.593  0.00  0.00     0.123 C 
ATOM     26  C   UNL d   1      56.439  49.409  48.833  0.00  0.00     0.029 C 
ENDBRANCH  24  25
ENDBRANCH  21  24
ENDBRANCH  15  18
ENDBRANCH   1  15
BRANCH   2  27
ATOM     27  C   UNL d   1      61.137  49.095  50.896  0.00  0.00     0.198 C 
ATOM     28  O   UNL d   1      61.010  49.705  50.356  0.00  0.00    -0.286 OA
BRANCH  27  29
ATOM     29  C   UNL d   1      61.081  49.238  51.707  0.00  0.00     0.039 A 
ATOM     30  C   UNL d   1      61.732  49.531  52.129  0.00  0.00     0.003 A 
ATOM     31  C   UNL d   1      61.677  49.674  52.940  0.00  0.00     0.000 A 
ATOM     32  C   UNL d   1      60.972  49.527  53.342  0.00  0.00     0.000 A 
ATOM     33  C   UNL d   1      60.311  49.229  52.910  0.00  0.00     0.000 A 
ATOM     34  C   UNL d   1      60.910  49.668  54.151  0.00  0.00     0.000 C 
ATOM     35  C   UNL d   1      60.363  49.086  52.102  0.00  0.00     0.003 A 
ENDBRANCH  27  29
ENDBRANCH   2  27
TORSDOF 6
ENDMDL
