MODEL 1
REMARK VINA RESULT:      -4.1      0.000      0.000
REMARK  5 active torsions:
REMARK  status: ('A' for Active; 'I' for Inactive)
REMARK    1  A    between atoms: C_15  and  C_4 
REMARK       I    between atoms: C_11  and  N_14 
REMARK    2  A    between atoms: C_19  and  C_11 
REMARK    3  A    between atoms: N_14  and  C_16 
REMARK    4  A    between atoms: C_16  and  C_15 
REMARK    5  A    between atoms: C_20  and  C_19 
ROOT
ATOM      1  N   UNL d   1      57.405   0.682  33.604  0.00  0.00    -0.208 NA
ATOM      2  C   UNL d   1      57.772   0.645  32.864  0.00  0.00     0.279 A 
ATOM      3  C   UNL d   1      56.573   0.644  33.657  0.00  0.00     0.085 A 
ATOM      4  C   UNL d   1      57.310   0.570  32.174  0.00  0.00     0.059 A 
ATOM      5  C   UNL d   1      56.486   0.533  32.232  0.00  0.00     0.006 A 
ATOM      6  C   UNL d   1      56.122   0.570  32.969  0.00  0.00     0.018 A 
ATOM      7  C   UNL d   1      56.214   0.681  34.401  0.00  0.00     0.019 A 
ATOM      8  C   UNL d   1      55.296   0.533  33.029  0.00  0.00     0.002 A 
ATOM      9  C   UNL d   1      54.931   0.570  33.767  0.00  0.00     0.000 A 
ATOM     10  C   UNL d   1      55.394   0.645  34.457  0.00  0.00     0.002 A 
ATOM     11  O   UNL d   1      58.592   0.682  32.809  0.00  0.00    -0.265 OA
ATOM     12  C   UNL d   1      54.116   0.534  33.829  0.00  0.00     0.000 C 
ATOM     13  C   UNL d   1      55.031   0.681  35.194  0.00  0.00     0.000 C 
ENDROOT
BRANCH   4  14
ATOM     14  C   UNL d   1      57.678   0.534  31.443  0.00  0.00     0.026 C 
BRANCH  14  15
ATOM     15  C   UNL d   1      57.685  -0.161  31.009  0.00  0.00     0.102 C 
BRANCH  15  16
ATOM     16  N   UNL d   1      58.072  -0.207  30.282  0.00  0.00    -0.206 NA
ATOM     17  C   UNL d   1      58.112  -0.924  29.874  0.00  0.00     0.279 C 
ATOM     18  O   UNL d   1      57.766  -1.599  30.188  0.00  0.00    -0.265 OA
BRANCH  17  19
ATOM     19  C   UNL d   1      58.502  -0.961  29.145  0.00  0.00     0.062 C 
BRANCH  19  20
ATOM     20  C   UNL d   1      58.936  -1.637  28.942  0.00  0.00     0.005 C 
ATOM     21  C   UNL d   1      59.676  -1.573  28.608  0.00  0.00     0.000 C 
ENDBRANCH  19  20
ENDBRANCH  17  19
ENDBRANCH  15  16
ENDBRANCH  14  15
ENDBRANCH   4  14
TORSDOF 5
ENDMDL
MODEL 2
REMARK VINA RESULT:      -1.5      1.383      5.464
REMARK  5 active torsions:
REMARK  status: ('A' for Active; 'I' for Inactive)
REMARK    1  A    between atoms: C_15  and  C_4 
REMARK       I    between atoms: C_11  and  N_14 
REMARK    2  A    between atoms: C_19  and  C_11 
REMARK    3  A    between atoms: N_14  and  C_16 
REMARK    4  A    between atoms: C_16  and  C_15 
REMARK    5  A    between atoms: C_20  and  C_19 
ROOT
ATOM      1  N   UNL d   1      59.932  -0.520  29.525  0.00  0.00    -0.208 NA
ATOM      2  C   UNL d   1      59.286  -0.124  29.857  0.00  0.00     0.279 A 
ATOM      3  C   UNL d   1      59.865  -1.326  29.320  0.00  0.00     0.085 A 
ATOM      4  C   UNL d   1      58.570  -0.532  29.985  0.00  0.00     0.059 A 
ATOM      5  C   UNL d   1      58.509  -1.331  29.781  0.00  0.00     0.006 A 
ATOM      6  C   UNL d   1      59.153  -1.723  29.450  0.00  0.00     0.018 A 
ATOM      7  C   UNL d   1      60.516  -1.714  28.988  0.00  0.00     0.019 A 
ATOM      8  C   UNL d   1      59.093  -2.525  29.244  0.00  0.00     0.002 A 
ATOM      9  C   UNL d   1      59.737  -2.917  28.914  0.00  0.00     0.000 A 
ATOM     10  C   UNL d   1      60.453  -2.509  28.785  0.00  0.00     0.002 A 
ATOM     11  O   UNL d   1      59.350   0.670  30.059  0.00  0.00    -0.265 OA
ATOM     12  C   UNL d   1      59.680  -3.708  28.710  0.00  0.00     0.000 C 
ATOM     13  C   UNL d   1      61.097  -2.901  28.455  0.00  0.00     0.000 C 
ENDROOT
BRANCH   4  14
ATOM     14  C   UNL d   1      57.934  -0.137  30.314  0.00  0.00     0.026 C 
BRANCH  14  15
ATOM     15  C   UNL d   1      57.482  -0.483  30.904  0.00  0.00     0.102 C 
BRANCH  15  16
ATOM     16  N   UNL d   1      56.967  -0.034  31.368  0.00  0.00    -0.206 NA
ATOM     17  C   UNL d   1      56.523  -0.392  31.965  0.00  0.00     0.279 C 
ATOM     18  O   UNL d   1      56.589  -1.198  32.104  0.00  0.00    -0.265 OA
BRANCH  17  19
ATOM     19  C   UNL d   1      56.009   0.066  32.424  0.00  0.00     0.062 C 
BRANCH  19  20
ATOM     20  C   UNL d   1      55.616  -0.275  33.070  0.00  0.00     0.005 C 
ATOM     21  C   UNL d   1      55.289   0.191  33.653  0.00  0.00     0.000 C 
ENDBRANCH  19  20
ENDBRANCH  17  19
ENDBRANCH  15  16
ENDBRANCH  14  15
ENDBRANCH   4  14
TORSDOF 5
ENDMDL
