MODEL 1
REMARK VINA RESULT:      -2.8      0.000      0.000
REMARK  6 active torsions:
REMARK  status: ('A' for Active; 'I' for Inactive)
REMARK       I    between atoms: N_2  and  C_1 
REMARK    1  A    between atoms: C_5  and  C_1 
REMARK    2  A    between atoms: C_3  and  N_2 
REMARK    3  A    between atoms: O_14  and  C_10 
REMARK    4  A    between atoms: C_18  and  O_14 
REMARK    5  A    between atoms: C_19  and  C_18 
REMARK    6  A    between atoms: C_20  and  C_19 
ROOT
ATOM      1  C   UNL d   1     -41.662-121.687 -51.241  0.00  0.00     0.058 A 
ATOM      2  C   UNL d   1     -42.471-121.681 -51.079  0.00  0.00     0.007 A 
ATOM      3  C   UNL d   1     -41.187-122.250 -50.905  0.00  0.00     0.007 A 
ATOM      4  C   UNL d   1     -42.327-122.822 -50.232  0.00  0.00     0.100 A 
ATOM      5  C   UNL d   1     -42.791-122.249 -50.577  0.00  0.00     0.025 A 
ATOM      6  C   UNL d   1     -41.495-122.814 -50.409  0.00  0.00     0.025 A 
ENDROOT
BRANCH   1   7
ATOM      7  C   UNL d   1     -41.358-121.102 -51.752  0.00  0.00     0.281 C 
ATOM      8  N   UNL d   1     -41.239-121.253 -52.552  0.00  0.00    -0.189 NA
ATOM      9  O   UNL d   1     -41.174-120.362 -51.448  0.00  0.00    -0.265 OA
BRANCH   8  10
ATOM     10  C   UNL d   1     -41.428-122.012 -52.864  0.00  0.00     0.166 A 
ATOM     11  N   UNL d   1     -41.945-122.035 -53.515  0.00  0.00    -0.227 NA
ATOM     12  C   UNL d   1     -42.143-122.747 -53.833  0.00  0.00     0.083 A 
ATOM     13  C   UNL d   1     -42.676-122.846 -54.512  0.00  0.00     0.021 C 
ATOM     14  C   UNL d   1     -41.820-123.448 -53.497  0.00  0.00     0.019 A 
ATOM     15  C   UNL d   1     -41.306-123.401 -52.847  0.00  0.00     0.005 A 
ATOM     16  C   UNL d   1     -41.128-122.674 -52.552  0.00  0.00     0.039 A 
ENDBRANCH   8  10
ENDBRANCH   1   7
BRANCH   4  17
ATOM     17  O   UNL d   1     -42.646-123.396 -49.725  0.00  0.00    -0.305 OA
BRANCH  17  18
ATOM     18  C   UNL d   1     -42.312-123.551 -48.989  0.00  0.00     0.123 C 
BRANCH  18  19
ATOM     19  C   UNL d   1     -42.684-123.270 -48.311  0.00  0.00     0.027 C 
BRANCH  19  20
ATOM     20  C   UNL d   1     -42.810-123.808 -47.679  0.00  0.00     0.002 C 
ATOM     21  C   UNL d   1     -42.634-123.585 -46.902  0.00  0.00     0.000 C 
ENDBRANCH  19  20
ENDBRANCH  18  19
ENDBRANCH  17  18
ENDBRANCH   4  17
TORSDOF 6
ENDMDL
MODEL 2
REMARK VINA RESULT:      -1.5      0.909      1.274
REMARK  6 active torsions:
REMARK  status: ('A' for Active; 'I' for Inactive)
REMARK       I    between atoms: N_2  and  C_1 
REMARK    1  A    between atoms: C_5  and  C_1 
REMARK    2  A    between atoms: C_3  and  N_2 
REMARK    3  A    between atoms: O_14  and  C_10 
REMARK    4  A    between atoms: C_18  and  O_14 
REMARK    5  A    between atoms: C_19  and  C_18 
REMARK    6  A    between atoms: C_20  and  C_19 
ROOT
ATOM      1  C   UNL d   1     -41.656-121.718 -52.324  0.00  0.00     0.058 A 
ATOM      2  C   UNL d   1     -41.123-122.288 -52.057  0.00  0.00     0.007 A 
ATOM      3  C   UNL d   1     -42.432-121.751 -52.095  0.00  0.00     0.007 A 
ATOM      4  C   UNL d   1     -42.161-122.936 -51.319  0.00  0.00     0.100 A 
ATOM      5  C   UNL d   1     -41.383-122.889 -51.559  0.00  0.00     0.025 A 
ATOM      6  C   UNL d   1     -42.697-122.341 -51.603  0.00  0.00     0.025 A 
ENDROOT
BRANCH   1   7
ATOM      7  C   UNL d   1     -41.371-121.117 -52.828  0.00  0.00     0.281 C 
ATOM      8  N   UNL d   1     -41.313-121.233 -53.641  0.00  0.00    -0.189 NA
ATOM      9  O   UNL d   1     -41.145-120.398 -52.505  0.00  0.00    -0.265 OA
BRANCH   8  10
ATOM     10  C   UNL d   1     -41.545-121.971 -53.973  0.00  0.00     0.166 A 
ATOM     11  N   UNL d   1     -42.238-121.977 -54.432  0.00  0.00    -0.227 NA
ATOM     12  C   UNL d   1     -42.483-122.669 -54.762  0.00  0.00     0.083 A 
ATOM     13  C   UNL d   1     -43.196-122.750 -55.252  0.00  0.00     0.021 C 
ATOM     14  C   UNL d   1     -42.030-123.366 -54.631  0.00  0.00     0.019 A 
ATOM     15  C   UNL d   1     -41.341-123.336 -54.169  0.00  0.00     0.005 A 
ATOM     16  C   UNL d   1     -41.123-122.630 -53.854  0.00  0.00     0.039 A 
ENDBRANCH   8  10
ENDBRANCH   1   7
BRANCH   4  17
ATOM     17  O   UNL d   1     -42.427-123.540 -50.817  0.00  0.00    -0.305 OA
BRANCH  17  18
ATOM     18  C   UNL d   1     -42.202-123.570 -50.026  0.00  0.00     0.123 C 
BRANCH  18  19
ATOM     19  C   UNL d   1     -42.749-123.808 -49.459  0.00  0.00     0.027 C 
BRANCH  19  20
ATOM     20  C   UNL d   1     -42.828-123.341 -48.767  0.00  0.00     0.002 C 
ATOM     21  C   UNL d   1     -42.566-123.630 -48.038  0.00  0.00     0.000 C 
ENDBRANCH  19  20
ENDBRANCH  18  19
ENDBRANCH  17  18
ENDBRANCH   4  17
TORSDOF 6
ENDMDL
MODEL 3
REMARK VINA RESULT:      -1.3      1.806      4.499
REMARK  6 active torsions:
REMARK  status: ('A' for Active; 'I' for Inactive)
REMARK       I    between atoms: N_2  and  C_1 
REMARK    1  A    between atoms: C_5  and  C_1 
REMARK    2  A    between atoms: C_3  and  N_2 
REMARK    3  A    between atoms: O_14  and  C_10 
REMARK    4  A    between atoms: C_18  and  O_14 
REMARK    5  A    between atoms: C_19  and  C_18 
REMARK    6  A    between atoms: C_20  and  C_19 
ROOT
ATOM      1  C   UNL d   1     -42.936-122.357 -50.058  0.00  0.00     0.058 A 
ATOM      2  C   UNL d   1     -42.775-122.986 -50.568  0.00  0.00     0.007 A 
ATOM      3  C   UNL d   1     -42.502-121.675 -50.108  0.00  0.00     0.007 A 
ATOM      4  C   UNL d   1     -41.730-122.236 -51.188  0.00  0.00     0.100 A 
ATOM      5  C   UNL d   1     -42.175-122.915 -51.125  0.00  0.00     0.025 A 
ATOM      6  C   UNL d   1     -41.908-121.598 -50.655  0.00  0.00     0.025 A 
ENDROOT
BRANCH   1   7
ATOM      7  C   UNL d   1     -43.549-122.449 -49.499  0.00  0.00     0.281 C 
ATOM      8  N   UNL d   1     -43.409-122.783 -48.760  0.00  0.00    -0.189 NA
ATOM      9  O   UNL d   1     -44.307-122.200 -49.694  0.00  0.00    -0.265 OA
BRANCH   8  10
ATOM     10  C   UNL d   1     -42.632-123.039 -48.561  0.00  0.00     0.166 A 
ATOM     11  N   UNL d   1     -42.289-122.707 -47.881  0.00  0.00    -0.227 NA
ATOM     12  C   UNL d   1     -41.547-122.933 -47.666  0.00  0.00     0.083 A 
ATOM     13  C   UNL d   1     -41.127-122.628 -46.969  0.00  0.00     0.021 C 
ATOM     14  C   UNL d   1     -41.141-123.499 -48.139  0.00  0.00     0.019 A 
ATOM     15  C   UNL d   1     -41.503-123.817 -48.814  0.00  0.00     0.005 A 
ATOM     16  C   UNL d   1     -42.245-123.571 -49.001  0.00  0.00     0.039 A 
ENDBRANCH   8  10
ENDBRANCH   1   7
BRANCH   4  17
ATOM     17  O   UNL d   1     -41.123-122.161 -51.749  0.00  0.00    -0.305 OA
BRANCH  17  18
ATOM     18  C   UNL d   1     -41.143-122.575 -52.460  0.00  0.00     0.123 C 
BRANCH  18  19
ATOM     19  C   UNL d   1     -41.140-122.160 -53.170  0.00  0.00     0.027 C 
BRANCH  19  20
ATOM     20  C   UNL d   1     -41.149-122.599 -53.884  0.00  0.00     0.002 C 
ATOM     21  C   UNL d   1     -41.721-122.445 -54.460  0.00  0.00     0.000 C 
ENDBRANCH  19  20
ENDBRANCH  18  19
ENDBRANCH  17  18
ENDBRANCH   4  17
TORSDOF 6
ENDMDL
MODEL 4
REMARK VINA RESULT:       0.1      1.796      4.114
REMARK  6 active torsions:
REMARK  status: ('A' for Active; 'I' for Inactive)
REMARK       I    between atoms: N_2  and  C_1 
REMARK    1  A    between atoms: C_5  and  C_1 
REMARK    2  A    between atoms: C_3  and  N_2 
REMARK    3  A    between atoms: O_14  and  C_10 
REMARK    4  A    between atoms: C_18  and  O_14 
REMARK    5  A    between atoms: C_19  and  C_18 
REMARK    6  A    between atoms: C_20  and  C_19 
ROOT
ATOM      1  C   UNL d   1     -41.589-123.111 -49.937  0.00  0.00     0.058 A 
ATOM      2  C   UNL d   1     -41.627-123.817 -50.361  0.00  0.00     0.007 A 
ATOM      3  C   UNL d   1     -41.400-122.421 -50.316  0.00  0.00     0.007 A 
ATOM      4  C   UNL d   1     -41.281-123.130 -51.565  0.00  0.00     0.100 A 
ATOM      5  C   UNL d   1     -41.472-123.816 -51.169  0.00  0.00     0.025 A 
ATOM      6  C   UNL d   1     -41.246-122.411 -51.113  0.00  0.00     0.025 A 
ENDROOT
BRANCH   1   7
ATOM      7  C   UNL d   1     -41.749-123.133 -49.118  0.00  0.00     0.281 C 
ATOM      8  N   UNL d   1     -42.521-123.113 -48.832  0.00  0.00    -0.189 NA
ATOM      9  O   UNL d   1     -41.123-123.177 -48.589  0.00  0.00    -0.265 OA
BRANCH   8  10
ATOM     10  C   UNL d   1     -43.163-123.068 -49.375  0.00  0.00     0.166 A 
ATOM     11  N   UNL d   1     -43.416-122.308 -49.598  0.00  0.00    -0.227 NA
ATOM     12  C   UNL d   1     -44.028-122.235 -50.115  0.00  0.00     0.083 A 
ATOM     13  C   UNL d   1     -44.345-121.474 -50.391  0.00  0.00     0.021 C 
ATOM     14  C   UNL d   1     -44.394-122.931 -50.414  0.00  0.00     0.019 A 
ATOM     15  C   UNL d   1     -44.125-123.680 -50.177  0.00  0.00     0.005 A 
ATOM     16  C   UNL d   1     -43.511-123.719 -49.659  0.00  0.00     0.039 A 
ENDBRANCH   8  10
ENDBRANCH   1   7
BRANCH   4  17
ATOM     17  O   UNL d   1     -41.124-123.125 -52.380  0.00  0.00    -0.305 OA
BRANCH  17  18
ATOM     18  C   UNL d   1     -41.572-122.670 -52.900  0.00  0.00     0.123 C 
BRANCH  18  19
ATOM     19  C   UNL d   1     -41.529-122.820 -53.707  0.00  0.00     0.027 C 
BRANCH  19  20
ATOM     20  C   UNL d   1     -41.858-122.254 -54.231  0.00  0.00     0.002 C 
ATOM     21  C   UNL d   1     -41.892-122.408 -55.043  0.00  0.00     0.000 C 
ENDBRANCH  19  20
ENDBRANCH  18  19
ENDBRANCH  17  18
ENDBRANCH   4  17
TORSDOF 6
ENDMDL
