MODEL 1
REMARK VINA RESULT:     121.6      0.000      0.000
REMARK  6 active torsions:
REMARK  status: ('A' for Active; 'I' for Inactive)
REMARK    1  A    between atoms: C_10  and  N_3 
REMARK    2  A    between atoms: C_12  and  C_6 
REMARK    3  A    between atoms: C_20  and  C_10 
REMARK    4  A    between atoms: C_11  and  C_17 
REMARK    5  A    between atoms: O_27  and  C_11 
REMARK    6  A    between atoms: N_13  and  C_20 
ROOT
ATOM      1  C   UNL d   1     -57.522 -98.987 -44.447  0.00  0.00     0.083 A 
ATOM      2  C   UNL d   1     -56.849 -98.938 -44.939  0.00  0.00     0.161 A 
ATOM      3  N   UNL d   1     -56.437 -99.041 -43.668  0.00  0.00    -0.270 N 
ATOM      4  C   UNL d   1     -56.183 -98.972 -44.456  0.00  0.00     0.288 A 
ATOM      5  C   UNL d   1     -58.281 -98.966 -44.785  0.00  0.00     0.201 A 
ATOM      6  C   UNL d   1     -57.260 -99.050 -43.667  0.00  0.00     0.072 A 
ATOM      7  O   UNL d   1     -56.941 -98.870 -45.755  0.00  0.00    -0.302 OA
ATOM      8  C   UNL d   1     -58.361 -98.898 -45.605  0.00  0.00     0.063 A 
ATOM      9  C   UNL d   1     -57.692 -98.850 -46.095  0.00  0.00     0.103 A 
ATOM     10  O   UNL d   1     -55.396 -98.943 -44.708  0.00  0.00    -0.264 OA
ATOM     11  O   UNL d   1     -58.946 -99.014 -44.303  0.00  0.00    -0.286 OA
ATOM     12  C   UNL d   1     -59.116 -98.878 -45.936  0.00  0.00     0.017 A 
ATOM     13  C   UNL d   1     -57.791 -98.782 -46.907  0.00  0.00     0.026 A 
ATOM     14  C   UNL d   1     -59.206 -98.810 -46.749  0.00  0.00     0.058 A 
ATOM     15  C   UNL d   1     -58.543 -98.762 -47.234  0.00  0.00     0.013 A 
ATOM     16 CL   UNL d   1     -59.958 -98.790 -47.077  0.00  0.00    -0.082 Cl
ENDROOT
BRANCH   6  17
ATOM     17  C   UNL d   1     -57.777 -99.109 -43.026  0.00  0.00     0.016 A 
ATOM     18  C   UNL d   1     -57.587 -98.756 -42.302  0.00  0.00     0.002 A 
ATOM     19  C   UNL d   1     -58.104 -98.815 -41.661  0.00  0.00     0.005 A 
ATOM     20  C   UNL d   1     -58.818 -99.230 -41.739  0.00  0.00     0.063 A 
ATOM     21  C   UNL d   1     -59.006 -99.584 -42.469  0.00  0.00     0.005 A 
ATOM     22  C   UNL d   1     -58.488 -99.523 -43.107  0.00  0.00     0.002 A 
BRANCH  20  23
ATOM     23  C   UNL d   1     -59.334 -99.289 -41.099  0.00  0.00     0.296 C 
ATOM     24  O   UNL d   1     -59.955 -98.757 -41.024  0.00  0.00    -0.259 OA
BRANCH  23  25
ATOM     25  O   UNL d   1     -59.220 -99.880 -40.543  0.00  0.00    -0.296 OA
ATOM     26  C   UNL d   1     -59.756 -99.987 -39.924  0.00  0.00     0.185 C 
ENDBRANCH  23  25
ENDBRANCH  20  23
ENDBRANCH   6  17
BRANCH   3  27
ATOM     27  C   UNL d   1     -55.950 -99.092 -43.007  0.00  0.00     0.102 C 
BRANCH  27  28
ATOM     28  C   UNL d   1     -55.197 -99.426 -43.066  0.00  0.00     0.100 C 
BRANCH  28  29
ATOM     29  N   UNL d   1     -55.039-100.161 -42.730  0.00  0.00    -0.298 N 
ATOM     30  C   UNL d   1     -54.882-100.800 -43.215  0.00  0.00     0.107 A 
ATOM     31  C   UNL d   1     -54.724-101.534 -42.879  0.00  0.00     0.142 A 
ATOM     32  O   UNL d   1     -54.724-101.621 -42.062  0.00  0.00    -0.300 OA
ATOM     33  C   UNL d   1     -54.883-100.974 -41.582  0.00  0.00     0.142 A 
ATOM     34  C   UNL d   1     -55.041-100.241 -41.918  0.00  0.00     0.107 A 
ENDBRANCH  28  29
ENDBRANCH  27  28
ENDBRANCH   3  27
TORSDOF 6
ENDMDL
