MODEL 1
REMARK VINA RESULT:      -4.8      0.000      0.000
REMARK  3 active torsions:
REMARK  status: ('A' for Active; 'I' for Inactive)
REMARK       I    between atoms: C_2  and  N_1 
REMARK    1  A    between atoms: C_3  and  C_2 
REMARK    2  A    between atoms: S_5  and  C_3 
REMARK    3  A    between atoms: C_7  and  S_5 
ROOT
ATOM      1  C   UNL d   1     -41.547-122.793 -52.839  0.00  0.00     0.125 C 
ENDROOT
BRANCH   1   2
ATOM      2  C   UNL d   1     -41.511-123.019 -53.632  0.00  0.00     0.259 C 
ATOM      3  N   UNL d   1     -41.866-122.545 -54.217  0.00  0.00    -0.268 N 
ATOM      4  C   UNL d   1     -41.835-122.763 -55.011  0.00  0.00     0.110 A 
ATOM      5  C   UNL d   1     -42.252-121.850 -53.994  0.00  0.00     0.110 A 
ATOM      6  C   UNL d   1     -42.190-122.286 -55.584  0.00  0.00     0.142 A 
ATOM      7  O   UNL d   1     -42.576-121.592 -55.361  0.00  0.00    -0.300 OA
ATOM      8  C   UNL d   1     -42.606-121.374 -54.567  0.00  0.00     0.142 A 
ATOM      9  O   UNL d   1     -41.123-123.716 -53.853  0.00  0.00    -0.267 OA
ENDBRANCH   1   2
BRANCH   1  10
ATOM     10  S   UNL d   1     -41.123-123.219 -52.284  0.00  0.00    -0.095 SA
BRANCH  10  11
ATOM     11  C   UNL d   1     -41.307-123.146 -51.483  0.00  0.00     0.029 A 
ATOM     12  C   UNL d   1     -41.489-123.817 -51.038  0.00  0.00     0.006 A 
ATOM     13  C   UNL d   1     -41.673-123.744 -50.238  0.00  0.00     0.001 A 
ATOM     14  C   UNL d   1     -41.675-122.999 -49.882  0.00  0.00     0.000 A 
ATOM     15  C   UNL d   1     -41.493-122.329 -50.326  0.00  0.00     0.001 A 
ATOM     16  C   UNL d   1     -41.860-122.940 -49.080  0.00  0.00     0.000 C 
ATOM     17  C   UNL d   1     -41.310-122.402 -51.127  0.00  0.00     0.006 A 
ENDBRANCH  10  11
ENDBRANCH   1  10
TORSDOF 3
ENDMDL
MODEL 2
REMARK VINA RESULT:      -4.5      1.735      4.202
REMARK  3 active torsions:
REMARK  status: ('A' for Active; 'I' for Inactive)
REMARK       I    between atoms: C_2  and  N_1 
REMARK    1  A    between atoms: C_3  and  C_2 
REMARK    2  A    between atoms: S_5  and  C_3 
REMARK    3  A    between atoms: C_7  and  S_5 
ROOT
ATOM      1  C   UNL d   1     -41.740-122.671 -52.008  0.00  0.00     0.125 C 
ENDROOT
BRANCH   1   2
ATOM      2  C   UNL d   1     -41.633-123.166 -51.356  0.00  0.00     0.259 C 
ATOM      3  N   UNL d   1     -42.040-123.015 -50.646  0.00  0.00    -0.268 N 
ATOM      4  C   UNL d   1     -41.939-123.504 -49.990  0.00  0.00     0.110 A 
ATOM      5  C   UNL d   1     -42.548-122.366 -50.603  0.00  0.00     0.110 A 
ATOM      6  C   UNL d   1     -42.347-123.345 -49.290  0.00  0.00     0.142 A 
ATOM      7  O   UNL d   1     -42.855-122.696 -49.248  0.00  0.00    -0.300 OA
ATOM      8  C   UNL d   1     -42.955-122.207 -49.903  0.00  0.00     0.142 A 
ATOM      9  O   UNL d   1     -41.123-123.817 -51.402  0.00  0.00    -0.267 OA
ENDBRANCH   1   2
BRANCH   1  10
ATOM     10  S   UNL d   1     -41.226-122.729 -52.641  0.00  0.00    -0.095 SA
BRANCH  10  11
ATOM     11  C   UNL d   1     -41.485-122.536 -53.400  0.00  0.00     0.029 A 
ATOM     12  C   UNL d   1     -41.900-121.833 -53.527  0.00  0.00     0.006 A 
ATOM     13  C   UNL d   1     -42.159-121.639 -54.285  0.00  0.00     0.001 A 
ATOM     14  C   UNL d   1     -42.005-122.148 -54.916  0.00  0.00     0.000 A 
ATOM     15  C   UNL d   1     -41.591-122.850 -54.789  0.00  0.00     0.001 A 
ATOM     16  C   UNL d   1     -42.270-121.943 -55.670  0.00  0.00     0.000 C 
ATOM     17  C   UNL d   1     -41.331-123.044 -54.031  0.00  0.00     0.006 A 
ENDBRANCH  10  11
ENDBRANCH   1  10
TORSDOF 3
ENDMDL
MODEL 3
REMARK VINA RESULT:      -3.8      1.822      2.717
REMARK  3 active torsions:
REMARK  status: ('A' for Active; 'I' for Inactive)
REMARK       I    between atoms: C_2  and  N_1 
REMARK    1  A    between atoms: C_3  and  C_2 
REMARK    2  A    between atoms: S_5  and  C_3 
REMARK    3  A    between atoms: C_7  and  S_5 
ROOT
ATOM      1  C   UNL d   1     -41.729-123.075 -50.362  0.00  0.00     0.125 C 
ENDROOT
BRANCH   1   2
ATOM      2  C   UNL d   1     -41.702-123.104 -51.186  0.00  0.00     0.259 C 
ATOM      3  N   UNL d   1     -41.509-122.421 -51.621  0.00  0.00    -0.268 N 
ATOM      4  C   UNL d   1     -41.479-122.440 -52.445  0.00  0.00     0.110 A 
ATOM      5  C   UNL d   1     -41.345-121.720 -51.218  0.00  0.00     0.110 A 
ATOM      6  C   UNL d   1     -41.286-121.757 -52.867  0.00  0.00     0.142 A 
ATOM      7  O   UNL d   1     -41.123-121.057 -52.464  0.00  0.00    -0.300 OA
ATOM      8  C   UNL d   1     -41.152-121.038 -51.641  0.00  0.00     0.142 A 
ATOM      9  O   UNL d   1     -41.867-123.810 -51.588  0.00  0.00    -0.267 OA
ENDBRANCH   1   2
BRANCH   1  10
ATOM     10  S   UNL d   1     -41.982-123.735 -49.949  0.00  0.00    -0.095 SA
BRANCH  10  11
ATOM     11  C   UNL d   1     -42.081-123.693 -49.131  0.00  0.00     0.029 A 
ATOM     12  C   UNL d   1     -41.433-123.804 -48.631  0.00  0.00     0.006 A 
ATOM     13  C   UNL d   1     -41.532-123.763 -47.813  0.00  0.00     0.001 A 
ATOM     14  C   UNL d   1     -42.278-123.610 -47.496  0.00  0.00     0.000 A 
ATOM     15  C   UNL d   1     -42.925-123.499 -47.995  0.00  0.00     0.001 A 
ATOM     16  C   UNL d   1     -42.363-123.571 -46.676  0.00  0.00     0.000 C 
ATOM     17  C   UNL d   1     -42.826-123.541 -48.813  0.00  0.00     0.006 A 
ENDBRANCH  10  11
ENDBRANCH   1  10
TORSDOF 3
ENDMDL
