MODEL 1
REMARK VINA RESULT:      11.2      0.000      0.000
REMARK  5 active torsions:
REMARK  status: ('A' for Active; 'I' for Inactive)
REMARK    1  A    between atoms: C_6  and  N_2 
REMARK    2  A    between atoms: C_8  and  C_6 
REMARK    3  A    between atoms: C_13  and  C_8 
REMARK    4  A    between atoms: C_9  and  O_12 
REMARK    5  A    between atoms: O_12  and  C_13 
ROOT
ATOM      1  N   UNL d   1      44.475 -14.136  44.704  0.00  0.00    -0.227 NA
ATOM      2  N   UNL d   1      45.550 -14.930  44.771  0.00  0.00    -0.289 N 
ATOM      3  C   UNL d   1      44.714 -14.931  44.819  0.00  0.00     0.148 A 
ATOM      4  C   UNL d   1      45.811 -14.167  44.631  0.00  0.00     0.083 A 
ATOM      5  C   UNL d   1      45.115 -13.654  44.588  0.00  0.00     0.099 A 
ATOM      6  C   UNL d   1      44.221 -15.588  44.955  0.00  0.00     0.041 C 
ATOM      7  C   UNL d   1      46.561 -13.864  44.539  0.00  0.00     0.019 A 
ATOM      8  C   UNL d   1      45.270 -12.846  44.447  0.00  0.00     0.021 A 
ATOM      9  C   UNL d   1      46.635 -13.069  44.405  0.00  0.00     0.002 A 
ATOM     10  C   UNL d   1      45.985 -12.590  44.364  0.00  0.00     0.002 A 
ENDROOT
BRANCH   2  11
ATOM     11  C   UNL d   1      45.881 -15.651  44.869  0.00  0.00     0.084 C 
BRANCH  11  12
ATOM     12  C   UNL d   1      45.586 -16.329  44.506  0.00  0.00     0.046 C 
BRANCH  12  13
ATOM     13  C   UNL d   1      46.062 -16.924  44.207  0.00  0.00     0.124 C 
BRANCH  13  14
ATOM     14  O   UNL d   1      46.108 -17.669  44.539  0.00  0.00    -0.305 OA
BRANCH  14  15
ATOM     15  C   UNL d   1      46.286 -18.348  44.107  0.00  0.00     0.100 A 
ATOM     16  C   UNL d   1      46.357 -19.073  44.522  0.00  0.00     0.025 A 
ATOM     17  C   UNL d   1      46.537 -19.778  44.104  0.00  0.00     0.002 A 
ATOM     18  C   UNL d   1      46.647 -19.758  43.275  0.00  0.00     0.000 A 
ATOM     19  C   UNL d   1      46.576 -19.033  42.860  0.00  0.00     0.002 A 
ATOM     20  C   UNL d   1      46.398 -18.355  43.290  0.00  0.00     0.025 A 
ENDBRANCH  14  15
ENDBRANCH  13  14
ENDBRANCH  12  13
ENDBRANCH  11  12
ENDBRANCH   2  11
TORSDOF 5
ENDMDL
MODEL 2
REMARK VINA RESULT:      13.9      1.912      4.901
REMARK  5 active torsions:
REMARK  status: ('A' for Active; 'I' for Inactive)
REMARK    1  A    between atoms: C_6  and  N_2 
REMARK    2  A    between atoms: C_8  and  C_6 
REMARK    3  A    between atoms: C_13  and  C_8 
REMARK    4  A    between atoms: C_9  and  O_12 
REMARK    5  A    between atoms: O_12  and  C_13 
ROOT
ATOM      1  N   UNL d   1      46.538 -20.062  42.315  0.00  0.00    -0.227 NA
ATOM      2  N   UNL d   1      46.365 -18.976  43.077  0.00  0.00    -0.289 N 
ATOM      3  C   UNL d   1      46.424 -19.811  43.106  0.00  0.00     0.148 A 
ATOM      4  C   UNL d   1      46.440 -18.728  42.301  0.00  0.00     0.083 A 
ATOM      5  C   UNL d   1      46.552 -19.430  41.809  0.00  0.00     0.099 A 
ATOM      6  C   UNL d   1      46.378 -20.293  43.784  0.00  0.00     0.041 C 
ATOM      7  C   UNL d   1      46.425 -17.983  41.971  0.00  0.00     0.019 A 
ATOM      8  C   UNL d   1      46.640 -19.289  40.991  0.00  0.00     0.021 A 
ATOM      9  C   UNL d   1      46.517 -17.922  41.169  0.00  0.00     0.002 A 
ATOM     10  C   UNL d   1      46.621 -18.579  40.709  0.00  0.00     0.002 A 
ENDROOT
BRANCH   2  11
ATOM     11  C   UNL d   1      46.254 -18.634  43.791  0.00  0.00     0.084 C 
BRANCH  11  12
ATOM     12  C   UNL d   1      45.943 -17.875  43.878  0.00  0.00     0.046 C 
BRANCH  12  13
ATOM     13  C   UNL d   1      46.107 -17.391  44.517  0.00  0.00     0.124 C 
BRANCH  13  14
ATOM     14  O   UNL d   1      45.529 -17.000  44.941  0.00  0.00    -0.305 OA
BRANCH  14  15
ATOM     15  C   UNL d   1      45.407 -16.185  44.897  0.00  0.00     0.100 A 
ATOM     16  C   UNL d   1      46.076 -15.689  44.808  0.00  0.00     0.025 A 
ATOM     17  C   UNL d   1      45.978 -14.858  44.761  0.00  0.00     0.002 A 
ATOM     18  C   UNL d   1      45.212 -14.523  44.804  0.00  0.00     0.000 A 
ATOM     19  C   UNL d   1      44.542 -15.019  44.893  0.00  0.00     0.002 A 
ATOM     20  C   UNL d   1      44.663 -15.831  44.936  0.00  0.00     0.025 A 
ENDBRANCH  14  15
ENDBRANCH  13  14
ENDBRANCH  12  13
ENDBRANCH  11  12
ENDBRANCH   2  11
TORSDOF 5
ENDMDL
