MODEL 1
REMARK VINA RESULT:      -2.3      0.000      0.000
REMARK  5 active torsions:
REMARK  status: ('A' for Active; 'I' for Inactive)
REMARK    1  A    between atoms: C_6  and  C_1 
REMARK    2  A    between atoms: C_11  and  N_3 
REMARK    3  A    between atoms: C_16  and  C_11 
REMARK    4  A    between atoms: C_13  and  O_15 
REMARK    5  A    between atoms: O_15  and  C_16 
ROOT
ATOM      1  C   UNL d   1      32.917  22.274 -22.366  0.00  0.00     0.171 A 
ATOM      2  N   UNL d   1      32.795  23.048 -22.633  0.00  0.00    -0.225 NA
ATOM      3  N   UNL d   1      33.103  21.799 -23.023  0.00  0.00    -0.286 N 
ATOM      4  C   UNL d   1      33.097  22.280 -23.697  0.00  0.00     0.083 A 
ATOM      5  C   UNL d   1      32.906  23.052 -23.457  0.00  0.00     0.099 A 
ATOM      6  C   UNL d   1      33.239  22.125 -24.505  0.00  0.00     0.019 A 
ATOM      7  C   UNL d   1      32.858  23.663 -24.020  0.00  0.00     0.021 A 
ATOM      8  C   UNL d   1      33.190  22.733 -25.060  0.00  0.00     0.002 A 
ATOM      9  C   UNL d   1      32.999  23.504 -24.817  0.00  0.00     0.002 A 
ENDROOT
BRANCH   3  10
ATOM     10  C   UNL d   1      33.241  21.006 -22.840  0.00  0.00     0.108 C 
BRANCH  10  11
ATOM     11  C   UNL d   1      33.038  20.419 -23.383  0.00  0.00     0.142 C 
BRANCH  11  12
ATOM     12  O   UNL d   1      33.053  19.626 -23.154  0.00  0.00    -0.304 OA
BRANCH  12  13
ATOM     13  C   UNL d   1      32.864  19.038 -23.702  0.00  0.00     0.100 A 
ATOM     14  C   UNL d   1      32.363  18.422 -23.474  0.00  0.00     0.025 A 
ATOM     15  C   UNL d   1      32.170  17.830 -24.017  0.00  0.00     0.002 A 
ATOM     16  C   UNL d   1      31.671  17.211 -23.798  0.00  0.00     0.000 C 
ATOM     17  C   UNL d   1      32.482  17.861 -24.787  0.00  0.00     0.000 A 
ATOM     18  C   UNL d   1      32.981  18.481 -25.006  0.00  0.00     0.002 A 
ATOM     19  C   UNL d   1      33.170  19.069 -24.459  0.00  0.00     0.025 A 
ENDBRANCH  12  13
ENDBRANCH  11  12
ENDBRANCH  10  11
ENDBRANCH   3  10
BRANCH   1  20
ATOM     20  C   UNL d   1      32.862  22.018 -21.582  0.00  0.00     0.134 A 
ATOM     21  O   UNL d   1      33.239  21.569 -21.164  0.00  0.00    -0.302 OA
ATOM     22  C   UNL d   1      33.044  21.459 -20.482  0.00  0.00     0.123 A 
ATOM     23  C   UNL d   1      32.465  21.800 -20.208  0.00  0.00     0.029 A 
ATOM     24  C   UNL d   1      32.090  22.247 -20.627  0.00  0.00     0.030 A 
ENDBRANCH   1  20
TORSDOF 5
ENDMDL
MODEL 2
REMARK VINA RESULT:      -1.9      1.121      2.847
REMARK  5 active torsions:
REMARK  status: ('A' for Active; 'I' for Inactive)
REMARK    1  A    between atoms: C_6  and  C_1 
REMARK    2  A    between atoms: C_11  and  N_3 
REMARK    3  A    between atoms: C_16  and  C_11 
REMARK    4  A    between atoms: C_13  and  O_15 
REMARK    5  A    between atoms: O_15  and  C_16 
ROOT
ATOM      1  C   UNL d   1      33.240  21.440 -23.163  0.00  0.00     0.171 A 
ATOM      2  N   UNL d   1      33.240  21.791 -22.413  0.00  0.00    -0.225 NA
ATOM      3  N   UNL d   1      33.239  20.614 -23.063  0.00  0.00    -0.286 N 
ATOM      4  C   UNL d   1      33.239  20.454 -22.251  0.00  0.00     0.083 A 
ATOM      5  C   UNL d   1      33.240  21.181 -21.848  0.00  0.00     0.099 A 
ATOM      6  C   UNL d   1      33.238  19.743 -21.813  0.00  0.00     0.019 A 
ATOM      7  C   UNL d   1      33.240  21.196 -21.016  0.00  0.00     0.021 A 
ATOM      8  C   UNL d   1      33.238  19.762 -20.988  0.00  0.00     0.002 A 
ATOM      9  C   UNL d   1      33.239  20.491 -20.589  0.00  0.00     0.002 A 
ENDROOT
BRANCH   3  10
ATOM     10  C   UNL d   1      33.238  20.187 -23.769  0.00  0.00     0.108 C 
BRANCH  10  11
ATOM     11  C   UNL d   1      32.887  19.441 -23.797  0.00  0.00     0.142 C 
BRANCH  11  12
ATOM     12  O   UNL d   1      32.962  18.977 -24.475  0.00  0.00    -0.304 OA
BRANCH  12  13
ATOM     13  C   UNL d   1      32.525  18.281 -24.547  0.00  0.00     0.100 A 
ATOM     14  C   UNL d   1      32.882  17.560 -24.358  0.00  0.00     0.025 A 
ATOM     15  C   UNL d   1      32.449  16.860 -24.427  0.00  0.00     0.002 A 
ATOM     16  C   UNL d   1      32.797  16.136 -24.241  0.00  0.00     0.000 C 
ATOM     17  C   UNL d   1      31.660  16.888 -24.686  0.00  0.00     0.000 A 
ATOM     18  C   UNL d   1      31.311  17.612 -24.872  0.00  0.00     0.002 A 
ATOM     19  C   UNL d   1      31.748  18.309 -24.801  0.00  0.00     0.025 A 
ENDBRANCH  12  13
ENDBRANCH  11  12
ENDBRANCH  10  11
ENDBRANCH   3  10
BRANCH   1  20
ATOM     20  C   UNL d   1      33.240  21.841 -23.885  0.00  0.00     0.134 A 
ATOM     21  O   UNL d   1      33.240  21.645 -24.579  0.00  0.00    -0.302 OA
ATOM     22  C   UNL d   1      33.240  22.143 -25.096  0.00  0.00     0.123 A 
ATOM     23  C   UNL d   1      33.241  22.848 -24.924  0.00  0.00     0.029 A 
ATOM     24  C   UNL d   1      33.241  23.041 -24.232  0.00  0.00     0.030 A 
ENDBRANCH   1  20
TORSDOF 5
ENDMDL
MODEL 3
REMARK VINA RESULT:      -0.4      2.511      5.419
REMARK  5 active torsions:
REMARK  status: ('A' for Active; 'I' for Inactive)
REMARK    1  A    between atoms: C_6  and  C_1 
REMARK    2  A    between atoms: C_11  and  N_3 
REMARK    3  A    between atoms: C_16  and  C_11 
REMARK    4  A    between atoms: C_13  and  O_15 
REMARK    5  A    between atoms: O_15  and  C_16 
ROOT
ATOM      1  C   UNL d   1      30.461  17.155 -24.495  0.00  0.00     0.171 A 
ATOM      2  N   UNL d   1      30.518  16.386 -24.797  0.00  0.00    -0.225 NA
ATOM      3  N   UNL d   1      31.232  17.433 -24.348  0.00  0.00    -0.286 N 
ATOM      4  C   UNL d   1      31.765  16.836 -24.558  0.00  0.00     0.083 A 
ATOM      5  C   UNL d   1      31.325  16.188 -24.836  0.00  0.00     0.099 A 
ATOM      6  C   UNL d   1      32.598  16.786 -24.537  0.00  0.00     0.019 A 
ATOM      7  C   UNL d   1      31.714  15.498 -25.090  0.00  0.00     0.021 A 
ATOM      8  C   UNL d   1      32.981  16.100 -24.790  0.00  0.00     0.002 A 
ATOM      9  C   UNL d   1      32.537  15.454 -25.067  0.00  0.00     0.002 A 
ENDROOT
BRANCH   3  10
ATOM     10  C   UNL d   1      31.263  18.200 -24.043  0.00  0.00     0.108 C 
BRANCH  10  11
ATOM     11  C   UNL d   1      31.830  18.392 -23.476  0.00  0.00     0.142 C 
BRANCH  11  12
ATOM     12  O   UNL d   1      32.184  19.138 -23.486  0.00  0.00    -0.304 OA
BRANCH  12  13
ATOM     13  C   UNL d   1      32.509  19.447 -22.794  0.00  0.00     0.100 A 
ATOM     14  C   UNL d   1      32.419  20.252 -22.630  0.00  0.00     0.025 A 
ATOM     15  C   UNL d   1      32.742  20.567 -21.938  0.00  0.00     0.002 A 
ATOM     16  C   UNL d   1      32.657  21.369 -21.767  0.00  0.00     0.000 C 
ATOM     17  C   UNL d   1      33.155  20.071 -21.415  0.00  0.00     0.000 A 
ATOM     18  C   UNL d   1      33.241  19.269 -21.586  0.00  0.00     0.002 A 
ATOM     19  C   UNL d   1      32.916  18.959 -22.278  0.00  0.00     0.025 A 
ENDBRANCH  12  13
ENDBRANCH  11  12
ENDBRANCH  10  11
ENDBRANCH   3  10
BRANCH   1  20
ATOM     20  C   UNL d   1      29.762  17.574 -24.364  0.00  0.00     0.134 A 
ATOM     21  O   UNL d   1      29.504  18.216 -24.567  0.00  0.00    -0.302 OA
ATOM     22  C   UNL d   1      28.852  18.429 -24.353  0.00  0.00     0.123 A 
ATOM     23  C   UNL d   1      28.448  17.999 -23.930  0.00  0.00     0.029 A 
ATOM     24  C   UNL d   1      28.707  17.359 -23.729  0.00  0.00     0.030 A 
ENDBRANCH   1  20
TORSDOF 5
ENDMDL
