MODEL 1
REMARK VINA RESULT:      41.4      0.000      0.000
REMARK  3 active torsions:
REMARK  status: ('A' for Active; 'I' for Inactive)
REMARK    1  A    between atoms: C_6  and  N_1 
REMARK    2  A    between atoms: C_3  and  C_2 
REMARK       I    between atoms: N_4  and  C_3 
REMARK    3  A    between atoms: C_9  and  N_4 
ROOT
ATOM      1  C   UNL d   1     -50.754  26.585  33.727  0.00  0.00     0.069 A 
ATOM      2  C   UNL d   1     -50.873  27.395  33.603  0.00  0.00     0.064 A 
ATOM      3  C   UNL d   1     -49.526  27.653  34.014  0.00  0.00     0.128 A 
ATOM      4  C   UNL d   1     -50.262  27.927  33.746  0.00  0.00     0.035 A 
ATOM      5  C   UNL d   1     -50.019  26.312  33.995  0.00  0.00     0.007 A 
ATOM      6  C   UNL d   1     -49.406  26.848  34.138  0.00  0.00     0.024 A 
ATOM      7 CL   UNL d   1     -51.601  27.674  33.337  0.00  0.00    -0.082 Cl
ENDROOT
BRANCH   1   8
ATOM      8  C   UNL d   1     -51.365  26.052  33.584  0.00  0.00     0.281 C 
ATOM      9  N   UNL d   1     -51.249  25.246  33.715  0.00  0.00    -0.189 NA
ATOM     10  O   UNL d   1     -52.092  26.328  33.310  0.00  0.00    -0.265 OA
BRANCH   9  11
ATOM     11  C   UNL d   1     -51.717  24.568  33.637  0.00  0.00     0.166 A 
ATOM     12  N   UNL d   1     -52.524  24.606  33.812  0.00  0.00    -0.225 NA
ATOM     13  C   UNL d   1     -52.973  23.930  33.729  0.00  0.00     0.101 A 
ATOM     14  C   UNL d   1     -52.632  23.222  33.478  0.00  0.00     0.021 A 
ATOM     15  C   UNL d   1     -51.831  23.191  33.306  0.00  0.00     0.005 A 
ATOM     16  C   UNL d   1     -51.366  23.867  33.385  0.00  0.00     0.039 A 
ENDBRANCH   9  11
ENDBRANCH   1   8
BRANCH   3  17
ATOM     17  N   UNL d   1     -48.915  28.195  34.156  0.00  0.00    -0.114 N 
ATOM     18  O   UNL d   1     -48.912  28.918  33.759  0.00  0.00    -0.532 OA
ATOM     19  O   UNL d   1     -48.314  28.014  34.689  0.00  0.00    -0.532 OA
ENDBRANCH   3  17
TORSDOF 3
ENDMDL
MODEL 2
REMARK VINA RESULT:      44.3      1.618      4.292
REMARK  3 active torsions:
REMARK  status: ('A' for Active; 'I' for Inactive)
REMARK    1  A    between atoms: C_6  and  N_1 
REMARK    2  A    between atoms: C_3  and  C_2 
REMARK       I    between atoms: N_4  and  C_3 
REMARK    3  A    between atoms: C_9  and  N_4 
ROOT
ATOM      1  C   UNL d   1     -51.428  25.323  33.483  0.00  0.00     0.069 A 
ATOM      2  C   UNL d   1     -52.078  25.828  33.406  0.00  0.00     0.064 A 
ATOM      3  C   UNL d   1     -52.954  24.696  33.391  0.00  0.00     0.128 A 
ATOM      4  C   UNL d   1     -52.838  25.517  33.360  0.00  0.00     0.035 A 
ATOM      5  C   UNL d   1     -51.543  24.503  33.514  0.00  0.00     0.007 A 
ATOM      6  C   UNL d   1     -52.309  24.191  33.468  0.00  0.00     0.024 A 
ATOM      7 CL   UNL d   1     -51.971  26.645  33.375  0.00  0.00    -0.082 Cl
ENDROOT
BRANCH   1   8
ATOM      8  C   UNL d   1     -50.667  25.634  33.530  0.00  0.00     0.281 C 
ATOM      9  N   UNL d   1     -50.552  26.406  33.797  0.00  0.00    -0.189 NA
ATOM     10  O   UNL d   1     -50.022  25.170  33.308  0.00  0.00    -0.265 OA
BRANCH   9  11
ATOM     11  C   UNL d   1     -49.891  26.891  33.915  0.00  0.00     0.166 A 
ATOM     12  N   UNL d   1     -49.331  26.972  33.313  0.00  0.00    -0.225 NA
ATOM     13  C   UNL d   1     -48.686  27.453  33.443  0.00  0.00     0.101 A 
ATOM     14  C   UNL d   1     -48.591  27.852  34.158  0.00  0.00     0.021 A 
ATOM     15  C   UNL d   1     -49.151  27.768  34.752  0.00  0.00     0.005 A 
ATOM     16  C   UNL d   1     -49.808  27.284  34.633  0.00  0.00     0.039 A 
ENDBRANCH   9  11
ENDBRANCH   1   8
BRANCH   3  17
ATOM     17  N   UNL d   1     -53.722  24.389  33.343  0.00  0.00    -0.114 N 
ATOM     18  O   UNL d   1     -53.834  23.572  33.329  0.00  0.00    -0.532 OA
ATOM     19  O   UNL d   1     -54.372  24.896  33.311  0.00  0.00    -0.532 OA
ENDBRANCH   3  17
TORSDOF 3
ENDMDL
