MODEL 1
REMARK VINA RESULT:      30.8      0.000      0.000
REMARK  2 active torsions:
REMARK  status: ('A' for Active; 'I' for Inactive)
REMARK    1  A    between atoms: N_2  and  C_1 
REMARK    2  A    between atoms: C_4  and  C_1 
ROOT
ATOM      1  C   UNL d   1     -55.829 -99.373 -44.252  0.00  0.00     0.120 C 
ATOM      2  S   UNL d   1     -55.308 -98.758 -44.071  0.00  0.00    -0.059 SA
ENDROOT
BRANCH   1   3
ATOM      3  N   UNL d   1     -56.642 -99.217 -44.324  0.00  0.00    -0.293 N 
ATOM      4  C   UNL d   1     -57.145 -99.357 -43.684  0.00  0.00     0.100 A 
ATOM      5  C   UNL d   1     -57.953 -99.203 -43.751  0.00  0.00     0.100 A 
ATOM      6  N   UNL d   1     -58.257 -98.910 -44.459  0.00  0.00    -0.299 N 
ATOM      7  C   UNL d   1     -57.754 -98.770 -45.099  0.00  0.00     0.100 A 
ATOM      8  C   UNL d   1     -59.067 -98.755 -44.528  0.00  0.00     0.100 C 
ATOM      9  C   UNL d   1     -56.940 -98.926 -45.027  0.00  0.00     0.100 A 
ENDBRANCH   1   3
BRANCH   1  10
ATOM     10  C   UNL d   1     -55.549-100.144 -44.364  0.00  0.00     0.027 A 
ATOM     11  C   UNL d   1     -55.042-100.321 -44.998  0.00  0.00     0.003 A 
ATOM     12  C   UNL d   1     -54.767-101.091 -45.103  0.00  0.00     0.007 A 
ATOM     13  C   UNL d   1     -54.994-101.684 -44.578  0.00  0.00     0.035 A 
ATOM     14  C   UNL d   1     -55.501-101.507 -43.944  0.00  0.00     0.007 A 
ATOM     15 BR   UNL d   1     -54.719-102.457 -44.682  0.00  0.00    -0.049 Br
ATOM     16  C   UNL d   1     -55.776-100.737 -43.839  0.00  0.00     0.003 A 
ENDBRANCH   1  10
TORSDOF 2
ENDMDL
