MODEL 1
REMARK VINA RESULT:      -3.3      0.000      0.000
REMARK  5 active torsions:
REMARK  status: ('A' for Active; 'I' for Inactive)
REMARK    1  A    between atoms: C_8  and  C_1 
REMARK    2  A    between atoms: N_9  and  C_8 
REMARK    3  A    between atoms: C_15  and  C_8 
REMARK    4  A    between atoms: C_16  and  N_11 
REMARK    5  A    between atoms: C_19  and  C_16 
ROOT
ATOM      1  C   UNL d   1     -48.876  13.908  22.926  0.00  0.00     0.075 C 
ENDROOT
BRANCH   1   2
ATOM      2  C   UNL d   1     -49.222  13.156  22.959  0.00  0.00     0.106 A 
ATOM      3  C   UNL d   1     -49.366  12.654  22.309  0.00  0.00     0.290 A 
ATOM      4  N   UNL d   1     -49.717  11.963  22.592  0.00  0.00    -0.169 N 
ATOM      5  O   UNL d   1     -49.187  12.822  21.517  0.00  0.00    -0.265 OA
ATOM      6  N   UNL d   1     -50.022  11.231  22.374  0.00  0.00    -0.138 NA
ATOM      7  C   UNL d   1     -49.792  12.034  23.414  0.00  0.00     0.200 A 
ATOM      8  C   UNL d   1     -50.286  10.845  23.055  0.00  0.00     0.222 A 
ATOM      9  N   UNL d   1     -50.143  11.343  23.698  0.00  0.00    -0.197 NA
ATOM     10  S   UNL d   1     -49.488  12.766  23.641  0.00  0.00    -0.042 SA
ENDBRANCH   1   2
BRANCH   1  11
ATOM     11  N   UNL d   1     -48.056  13.971  22.871  0.00  0.00    -0.301 N 
ATOM     12  C   UNL d   1     -47.586  13.774  23.523  0.00  0.00     0.100 A 
ATOM     13  C   UNL d   1     -46.761  13.836  23.475  0.00  0.00     0.100 A 
ATOM     14  N   UNL d   1     -46.401  14.098  22.767  0.00  0.00    -0.300 N 
ATOM     15  C   UNL d   1     -46.881  14.292  22.121  0.00  0.00     0.100 A 
ATOM     16  C   UNL d   1     -47.701  14.229  22.175  0.00  0.00     0.100 A 
BRANCH  14  17
ATOM     17  C   UNL d   1     -45.588  14.159  22.716  0.00  0.00     0.080 C 
BRANCH  17  18
ATOM     18  C   UNL d   1     -45.145  13.538  22.406  0.00  0.00     0.018 A 
ATOM     19  C   UNL d   1     -45.159  12.797  22.766  0.00  0.00     0.002 A 
ATOM     20  C   UNL d   1     -44.721  12.179  22.461  0.00  0.00     0.000 A 
ATOM     21  C   UNL d   1     -44.261  12.295  21.786  0.00  0.00     0.000 A 
ATOM     22  C   UNL d   1     -44.242  13.037  21.418  0.00  0.00     0.000 A 
ATOM     23  C   UNL d   1     -44.687  13.655  21.733  0.00  0.00     0.002 A 
ENDBRANCH  17  18
ENDBRANCH  14  17
ENDBRANCH   1  11
BRANCH   1  24
ATOM     24  C   UNL d   1     -49.347  14.579  22.948  0.00  0.00     0.017 A 
ATOM     25  C   UNL d   1     -49.495  14.941  23.678  0.00  0.00     0.002 A 
ATOM     26  C   UNL d   1     -49.972  15.619  23.697  0.00  0.00     0.000 A 
ATOM     27  C   UNL d   1     -50.286  15.922  23.019  0.00  0.00     0.000 A 
ATOM     28  C   UNL d   1     -50.124  15.540  22.289  0.00  0.00     0.000 A 
ATOM     29  C   UNL d   1     -49.662  14.879  22.258  0.00  0.00     0.002 A 
ENDBRANCH   1  24
TORSDOF 5
ENDMDL
MODEL 2
REMARK VINA RESULT:      -2.6      1.192      1.804
REMARK  5 active torsions:
REMARK  status: ('A' for Active; 'I' for Inactive)
REMARK    1  A    between atoms: C_8  and  C_1 
REMARK    2  A    between atoms: N_9  and  C_8 
REMARK    3  A    between atoms: C_15  and  C_8 
REMARK    4  A    between atoms: C_16  and  N_11 
REMARK    5  A    between atoms: C_19  and  C_16 
ROOT
ATOM      1  C   UNL d   1     -47.891  13.393  22.741  0.00  0.00     0.075 C 
ENDROOT
BRANCH   1   2
ATOM      2  C   UNL d   1     -48.522  12.864  22.829  0.00  0.00     0.106 A 
ATOM      3  C   UNL d   1     -48.884  12.426  22.217  0.00  0.00     0.290 A 
ATOM      4  N   UNL d   1     -49.486  11.971  22.551  0.00  0.00    -0.169 N 
ATOM      5  O   UNL d   1     -48.673  12.447  21.416  0.00  0.00    -0.265 OA
ATOM      6  N   UNL d   1     -50.079  11.425  22.387  0.00  0.00    -0.138 NA
ATOM      7  C   UNL d   1     -49.501  12.124  23.365  0.00  0.00     0.200 A 
ATOM      8  C   UNL d   1     -50.462  11.236  23.094  0.00  0.00     0.222 A 
ATOM      9  N   UNL d   1     -50.103  11.669  23.698  0.00  0.00    -0.197 NA
ATOM     10  S   UNL d   1     -48.909  12.672  23.537  0.00  0.00    -0.042 SA
ENDBRANCH   1   2
BRANCH   1  11
ATOM     11  N   UNL d   1     -47.119  13.112  22.799  0.00  0.00    -0.301 N 
ATOM     12  C   UNL d   1     -46.756  13.066  23.542  0.00  0.00     0.100 A 
ATOM     13  C   UNL d   1     -45.980  12.785  23.609  0.00  0.00     0.100 A 
ATOM     14  N   UNL d   1     -45.560  12.546  22.926  0.00  0.00    -0.300 N 
ATOM     15  C   UNL d   1     -45.933  12.597  22.188  0.00  0.00     0.100 A 
ATOM     16  C   UNL d   1     -46.706  12.878  22.128  0.00  0.00     0.100 A 
BRANCH  14  17
ATOM     17  C   UNL d   1     -44.794  12.268  22.988  0.00  0.00     0.080 C 
BRANCH  17  18
ATOM     18  C   UNL d   1     -44.656  11.475  23.160  0.00  0.00     0.018 A 
ATOM     19  C   UNL d   1     -43.927  11.133  22.992  0.00  0.00     0.002 A 
ATOM     20  C   UNL d   1     -43.787  10.347  23.161  0.00  0.00     0.000 A 
ATOM     21  C   UNL d   1     -44.381   9.888  23.505  0.00  0.00     0.000 A 
ATOM     22  C   UNL d   1     -45.118  10.225  23.677  0.00  0.00     0.000 A 
ATOM     23  C   UNL d   1     -45.250  11.020  23.503  0.00  0.00     0.002 A 
ENDBRANCH  17  18
ENDBRANCH  14  17
ENDBRANCH   1  11
BRANCH   1  24
ATOM     24  C   UNL d   1     -48.038  14.188  22.596  0.00  0.00     0.017 A 
ATOM     25  C   UNL d   1     -47.599  14.577  22.013  0.00  0.00     0.002 A 
ATOM     26  C   UNL d   1     -47.749  15.379  21.870  0.00  0.00     0.000 A 
ATOM     27  C   UNL d   1     -48.313  15.775  22.290  0.00  0.00     0.000 A 
ATOM     28  C   UNL d   1     -48.748  15.362  22.878  0.00  0.00     0.000 A 
ATOM     29  C   UNL d   1     -48.610  14.581  23.026  0.00  0.00     0.002 A 
ENDBRANCH   1  24
TORSDOF 5
ENDMDL
MODEL 3
REMARK VINA RESULT:      -2.0      1.950      4.778
REMARK  5 active torsions:
REMARK  status: ('A' for Active; 'I' for Inactive)
REMARK    1  A    between atoms: C_8  and  C_1 
REMARK    2  A    between atoms: N_9  and  C_8 
REMARK    3  A    between atoms: C_15  and  C_8 
REMARK    4  A    between atoms: C_16  and  N_11 
REMARK    5  A    between atoms: C_19  and  C_16 
ROOT
ATOM      1  C   UNL d   1     -46.304  12.747  22.572  0.00  0.00     0.075 C 
ENDROOT
BRANCH   1   2
ATOM      2  C   UNL d   1     -45.553  12.783  22.225  0.00  0.00     0.106 A 
ATOM      3  C   UNL d   1     -45.380  12.660  21.418  0.00  0.00     0.290 A 
ATOM      4  N   UNL d   1     -44.566  12.748  21.316  0.00  0.00    -0.169 N 
ATOM      5  O   UNL d   1     -45.931  12.480  20.825  0.00  0.00    -0.265 OA
ATOM      6  N   UNL d   1     -43.956  12.729  20.764  0.00  0.00    -0.138 NA
ATOM      7  C   UNL d   1     -44.233  12.926  22.053  0.00  0.00     0.200 A 
ATOM      8  C   UNL d   1     -43.247  12.892  21.153  0.00  0.00     0.222 A 
ATOM      9  N   UNL d   1     -43.420  13.014  21.950  0.00  0.00    -0.197 NA
ATOM     10  S   UNL d   1     -44.839  12.947  22.613  0.00  0.00    -0.042 SA
ENDBRANCH   1   2
BRANCH   1  11
ATOM     11  N   UNL d   1     -46.786  13.415  22.559  0.00  0.00    -0.301 N 
ATOM     12  C   UNL d   1     -46.753  13.955  23.187  0.00  0.00     0.100 A 
ATOM     13  C   UNL d   1     -47.235  14.628  23.181  0.00  0.00     0.100 A 
ATOM     14  N   UNL d   1     -47.756  14.766  22.541  0.00  0.00    -0.300 N 
ATOM     15  C   UNL d   1     -47.780  14.220  21.919  0.00  0.00     0.100 A 
ATOM     16  C   UNL d   1     -47.298  13.551  21.931  0.00  0.00     0.100 A 
BRANCH  14  17
ATOM     17  C   UNL d   1     -48.232  15.430  22.532  0.00  0.00     0.080 C 
BRANCH  17  18
ATOM     18  C   UNL d   1     -49.025  15.372  22.749  0.00  0.00     0.018 A 
ATOM     19  C   UNL d   1     -49.347  15.898  23.293  0.00  0.00     0.002 A 
ATOM     20  C   UNL d   1     -50.132  15.843  23.510  0.00  0.00     0.000 A 
ATOM     21  C   UNL d   1     -50.610  15.254  23.182  0.00  0.00     0.000 A 
ATOM     22  C   UNL d   1     -50.292  14.721  22.633  0.00  0.00     0.000 A 
ATOM     23  C   UNL d   1     -49.498  14.784  22.420  0.00  0.00     0.002 A 
ENDBRANCH  17  18
ENDBRANCH  14  17
ENDBRANCH   1  11
BRANCH   1  24
ATOM     24  C   UNL d   1     -46.562  12.051  22.924  0.00  0.00     0.017 A 
ATOM     25  C   UNL d   1     -46.016  11.584  23.335  0.00  0.00     0.002 A 
ATOM     26  C   UNL d   1     -46.279  10.883  23.689  0.00  0.00     0.000 A 
ATOM     27  C   UNL d   1     -47.052  10.658  23.636  0.00  0.00     0.000 A 
ATOM     28  C   UNL d   1     -47.590  11.146  23.214  0.00  0.00     0.000 A 
ATOM     29  C   UNL d   1     -47.345  11.831  22.865  0.00  0.00     0.002 A 
ENDBRANCH   1  24
TORSDOF 5
ENDMDL
MODEL 4
REMARK VINA RESULT:      -1.8      1.596      2.987
REMARK  5 active torsions:
REMARK  status: ('A' for Active; 'I' for Inactive)
REMARK    1  A    between atoms: C_8  and  C_1 
REMARK    2  A    between atoms: N_9  and  C_8 
REMARK    3  A    between atoms: C_15  and  C_8 
REMARK    4  A    between atoms: C_16  and  N_11 
REMARK    5  A    between atoms: C_19  and  C_16 
ROOT
ATOM      1  C   UNL d   1     -48.644  12.769  22.882  0.00  0.00     0.075 C 
ENDROOT
BRANCH   1   2
ATOM      2  C   UNL d   1     -48.479  13.543  22.640  0.00  0.00     0.106 A 
ATOM      3  C   UNL d   1     -48.241  13.777  21.876  0.00  0.00     0.290 A 
ATOM      4  N   UNL d   1     -48.137  14.596  21.879  0.00  0.00    -0.169 N 
ATOM      5  O   UNL d   1     -48.128  13.273  21.227  0.00  0.00    -0.265 OA
ATOM      6  N   UNL d   1     -47.929  15.245  21.419  0.00  0.00    -0.138 NA
ATOM      7  C   UNL d   1     -48.310  14.871  22.641  0.00  0.00     0.200 A 
ATOM      8  C   UNL d   1     -47.971  15.922  21.889  0.00  0.00     0.222 A 
ATOM      9  N   UNL d   1     -48.207  15.689  22.645  0.00  0.00    -0.197 NA
ATOM     10  S   UNL d   1     -48.520  14.226  23.109  0.00  0.00    -0.042 SA
ENDBRANCH   1   2
BRANCH   1  11
ATOM     11  N   UNL d   1     -48.021  12.266  23.076  0.00  0.00    -0.301 N 
ATOM     12  C   UNL d   1     -47.373  12.563  23.498  0.00  0.00     0.100 A 
ATOM     13  C   UNL d   1     -46.742  12.063  23.696  0.00  0.00     0.100 A 
ATOM     14  N   UNL d   1     -46.760  11.257  23.472  0.00  0.00    -0.300 N 
ATOM     15  C   UNL d   1     -47.413  10.971  23.051  0.00  0.00     0.100 A 
ATOM     16  C   UNL d   1     -48.037  11.474  22.857  0.00  0.00     0.100 A 
BRANCH  14  17
ATOM     17  C   UNL d   1     -46.139  10.762  23.666  0.00  0.00     0.080 C 
BRANCH  17  18
ATOM     18  C   UNL d   1     -45.382  10.917  23.380  0.00  0.00     0.018 A 
ATOM     19  C   UNL d   1     -45.228  11.611  22.966  0.00  0.00     0.002 A 
ATOM     20  C   UNL d   1     -44.479  11.768  22.681  0.00  0.00     0.000 A 
ATOM     21  C   UNL d   1     -43.869  11.226  22.807  0.00  0.00     0.000 A 
ATOM     22  C   UNL d   1     -44.017  10.525  23.223  0.00  0.00     0.000 A 
ATOM     23  C   UNL d   1     -44.776  10.375  23.507  0.00  0.00     0.002 A 
ENDBRANCH  17  18
ENDBRANCH  14  17
ENDBRANCH   1  11
BRANCH   1  24
ATOM     24  C   UNL d   1     -49.422  12.509  22.928  0.00  0.00     0.017 A 
ATOM     25  C   UNL d   1     -49.844  12.384  22.227  0.00  0.00     0.002 A 
ATOM     26  C   UNL d   1     -50.629  12.122  22.276  0.00  0.00     0.000 A 
ATOM     27  C   UNL d   1     -50.976  11.989  22.992  0.00  0.00     0.000 A 
ATOM     28  C   UNL d   1     -50.530  12.122  23.692  0.00  0.00     0.000 A 
ATOM     29  C   UNL d   1     -49.766  12.377  23.656  0.00  0.00     0.002 A 
ENDBRANCH   1  24
TORSDOF 5
ENDMDL
