MODEL 1
REMARK VINA RESULT:      -3.1      0.000      0.000
REMARK  1 active torsions:
REMARK  status: ('A' for Active; 'I' for Inactive)
REMARK    1  A    between atoms: C_7  and  C_4 
ROOT
ATOM      1  N   UNL d   1      31.313  15.771 -23.725  0.00  0.00    -0.211 NA
ATOM      2  C   UNL d   1      32.084  16.026 -23.537  0.00  0.00     0.140 A 
ATOM      3  C   UNL d   1      32.278  16.824 -23.613  0.00  0.00     0.051 A 
ATOM      4  C   UNL d   1      30.749  16.325 -23.988  0.00  0.00     0.183 A 
ATOM      5  C   UNL d   1      31.714  17.373 -23.875  0.00  0.00     0.104 A 
ATOM      6  O   UNL d   1      30.952  17.119 -24.061  0.00  0.00    -0.289 OA
ATOM      7  S   UNL d   1      32.648  15.485 -23.276  0.00  0.00    -0.057 SA
ATOM      8  C   UNL d   1      33.049  17.086 -23.426  0.00  0.00     0.004 A 
ATOM      9  C   UNL d   1      31.910  18.161 -23.949  0.00  0.00     0.025 A 
ATOM     10  C   UNL d   1      33.241  17.886 -23.503  0.00  0.00     0.000 A 
ATOM     11  C   UNL d   1      32.673  18.420 -23.764  0.00  0.00     0.002 A 
ENDROOT
BRANCH   4  12
ATOM     12  C   UNL d   1      29.991  16.068 -24.172  0.00  0.00     0.041 A 
ATOM     13  C   UNL d   1      29.378  16.164 -23.635  0.00  0.00     0.004 A 
ATOM     14  C   UNL d   1      28.622  15.904 -23.829  0.00  0.00     0.000 A 
ATOM     15  C   UNL d   1      28.006  16.000 -23.287  0.00  0.00     0.000 C 
ATOM     16  C   UNL d   1      28.475  15.548 -24.559  0.00  0.00     0.000 A 
ATOM     17  C   UNL d   1      29.095  15.454 -25.097  0.00  0.00     0.000 A 
ATOM     18  C   UNL d   1      29.855  15.714 -24.904  0.00  0.00     0.004 A 
ENDBRANCH   4  12
TORSDOF 1
ENDMDL
MODEL 2
REMARK VINA RESULT:      -2.9      2.029      3.281
REMARK  1 active torsions:
REMARK  status: ('A' for Active; 'I' for Inactive)
REMARK    1  A    between atoms: C_7  and  C_4 
ROOT
ATOM      1  N   UNL d   1      32.843  18.521 -24.048  0.00  0.00    -0.211 NA
ATOM      2  C   UNL d   1      32.991  19.340 -23.985  0.00  0.00     0.140 A 
ATOM      3  C   UNL d   1      33.042  19.688 -23.239  0.00  0.00     0.051 A 
ATOM      4  C   UNL d   1      32.748  18.067 -23.356  0.00  0.00     0.183 A 
ATOM      5  C   UNL d   1      32.946  19.233 -22.553  0.00  0.00     0.104 A 
ATOM      6  O   UNL d   1      32.799  18.424 -22.616  0.00  0.00    -0.289 OA
ATOM      7  S   UNL d   1      33.087  19.797 -24.665  0.00  0.00    -0.057 SA
ATOM      8  C   UNL d   1      33.190  20.507 -23.171  0.00  0.00     0.004 A 
ATOM      9  C   UNL d   1      32.997  19.582 -21.817  0.00  0.00     0.025 A 
ATOM     10  C   UNL d   1      33.240  20.854 -22.422  0.00  0.00     0.000 A 
ATOM     11  C   UNL d   1      33.144  20.392 -21.749  0.00  0.00     0.002 A 
ENDROOT
BRANCH   4  12
ATOM     12  C   UNL d   1      32.601  17.261 -23.422  0.00  0.00     0.041 A 
ATOM     13  C   UNL d   1      31.833  16.982 -23.479  0.00  0.00     0.004 A 
ATOM     14  C   UNL d   1      31.697  16.174 -23.545  0.00  0.00     0.000 A 
ATOM     15  C   UNL d   1      30.921  15.894 -23.602  0.00  0.00     0.000 C 
ATOM     16  C   UNL d   1      32.327  15.642 -23.555  0.00  0.00     0.000 A 
ATOM     17  C   UNL d   1      33.100  15.927 -23.498  0.00  0.00     0.000 A 
ATOM     18  C   UNL d   1      33.239  16.739 -23.431  0.00  0.00     0.004 A 
ENDBRANCH   4  12
TORSDOF 1
ENDMDL
MODEL 3
REMARK VINA RESULT:      -2.5      1.140      3.757
REMARK  1 active torsions:
REMARK  status: ('A' for Active; 'I' for Inactive)
REMARK    1  A    between atoms: C_7  and  C_4 
ROOT
ATOM      1  N   UNL d   1      32.505  17.032 -23.107  0.00  0.00    -0.211 NA
ATOM      2  C   UNL d   1      32.137  16.290 -23.202  0.00  0.00     0.140 A 
ATOM      3  C   UNL d   1      31.415  16.241 -23.598  0.00  0.00     0.051 A 
ATOM      4  C   UNL d   1      32.138  17.715 -23.412  0.00  0.00     0.183 A 
ATOM      5  C   UNL d   1      31.053  16.923 -23.900  0.00  0.00     0.104 A 
ATOM      6  O   UNL d   1      31.417  17.657 -23.806  0.00  0.00    -0.289 OA
ATOM      7  S   UNL d   1      32.494  15.609 -22.903  0.00  0.00    -0.057 SA
ATOM      8  C   UNL d   1      31.042  15.500 -23.696  0.00  0.00     0.004 A 
ATOM      9  C   UNL d   1      30.339  16.870 -24.291  0.00  0.00     0.025 A 
ATOM     10  C   UNL d   1      30.319  15.454 -24.093  0.00  0.00     0.000 A 
ATOM     11  C   UNL d   1      29.970  16.137 -24.388  0.00  0.00     0.002 A 
ENDROOT
BRANCH   4  12
ATOM     12  C   UNL d   1      32.504  18.444 -23.316  0.00  0.00     0.041 A 
ATOM     13  C   UNL d   1      32.623  18.753 -22.566  0.00  0.00     0.004 A 
ATOM     14  C   UNL d   1      32.990  19.484 -22.480  0.00  0.00     0.000 A 
ATOM     15  C   UNL d   1      33.109  19.794 -21.723  0.00  0.00     0.000 C 
ATOM     16  C   UNL d   1      33.240  19.908 -23.142  0.00  0.00     0.000 A 
ATOM     17  C   UNL d   1      33.118  19.593 -23.896  0.00  0.00     0.000 A 
ATOM     18  C   UNL d   1      32.749  18.860 -23.985  0.00  0.00     0.004 A 
ENDBRANCH   4  12
TORSDOF 1
ENDMDL
MODEL 4
REMARK VINA RESULT:      -2.4      4.999      6.615
REMARK  1 active torsions:
REMARK  status: ('A' for Active; 'I' for Inactive)
REMARK    1  A    between atoms: C_7  and  C_4 
ROOT
ATOM      1  N   UNL d   1      32.530  22.057 -21.718  0.00  0.00    -0.211 NA
ATOM      2  C   UNL d   1      32.410  22.778 -21.316  0.00  0.00     0.140 A 
ATOM      3  C   UNL d   1      32.647  22.849 -20.530  0.00  0.00     0.051 A 
ATOM      4  C   UNL d   1      32.888  21.419 -21.320  0.00  0.00     0.183 A 
ATOM      5  C   UNL d   1      33.004  22.212 -20.137  0.00  0.00     0.104 A 
ATOM      6  O   UNL d   1      33.123  21.500 -20.535  0.00  0.00    -0.289 OA
ATOM      7  S   UNL d   1      32.055  23.414 -21.703  0.00  0.00    -0.057 SA
ATOM      8  C   UNL d   1      32.530  23.569 -20.122  0.00  0.00     0.004 A 
ATOM      9  C   UNL d   1      33.238  22.287 -19.359  0.00  0.00     0.025 A 
ATOM     10  C   UNL d   1      32.769  23.638 -19.334  0.00  0.00     0.000 A 
ATOM     11  C   UNL d   1      33.121  22.999 -18.955  0.00  0.00     0.002 A 
ENDROOT
BRANCH   4  12
ATOM     12  C   UNL d   1      33.005  20.711 -21.720  0.00  0.00     0.041 A 
ATOM     13  C   UNL d   1      33.058  20.701 -22.538  0.00  0.00     0.004 A 
ATOM     14  C   UNL d   1      33.174  19.987 -22.929  0.00  0.00     0.000 A 
ATOM     15  C   UNL d   1      33.228  19.977 -23.754  0.00  0.00     0.000 C 
ATOM     16  C   UNL d   1      33.238  19.282 -22.506  0.00  0.00     0.000 A 
ATOM     17  C   UNL d   1      33.184  19.297 -21.682  0.00  0.00     0.000 A 
ATOM     18  C   UNL d   1      33.067  20.012 -21.287  0.00  0.00     0.004 A 
ENDBRANCH   4  12
TORSDOF 1
ENDMDL
MODEL 5
REMARK VINA RESULT:      -2.1      4.191      5.668
REMARK  1 active torsions:
REMARK  status: ('A' for Active; 'I' for Inactive)
REMARK    1  A    between atoms: C_7  and  C_4 
ROOT
ATOM      1  N   UNL d   1      33.215  20.566 -21.249  0.00  0.00    -0.211 NA
ATOM      2  C   UNL d   1      33.190  21.274 -20.808  0.00  0.00     0.140 A 
ATOM      3  C   UNL d   1      33.115  21.995 -21.201  0.00  0.00     0.051 A 
ATOM      4  C   UNL d   1      33.163  20.597 -22.079  0.00  0.00     0.183 A 
ATOM      5  C   UNL d   1      33.064  22.022 -22.028  0.00  0.00     0.104 A 
ATOM      6  O   UNL d   1      33.089  21.322 -22.463  0.00  0.00    -0.289 OA
ATOM      7  S   UNL d   1      33.240  21.252 -19.985  0.00  0.00    -0.057 SA
ATOM      8  C   UNL d   1      33.089  22.707 -20.765  0.00  0.00     0.004 A 
ATOM      9  C   UNL d   1      32.990  22.738 -22.413  0.00  0.00     0.025 A 
ATOM     10  C   UNL d   1      33.014  23.429 -21.161  0.00  0.00     0.000 A 
ATOM     11  C   UNL d   1      32.964  23.442 -21.982  0.00  0.00     0.002 A 
ENDROOT
BRANCH   4  12
ATOM     12  C   UNL d   1      33.188  19.897 -22.509  0.00  0.00     0.041 A 
ATOM     13  C   UNL d   1      33.196  19.914 -23.329  0.00  0.00     0.004 A 
ATOM     14  C   UNL d   1      33.221  19.208 -23.750  0.00  0.00     0.000 A 
ATOM     15  C   UNL d   1      33.228  19.225 -24.576  0.00  0.00     0.000 C 
ATOM     16  C   UNL d   1      33.238  18.484 -23.355  0.00  0.00     0.000 A 
ATOM     17  C   UNL d   1      33.231  18.472 -22.528  0.00  0.00     0.000 A 
ATOM     18  C   UNL d   1      33.206  19.179 -22.104  0.00  0.00     0.004 A 
ENDBRANCH   4  12
TORSDOF 1
ENDMDL
MODEL 6
REMARK VINA RESULT:      -2.0      3.731      5.389
REMARK  1 active torsions:
REMARK  status: ('A' for Active; 'I' for Inactive)
REMARK    1  A    between atoms: C_7  and  C_4 
ROOT
ATOM      1  N   UNL d   1      33.075  19.461 -22.116  0.00  0.00    -0.211 NA
ATOM      2  C   UNL d   1      33.116  18.868 -22.702  0.00  0.00     0.140 A 
ATOM      3  C   UNL d   1      33.157  19.085 -23.496  0.00  0.00     0.051 A 
ATOM      4  C   UNL d   1      33.077  20.262 -22.341  0.00  0.00     0.183 A 
ATOM      5  C   UNL d   1      33.159  19.884 -23.717  0.00  0.00     0.104 A 
ATOM      6  O   UNL d   1      33.119  20.469 -23.137  0.00  0.00    -0.289 OA
ATOM      7  S   UNL d   1      33.114  18.072 -22.487  0.00  0.00    -0.057 SA
ATOM      8  C   UNL d   1      33.198  18.496 -24.088  0.00  0.00     0.004 A 
ATOM      9  C   UNL d   1      33.200  20.093 -24.504  0.00  0.00     0.025 A 
ATOM     10  C   UNL d   1      33.240  18.715 -24.884  0.00  0.00     0.000 A 
ATOM     11  C   UNL d   1      33.241  19.511 -25.089  0.00  0.00     0.002 A 
ENDROOT
BRANCH   4  12
ATOM     12  C   UNL d   1      33.037  20.842 -21.761  0.00  0.00     0.041 A 
ATOM     13  C   UNL d   1      32.810  21.606 -21.952  0.00  0.00     0.004 A 
ATOM     14  C   UNL d   1      32.772  22.180 -21.364  0.00  0.00     0.000 A 
ATOM     15  C   UNL d   1      32.543  22.950 -21.558  0.00  0.00     0.000 C 
ATOM     16  C   UNL d   1      32.962  21.993 -20.583  0.00  0.00     0.000 A 
ATOM     17  C   UNL d   1      33.191  21.222 -20.394  0.00  0.00     0.000 A 
ATOM     18  C   UNL d   1      33.229  20.644 -20.983  0.00  0.00     0.004 A 
ENDBRANCH   4  12
TORSDOF 1
ENDMDL
MODEL 7
REMARK VINA RESULT:      -1.9      1.759      2.864
REMARK  1 active torsions:
REMARK  status: ('A' for Active; 'I' for Inactive)
REMARK    1  A    between atoms: C_7  and  C_4 
ROOT
ATOM      1  N   UNL d   1      32.750  18.200 -23.169  0.00  0.00    -0.211 NA
ATOM      2  C   UNL d   1      32.994  18.985 -23.030  0.00  0.00     0.140 A 
ATOM      3  C   UNL d   1      32.996  19.527 -23.653  0.00  0.00     0.051 A 
ATOM      4  C   UNL d   1      32.512  17.973 -23.934  0.00  0.00     0.183 A 
ATOM      5  C   UNL d   1      32.758  19.297 -24.413  0.00  0.00     0.104 A 
ATOM      6  O   UNL d   1      32.517  18.520 -24.549  0.00  0.00    -0.289 OA
ATOM      7  S   UNL d   1      33.232  19.219 -22.276  0.00  0.00    -0.057 SA
ATOM      8  C   UNL d   1      33.240  20.315 -23.520  0.00  0.00     0.004 A 
ATOM      9  C   UNL d   1      32.761  19.835 -25.026  0.00  0.00     0.025 A 
ATOM     10  C   UNL d   1      33.241  20.855 -24.145  0.00  0.00     0.000 A 
ATOM     11  C   UNL d   1      33.002  20.615 -24.894  0.00  0.00     0.002 A 
ENDROOT
BRANCH   4  12
ATOM     12  C   UNL d   1      32.272  17.198 -24.066  0.00  0.00     0.041 A 
ATOM     13  C   UNL d   1      31.475  17.005 -24.069  0.00  0.00     0.004 A 
ATOM     14  C   UNL d   1      31.246  16.227 -24.202  0.00  0.00     0.000 A 
ATOM     15  C   UNL d   1      30.442  16.033 -24.205  0.00  0.00     0.000 C 
ATOM     16  C   UNL d   1      31.810  15.639 -24.332  0.00  0.00     0.000 A 
ATOM     17  C   UNL d   1      32.612  15.838 -24.327  0.00  0.00     0.000 A 
ATOM     18  C   UNL d   1      32.845  16.619 -24.194  0.00  0.00     0.004 A 
ENDBRANCH   4  12
TORSDOF 1
ENDMDL
MODEL 8
REMARK VINA RESULT:      -1.1      1.144      1.403
REMARK  1 active torsions:
REMARK  status: ('A' for Active; 'I' for Inactive)
REMARK    1  A    between atoms: C_7  and  C_4 
ROOT
ATOM      1  N   UNL d   1      31.790  16.979 -24.660  0.00  0.00    -0.211 NA
ATOM      2  C   UNL d   1      32.474  17.453 -24.608  0.00  0.00     0.140 A 
ATOM      3  C   UNL d   1      32.499  18.074 -24.064  0.00  0.00     0.051 A 
ATOM      4  C   UNL d   1      31.141  17.139 -24.163  0.00  0.00     0.183 A 
ATOM      5  C   UNL d   1      31.851  18.229 -23.571  0.00  0.00     0.104 A 
ATOM      6  O   UNL d   1      31.175  17.760 -23.624  0.00  0.00    -0.289 OA
ATOM      7  S   UNL d   1      33.121  17.303 -25.096  0.00  0.00    -0.057 SA
ATOM      8  C   UNL d   1      33.182  18.552 -24.008  0.00  0.00     0.004 A 
ATOM      9  C   UNL d   1      31.880  18.843 -23.035  0.00  0.00     0.025 A 
ATOM     10  C   UNL d   1      33.204  19.172 -23.462  0.00  0.00     0.000 A 
ATOM     11  C   UNL d   1      32.555  19.316 -22.979  0.00  0.00     0.002 A 
ENDROOT
BRANCH   4  12
ATOM     12  C   UNL d   1      30.469  16.669 -24.218  0.00  0.00     0.041 A 
ATOM     13  C   UNL d   1      29.811  16.933 -24.630  0.00  0.00     0.004 A 
ATOM     14  C   UNL d   1      29.143  16.455 -24.680  0.00  0.00     0.000 A 
ATOM     15  C   UNL d   1      28.481  16.722 -25.096  0.00  0.00     0.000 C 
ATOM     16  C   UNL d   1      29.130  15.714 -24.318  0.00  0.00     0.000 A 
ATOM     17  C   UNL d   1      29.795  15.453 -23.903  0.00  0.00     0.000 A 
ATOM     18  C   UNL d   1      30.466  15.930 -23.852  0.00  0.00     0.004 A 
ENDBRANCH   4  12
TORSDOF 1
ENDMDL
MODEL 9
REMARK VINA RESULT:      -1.0      6.481      7.979
REMARK  1 active torsions:
REMARK  status: ('A' for Active; 'I' for Inactive)
REMARK    1  A    between atoms: C_7  and  C_4 
ROOT
ATOM      1  N   UNL d   1      32.362  21.985 -20.164  0.00  0.00    -0.211 NA
ATOM      2  C   UNL d   1      32.499  21.746 -20.951  0.00  0.00     0.140 A 
ATOM      3  C   UNL d   1      32.725  22.305 -21.513  0.00  0.00     0.051 A 
ATOM      4  C   UNL d   1      32.457  22.786 -19.956  0.00  0.00     0.183 A 
ATOM      5  C   UNL d   1      32.818  23.102 -21.302  0.00  0.00     0.104 A 
ATOM      6  O   UNL d   1      32.683  23.338 -20.524  0.00  0.00    -0.289 OA
ATOM      7  S   UNL d   1      32.407  20.955 -21.166  0.00  0.00    -0.057 SA
ATOM      8  C   UNL d   1      32.863  22.072 -22.303  0.00  0.00     0.004 A 
ATOM      9  C   UNL d   1      33.043  23.652 -21.861  0.00  0.00     0.025 A 
ATOM     10  C   UNL d   1      33.091  22.634 -22.865  0.00  0.00     0.000 A 
ATOM     11  C   UNL d   1      33.179  23.421 -22.643  0.00  0.00     0.002 A 
ENDROOT
BRANCH   4  12
ATOM     12  C   UNL d   1      32.321  23.018 -19.180  0.00  0.00     0.041 A 
ATOM     13  C   UNL d   1      32.845  22.805 -18.586  0.00  0.00     0.004 A 
ATOM     14  C   UNL d   1      32.701  23.042 -17.811  0.00  0.00     0.000 A 
ATOM     15  C   UNL d   1      33.230  22.827 -17.214  0.00  0.00     0.000 C 
ATOM     16  C   UNL d   1      32.034  23.490 -17.627  0.00  0.00     0.000 A 
ATOM     17  C   UNL d   1      31.508  23.702 -18.229  0.00  0.00     0.000 A 
ATOM     18  C   UNL d   1      31.651  23.466 -19.007  0.00  0.00     0.004 A 
ENDBRANCH   4  12
TORSDOF 1
ENDMDL
