MODEL 1
REMARK VINA RESULT:      54.0      0.000      0.000
REMARK  4 active torsions:
REMARK  status: ('A' for Active; 'I' for Inactive)
REMARK    1  A    between atoms: C_7  and  C_1 
REMARK    2  A    between atoms: N_5  and  C_3 
REMARK       I    between atoms: C_8  and  N_5 
REMARK    3  A    between atoms: C_9  and  C_8 
REMARK    4  A    between atoms: O_21  and  C_15 
ROOT
ATOM      1  C   UNL d   1      13.511  14.154  -4.192  0.00  0.00     0.137 A 
ATOM      2  S   UNL d   1      13.359  14.755  -4.735  0.00  0.00    -0.026 SA
ATOM      3  C   UNL d   1      13.675  15.455  -4.448  0.00  0.00     0.219 A 
ATOM      4  N   UNL d   1      13.932  14.492  -3.554  0.00  0.00    -0.139 NA
ATOM      5  N   UNL d   1      14.033  15.294  -3.711  0.00  0.00    -0.121 NA
ENDROOT
BRANCH   3   6
ATOM      6  N   UNL d   1      13.647  16.190  -4.818  0.00  0.00    -0.181 NA
ATOM      7  C   UNL d   1      14.172  16.559  -5.342  0.00  0.00     0.281 C 
ATOM      8  O   UNL d   1      14.856  16.176  -5.569  0.00  0.00    -0.265 OA
BRANCH   7   9
ATOM      9  C   UNL d   1      13.995  17.313  -5.628  0.00  0.00     0.060 A 
ATOM     10  C   UNL d   1      14.497  17.942  -5.442  0.00  0.00     0.031 A 
ATOM     11  C   UNL d   1      14.329  18.690  -5.721  0.00  0.00     0.119 A 
ATOM     12  O   UNL d   1      14.714  19.411  -5.632  0.00  0.00    -0.300 OA
ATOM     13  C   UNL d   1      13.662  18.819  -6.187  0.00  0.00     0.119 A 
ATOM     14  C   UNL d   1      14.286  19.991  -6.043  0.00  0.00     0.304 A 
ATOM     15  O   UNL d   1      13.632  19.620  -6.388  0.00  0.00    -0.300 OA
ATOM     16  C   UNL d   1      13.160  18.190  -6.374  0.00  0.00     0.026 A 
ATOM     17  C   UNL d   1      13.327  17.438  -6.094  0.00  0.00     0.007 A 
ENDBRANCH   7   9
ENDBRANCH   3   6
BRANCH   1  18
ATOM     18  C   UNL d   1      13.291  13.360  -4.261  0.00  0.00     0.048 A 
ATOM     19  C   UNL d   1      13.367  12.839  -3.617  0.00  0.00     0.096 A 
ATOM     20  C   UNL d   1      13.149  12.059  -3.685  0.00  0.00     0.024 A 
ATOM     21  C   UNL d   1      12.849  11.779  -4.406  0.00  0.00     0.002 A 
ATOM     22  C   UNL d   1      12.770  12.280  -5.045  0.00  0.00     0.000 A 
ATOM     23  C   UNL d   1      12.993  13.075  -4.969  0.00  0.00     0.004 A 
BRANCH  19  24
ATOM     24  O   UNL d   1      13.664  13.124  -2.910  0.00  0.00    -0.328 OA
ATOM     25  C   UNL d   1      13.997  12.602  -2.364  0.00  0.00     0.181 C 
ENDBRANCH  19  24
ENDBRANCH   1  18
TORSDOF 4
ENDMDL
MODEL 2
REMARK VINA RESULT:      54.2      1.673      3.001
REMARK  4 active torsions:
REMARK  status: ('A' for Active; 'I' for Inactive)
REMARK    1  A    between atoms: C_7  and  C_1 
REMARK    2  A    between atoms: N_5  and  C_3 
REMARK       I    between atoms: C_8  and  N_5 
REMARK    3  A    between atoms: C_9  and  C_8 
REMARK    4  A    between atoms: O_21  and  C_15 
ROOT
ATOM      1  C   UNL d   1      13.831  12.448  -2.355  0.00  0.00     0.137 A 
ATOM      2  S   UNL d   1      13.991  13.180  -2.698  0.00  0.00    -0.026 SA
ATOM      3  C   UNL d   1      13.745  13.163  -3.480  0.00  0.00     0.219 A 
ATOM      4  N   UNL d   1      13.477  11.967  -2.940  0.00  0.00    -0.139 NA
ATOM      5  N   UNL d   1      13.424  12.408  -3.634  0.00  0.00    -0.121 NA
ENDROOT
BRANCH   3   6
ATOM      6  N   UNL d   1      13.802  13.780  -4.023  0.00  0.00    -0.181 NA
ATOM      7  C   UNL d   1      13.374  14.485  -4.095  0.00  0.00     0.281 C 
ATOM      8  O   UNL d   1      12.777  14.656  -3.565  0.00  0.00    -0.265 OA
BRANCH   7   9
ATOM      9  C   UNL d   1      13.559  15.010  -4.706  0.00  0.00     0.060 A 
ATOM     10  C   UNL d   1      13.986  15.694  -4.533  0.00  0.00     0.031 A 
ATOM     11  C   UNL d   1      14.173  16.217  -5.132  0.00  0.00     0.119 A 
ATOM     12  O   UNL d   1      14.583  16.930  -5.133  0.00  0.00    -0.300 OA
ATOM     13  C   UNL d   1      13.935  16.064  -5.906  0.00  0.00     0.119 A 
ATOM     14  C   UNL d   1      14.601  17.221  -5.909  0.00  0.00     0.304 A 
ATOM     15  O   UNL d   1      14.198  16.681  -6.388  0.00  0.00    -0.300 OA
ATOM     16  C   UNL d   1      13.508  15.379  -6.079  0.00  0.00     0.026 A 
ATOM     17  C   UNL d   1      13.319  14.853  -5.479  0.00  0.00     0.007 A 
ENDBRANCH   7   9
ENDBRANCH   3   6
BRANCH   1  18
ATOM     18  C   UNL d   1      13.989  12.225  -1.575  0.00  0.00     0.048 A 
ATOM     19  C   UNL d   1      14.767  12.220  -1.282  0.00  0.00     0.096 A 
ATOM     20  C   UNL d   1      14.923  12.001  -0.514  0.00  0.00     0.024 A 
ATOM     21  C   UNL d   1      14.297  11.779  -0.018  0.00  0.00     0.002 A 
ATOM     22  C   UNL d   1      13.528  11.779  -0.293  0.00  0.00     0.000 A 
ATOM     23  C   UNL d   1      13.377  12.004  -1.077  0.00  0.00     0.004 A 
BRANCH  19  24
ATOM     24  O   UNL d   1      15.379  12.441  -1.780  0.00  0.00    -0.328 OA
ATOM     25  C   UNL d   1      16.144  12.522  -1.479  0.00  0.00     0.181 C 
ENDBRANCH  19  24
ENDBRANCH   1  18
TORSDOF 4
ENDMDL
MODEL 3
REMARK VINA RESULT:      54.4      1.767      5.660
REMARK  4 active torsions:
REMARK  status: ('A' for Active; 'I' for Inactive)
REMARK    1  A    between atoms: C_7  and  C_1 
REMARK    2  A    between atoms: N_5  and  C_3 
REMARK       I    between atoms: C_8  and  N_5 
REMARK    3  A    between atoms: C_9  and  C_8 
REMARK    4  A    between atoms: O_21  and  C_15 
ROOT
ATOM      1  C   UNL d   1      13.655  14.925  -4.850  0.00  0.00     0.137 A 
ATOM      2  S   UNL d   1      13.922  14.722  -4.098  0.00  0.00    -0.026 SA
ATOM      3  C   UNL d   1      13.644  13.972  -3.915  0.00  0.00     0.219 A 
ATOM      4  N   UNL d   1      13.202  14.285  -5.139  0.00  0.00    -0.139 NA
ATOM      5  N   UNL d   1      13.195  13.697  -4.562  0.00  0.00    -0.121 NA
ENDROOT
BRANCH   3   6
ATOM      6  N   UNL d   1      13.782  13.559  -3.216  0.00  0.00    -0.181 NA
ATOM      7  C   UNL d   1      13.609  12.778  -3.000  0.00  0.00     0.281 C 
ATOM      8  O   UNL d   1      13.236  12.282  -3.530  0.00  0.00    -0.265 OA
BRANCH   7   9
ATOM      9  C   UNL d   1      13.817  12.512  -2.246  0.00  0.00     0.060 A 
ATOM     10  C   UNL d   1      14.551  12.724  -1.933  0.00  0.00     0.031 A 
ATOM     11  C   UNL d   1      14.764  12.464  -1.189  0.00  0.00     0.119 A 
ATOM     12  O   UNL d   1      15.442  12.580  -0.738  0.00  0.00    -0.300 OA
ATOM     13  C   UNL d   1      14.249  11.993  -0.751  0.00  0.00     0.119 A 
ATOM     14  C   UNL d   1      15.349  12.180  -0.017  0.00  0.00     0.304 A 
ATOM     15  O   UNL d   1      14.607  11.816  -0.027  0.00  0.00    -0.300 OA
ATOM     16  C   UNL d   1      13.515  11.781  -1.063  0.00  0.00     0.026 A 
ATOM     17  C   UNL d   1      13.300  12.040  -1.811  0.00  0.00     0.007 A 
ENDBRANCH   7   9
ENDBRANCH   3   6
BRANCH   1  18
ATOM     18  C   UNL d   1      13.806  15.632  -5.252  0.00  0.00     0.048 A 
ATOM     19  C   UNL d   1      14.393  16.158  -4.984  0.00  0.00     0.096 A 
ATOM     20  C   UNL d   1      14.541  16.853  -5.379  0.00  0.00     0.024 A 
ATOM     21  C   UNL d   1      14.100  17.040  -6.056  0.00  0.00     0.002 A 
ATOM     22  C   UNL d   1      13.521  16.534  -6.329  0.00  0.00     0.000 A 
ATOM     23  C   UNL d   1      13.376  15.826  -5.922  0.00  0.00     0.004 A 
BRANCH  19  24
ATOM     24  O   UNL d   1      14.823  15.964  -4.315  0.00  0.00    -0.328 OA
ATOM     25  C   UNL d   1      15.035  16.555  -3.778  0.00  0.00     0.181 C 
ENDBRANCH  19  24
ENDBRANCH   1  18
TORSDOF 4
ENDMDL
