MODEL 1
REMARK VINA RESULT:       2.9      0.000      0.000
REMARK  6 active torsions:
REMARK  status: ('A' for Active; 'I' for Inactive)
REMARK    1  A    between atoms: O_8  and  C_2 
REMARK    2  A    between atoms: C_10  and  C_5 
REMARK    3  A    between atoms: C_21  and  O_8 
REMARK    4  A    between atoms: N_9  and  C_10 
REMARK    5  A    between atoms: C_12  and  C_15 
REMARK    6  A    between atoms: O_26  and  C_12 
ROOT
ATOM      1  C   UNL d   1     -42.574-122.707 -50.592  0.00  0.00     0.108 A 
ATOM      2  C   UNL d   1     -41.626-122.484 -51.938  0.00  0.00     0.161 A 
ATOM      3  C   UNL d   1     -42.589-121.976 -51.000  0.00  0.00     0.064 A 
ATOM      4  C   UNL d   1     -42.121-121.866 -51.665  0.00  0.00     0.222 A 
ATOM      5  C   UNL d   1     -43.047-122.819 -49.919  0.00  0.00     0.079 A 
ATOM      6  O   UNL d   1     -42.087-123.326 -50.854  0.00  0.00    -0.305 OA
ATOM      7  C   UNL d   1     -41.610-123.209 -51.533  0.00  0.00     0.126 A 
ATOM      8  C   UNL d   1     -43.084-121.369 -50.721  0.00  0.00     0.009 A 
ATOM      9  C   UNL d   1     -43.534-122.211 -49.651  0.00  0.00     0.199 A 
ATOM     10  O   UNL d   1     -42.134-121.146 -52.070  0.00  0.00    -0.284 OA
ATOM     11  C   UNL d   1     -43.553-121.482 -50.054  0.00  0.00     0.042 A 
ATOM     12  O   UNL d   1     -44.002-122.319 -48.987  0.00  0.00    -0.286 OA
ATOM     13  C   UNL d   1     -41.123-123.816 -51.802  0.00  0.00     0.029 C 
ENDROOT
BRANCH   2  14
ATOM     14  O   UNL d   1     -41.158-122.370 -52.605  0.00  0.00    -0.302 OA
BRANCH  14  15
ATOM     15  C   UNL d   1     -41.503-122.354 -53.351  0.00  0.00     0.100 A 
ATOM     16  C   UNL d   1     -41.764-123.053 -53.699  0.00  0.00     0.025 A 
ATOM     17  C   UNL d   1     -42.110-123.036 -54.445  0.00  0.00     0.007 A 
ATOM     18  C   UNL d   1     -42.196-122.319 -54.845  0.00  0.00     0.063 A 
ATOM     19  C   UNL d   1     -41.930-121.613 -54.488  0.00  0.00     0.007 A 
ATOM     20  C   UNL d   1     -41.587-121.635 -53.748  0.00  0.00     0.025 A 
BRANCH  18  21
ATOM     21  C   UNL d   1     -42.543-122.298 -55.594  0.00  0.00     0.296 C 
ATOM     22  O   UNL d   1     -42.900-122.973 -55.907  0.00  0.00    -0.259 OA
BRANCH  21  23
ATOM     23  O   UNL d   1     -42.536-121.602 -56.039  0.00  0.00    -0.296 OA
ATOM     24  C   UNL d   1     -42.734-121.629 -56.840  0.00  0.00     0.185 C 
ENDBRANCH  21  23
ENDBRANCH  18  21
ENDBRANCH  14  15
ENDBRANCH   2  14
BRANCH   5  25
ATOM     25  C   UNL d   1     -43.029-123.533 -49.524  0.00  0.00     0.086 C 
BRANCH  25  26
ATOM     26  N   UNL d   1     -42.604-123.604 -48.818  0.00  0.00    -0.300 N 
ATOM     27  C   UNL d   1     -41.787-123.715 -48.838  0.00  0.00     0.100 A 
ATOM     28  C   UNL d   1     -41.367-123.785 -48.137  0.00  0.00     0.100 A 
ATOM     29  N   UNL d   1     -41.755-123.745 -47.414  0.00  0.00    -0.299 N 
ATOM     30  C   UNL d   1     -42.576-123.633 -47.393  0.00  0.00     0.100 A 
ATOM     31  C   UNL d   1     -41.330-123.815 -46.704  0.00  0.00     0.100 C 
ATOM     32  C   UNL d   1     -43.001-123.562 -48.100  0.00  0.00     0.100 A 
ENDBRANCH  25  26
ENDBRANCH   5  25
TORSDOF 6
ENDMDL
