MODEL 1
REMARK VINA RESULT:      -0.6      0.000      0.000
REMARK  4 active torsions:
REMARK  status: ('A' for Active; 'I' for Inactive)
REMARK    1  A    between atoms: C_5  and  N_1 
REMARK    2  A    between atoms: C_7  and  C_5 
REMARK    3  A    between atoms: O_10  and  C_9 
REMARK    4  A    between atoms: C_15  and  O_10 
ROOT
ATOM      1  N   UNL d   1     -42.383-122.286 -53.382  0.00  0.00    -0.268 N 
ATOM      2  C   UNL d   1     -42.727-121.632 -53.764  0.00  0.00     0.296 A 
ATOM      3  S   UNL d   1     -42.503-121.660 -54.557  0.00  0.00    -0.025 SA
ATOM      4  C   UNL d   1     -41.949-122.711 -53.944  0.00  0.00     0.073 A 
ATOM      5  C   UNL d   1     -42.026-122.321 -54.670  0.00  0.00     0.050 A 
ATOM      6  O   UNL d   1     -43.206-121.061 -53.412  0.00  0.00    -0.259 OA
ATOM      7  C   UNL d   1     -41.501-123.395 -53.884  0.00  0.00     0.018 A 
ATOM      8  C   UNL d   1     -41.643-122.631 -55.342  0.00  0.00     0.008 A 
ATOM      9  C   UNL d   1     -41.123-123.699 -54.552  0.00  0.00     0.002 A 
ATOM     10  C   UNL d   1     -41.193-123.320 -55.274  0.00  0.00     0.001 A 
ENDROOT
BRANCH   1  11
ATOM     11  C   UNL d   1     -42.459-122.477 -52.585  0.00  0.00     0.086 C 
BRANCH  11  12
ATOM     12  C   UNL d   1     -42.011-122.068 -52.022  0.00  0.00     0.040 A 
ATOM     13  C   UNL d   1     -41.992-122.346 -51.250  0.00  0.00     0.102 A 
ATOM     14  C   UNL d   1     -41.550-121.944 -50.692  0.00  0.00     0.025 A 
ATOM     15  C   UNL d   1     -41.123-121.260 -50.902  0.00  0.00     0.002 A 
ATOM     16  C   UNL d   1     -41.149-120.991 -51.681  0.00  0.00     0.000 A 
ATOM     17  C   UNL d   1     -41.597-121.400 -52.244  0.00  0.00     0.004 A 
BRANCH  13  18
ATOM     18  O   UNL d   1     -42.424-123.023 -51.072  0.00  0.00    -0.305 OA
BRANCH  18  19
ATOM     19  C   UNL d   1     -42.363-123.367 -50.323  0.00  0.00     0.123 C 
ATOM     20  C   UNL d   1     -42.993-123.815 -50.024  0.00  0.00     0.029 C 
ENDBRANCH  18  19
ENDBRANCH  13  18
ENDBRANCH  11  12
ENDBRANCH   1  11
TORSDOF 4
ENDMDL
MODEL 2
REMARK VINA RESULT:      -0.1      1.233      2.210
REMARK  4 active torsions:
REMARK  status: ('A' for Active; 'I' for Inactive)
REMARK    1  A    between atoms: C_5  and  N_1 
REMARK    2  A    between atoms: C_7  and  C_5 
REMARK    3  A    between atoms: O_10  and  C_9 
REMARK    4  A    between atoms: C_15  and  O_10 
ROOT
ATOM      1  N   UNL d   1     -41.565-122.477 -53.629  0.00  0.00    -0.268 N 
ATOM      2  C   UNL d   1     -41.494-123.300 -53.722  0.00  0.00     0.296 A 
ATOM      3  S   UNL d   1     -41.863-123.504 -54.431  0.00  0.00    -0.025 SA
ATOM      4  C   UNL d   1     -41.977-122.181 -54.283  0.00  0.00     0.073 A 
ATOM      5  C   UNL d   1     -42.160-122.819 -54.777  0.00  0.00     0.050 A 
ATOM      6  O   UNL d   1     -41.123-123.817 -53.199  0.00  0.00    -0.259 OA
ATOM      7  C   UNL d   1     -42.205-121.420 -54.486  0.00  0.00     0.018 A 
ATOM      8  C   UNL d   1     -42.579-122.682 -55.485  0.00  0.00     0.008 A 
ATOM      9  C   UNL d   1     -42.619-121.287 -55.187  0.00  0.00     0.002 A 
ATOM     10  C   UNL d   1     -42.804-121.913 -55.682  0.00  0.00     0.001 A 
ENDROOT
BRANCH   1  11
ATOM     11  C   UNL d   1     -41.277-122.033 -52.999  0.00  0.00     0.086 C 
BRANCH  11  12
ATOM     12  C   UNL d   1     -41.527-122.206 -52.229  0.00  0.00     0.040 A 
ATOM     13  C   UNL d   1     -41.453-121.632 -51.648  0.00  0.00     0.102 A 
ATOM     14  C   UNL d   1     -41.699-121.801 -50.887  0.00  0.00     0.025 A 
ATOM     15  C   UNL d   1     -42.021-122.546 -50.701  0.00  0.00     0.002 A 
ATOM     16  C   UNL d   1     -42.089-123.115 -51.293  0.00  0.00     0.000 A 
ATOM     17  C   UNL d   1     -41.840-122.942 -52.063  0.00  0.00     0.004 A 
BRANCH  13  18
ATOM     18  O   UNL d   1     -41.131-120.905 -51.861  0.00  0.00    -0.305 OA
BRANCH  18  19
ATOM     19  C   UNL d   1     -41.218-120.252 -51.361  0.00  0.00     0.123 C 
ATOM     20  C   UNL d   1     -41.167-119.487 -51.674  0.00  0.00     0.029 C 
ENDBRANCH  18  19
ENDBRANCH  13  18
ENDBRANCH  11  12
ENDBRANCH   1  11
TORSDOF 4
ENDMDL
MODEL 3
REMARK VINA RESULT:       1.4      1.554      3.555
REMARK  4 active torsions:
REMARK  status: ('A' for Active; 'I' for Inactive)
REMARK    1  A    between atoms: C_5  and  N_1 
REMARK    2  A    between atoms: C_7  and  C_5 
REMARK    3  A    between atoms: O_10  and  C_9 
REMARK    4  A    between atoms: C_15  and  O_10 
ROOT
ATOM      1  N   UNL d   1     -41.166-121.978 -51.820  0.00  0.00    -0.268 N 
ATOM      2  C   UNL d   1     -41.180-121.226 -51.466  0.00  0.00     0.296 A 
ATOM      3  S   UNL d   1     -41.200-121.335 -50.649  0.00  0.00    -0.025 SA
ATOM      4  C   UNL d   1     -41.178-122.545 -51.218  0.00  0.00     0.073 A 
ATOM      5  C   UNL d   1     -41.199-122.143 -50.494  0.00  0.00     0.050 A 
ATOM      6  O   UNL d   1     -41.174-120.503 -51.861  0.00  0.00    -0.259 OA
ATOM      7  C   UNL d   1     -41.172-123.365 -51.238  0.00  0.00     0.018 A 
ATOM      8  C   UNL d   1     -41.214-122.581 -49.784  0.00  0.00     0.008 A 
ATOM      9  C   UNL d   1     -41.187-123.794 -50.534  0.00  0.00     0.002 A 
ATOM     10  C   UNL d   1     -41.208-123.406 -49.814  0.00  0.00     0.001 A 
ENDROOT
BRANCH   1  11
ATOM     11  C   UNL d   1     -41.144-122.133 -52.628  0.00  0.00     0.086 C 
BRANCH  11  12
ATOM     12  C   UNL d   1     -41.821-122.004 -53.087  0.00  0.00     0.040 A 
ATOM     13  C   UNL d   1     -41.813-122.224 -53.878  0.00  0.00     0.102 A 
ATOM     14  C   UNL d   1     -42.480-122.098 -54.333  0.00  0.00     0.025 A 
ATOM     15  C   UNL d   1     -43.161-121.752 -54.001  0.00  0.00     0.002 A 
ATOM     16  C   UNL d   1     -43.157-121.536 -53.205  0.00  0.00     0.000 A 
ATOM     17  C   UNL d   1     -42.480-121.664 -52.746  0.00  0.00     0.004 A 
BRANCH  13  18
ATOM     18  O   UNL d   1     -41.127-122.563 -54.178  0.00  0.00    -0.305 OA
BRANCH  18  19
ATOM     19  C   UNL d   1     -41.150-122.979 -54.893  0.00  0.00     0.123 C 
ATOM     20  C   UNL d   1     -41.262-123.800 -54.886  0.00  0.00     0.029 C 
ENDBRANCH  18  19
ENDBRANCH  13  18
ENDBRANCH  11  12
ENDBRANCH   1  11
TORSDOF 4
ENDMDL
