MODEL 1
REMARK VINA RESULT:      -6.1      0.000      0.000
REMARK  6 active torsions:
REMARK  status: ('A' for Active; 'I' for Inactive)
REMARK    1  A    between atoms: S_9  and  C_3 
REMARK    2  A    between atoms: C_11  and  C_4 
REMARK    3  A    between atoms: C_20  and  S_9 
REMARK    4  A    between atoms: C_12  and  C_20 
REMARK       I    between atoms: N_17  and  C_12 
REMARK    5  A    between atoms: C_25  and  N_17 
REMARK    6  A    between atoms: C_24  and  C_25 
ROOT
ATOM      1  N   UNL d   1     -49.801  14.597  23.137  0.00  0.00    -0.263 N 
ATOM      2  C   UNL d   1     -50.288  15.246  23.270  0.00  0.00     0.202 A 
ATOM      3  C   UNL d   1     -49.027  14.872  23.065  0.00  0.00     0.202 A 
ATOM      4  C   UNL d   1     -50.276  13.923  23.128  0.00  0.00     0.074 A 
ATOM      5  N   UNL d   1     -49.828  15.920  23.280  0.00  0.00    -0.121 NA
ATOM      6  N   UNL d   1     -49.042  15.699  23.154  0.00  0.00    -0.121 NA
ATOM      7  S   UNL d   1     -51.064  14.975  23.343  0.00  0.00    -0.046 SA
ATOM      8  C   UNL d   1     -51.060  14.162  23.257  0.00  0.00     0.056 A 
ENDROOT
BRANCH   3   9
ATOM      9  S   UNL d   1     -48.407  14.346  22.928  0.00  0.00    -0.043 SA
BRANCH   9  10
ATOM     10  C   UNL d   1     -47.622  14.582  23.047  0.00  0.00     0.101 C 
BRANCH  10  11
ATOM     11  C   UNL d   1     -47.040  14.354  22.513  0.00  0.00     0.286 C 
ATOM     12  N   UNL d   1     -46.434  13.839  22.756  0.00  0.00    -0.206 NA
ATOM     13  O   UNL d   1     -47.057  14.637  21.739  0.00  0.00    -0.265 OA
BRANCH  12  14
ATOM     14  C   UNL d   1     -45.846  13.608  22.220  0.00  0.00     0.102 C 
BRANCH  14  15
ATOM     15  C   UNL d   1     -45.352  12.961  22.397  0.00  0.00     0.021 A 
ATOM     16  C   UNL d   1     -45.592  12.365  22.920  0.00  0.00     0.028 A 
ATOM     17  C   UNL d   1     -45.093  11.738  23.080  0.00  0.00     0.119 A 
ATOM     18  O   UNL d   1     -45.168  11.080  23.559  0.00  0.00    -0.300 OA
ATOM     19  C   UNL d   1     -44.355  11.700  22.722  0.00  0.00     0.119 A 
ATOM     20  C   UNL d   1     -44.503  10.637  23.510  0.00  0.00     0.304 A 
ATOM     21  O   UNL d   1     -43.986  11.020  22.986  0.00  0.00    -0.300 OA
ATOM     22  C   UNL d   1     -44.122  12.290  22.207  0.00  0.00     0.026 A 
ATOM     23  C   UNL d   1     -44.631  12.925  22.046  0.00  0.00     0.004 A 
ENDBRANCH  14  15
ENDBRANCH  12  14
ENDBRANCH  10  11
ENDBRANCH   9  10
ENDBRANCH   3   9
BRANCH   4  24
ATOM     24  C   UNL d   1     -50.057  13.134  23.016  0.00  0.00     0.017 A 
ATOM     25  C   UNL d   1     -50.111  12.791  22.276  0.00  0.00     0.002 A 
ATOM     26  C   UNL d   1     -49.895  12.010  22.162  0.00  0.00     0.011 A 
ATOM     27  C   UNL d   1     -49.618  11.564  22.808  0.00  0.00     0.058 A 
ATOM     28  C   UNL d   1     -49.564  11.909  23.557  0.00  0.00     0.011 A 
ATOM     29 CL   UNL d   1     -49.397  10.773  22.705  0.00  0.00    -0.082 Cl
ATOM     30  C   UNL d   1     -49.784  12.697  23.662  0.00  0.00     0.002 A 
ENDBRANCH   4  24
TORSDOF 6
ENDMDL
MODEL 2
REMARK VINA RESULT:      -5.8      1.763      2.443
REMARK  6 active torsions:
REMARK  status: ('A' for Active; 'I' for Inactive)
REMARK    1  A    between atoms: S_9  and  C_3 
REMARK    2  A    between atoms: C_11  and  C_4 
REMARK    3  A    between atoms: C_20  and  S_9 
REMARK    4  A    between atoms: C_12  and  C_20 
REMARK       I    between atoms: N_17  and  C_12 
REMARK    5  A    between atoms: C_25  and  N_17 
REMARK    6  A    between atoms: C_24  and  C_25 
ROOT
ATOM      1  N   UNL d   1     -49.612  12.260  23.408  0.00  0.00    -0.263 N 
ATOM      2  C   UNL d   1     -49.859  11.494  23.577  0.00  0.00     0.202 A 
ATOM      3  C   UNL d   1     -48.788  12.271  23.424  0.00  0.00     0.202 A 
ATOM      4  C   UNL d   1     -50.286  12.720  23.287  0.00  0.00     0.074 A 
ATOM      5  N   UNL d   1     -49.199  11.029  23.698  0.00  0.00    -0.121 NA
ATOM      6  N   UNL d   1     -48.528  11.502  23.606  0.00  0.00    -0.121 NA
ATOM      7  S   UNL d   1     -50.684  11.480  23.561  0.00  0.00    -0.046 SA
ATOM      8  C   UNL d   1     -50.949  12.232  23.383  0.00  0.00     0.056 A 
ENDROOT
BRANCH   3   9
ATOM      9  S   UNL d   1     -48.375  12.968  23.275  0.00  0.00    -0.043 SA
BRANCH   9  10
ATOM     10  C   UNL d   1     -47.586  13.048  23.512  0.00  0.00     0.101 C 
BRANCH  10  11
ATOM     11  C   UNL d   1     -47.042  13.409  23.012  0.00  0.00     0.286 C 
ATOM     12  N   UNL d   1     -46.360  12.995  22.774  0.00  0.00    -0.206 NA
ATOM     13  O   UNL d   1     -47.172  14.179  22.748  0.00  0.00    -0.265 OA
BRANCH  12  14
ATOM     14  C   UNL d   1     -45.811  13.357  22.270  0.00  0.00     0.102 C 
BRANCH  14  15
ATOM     15  C   UNL d   1     -45.062  13.010  22.153  0.00  0.00     0.021 A 
ATOM     16  C   UNL d   1     -44.816  12.355  22.596  0.00  0.00     0.028 A 
ATOM     17  C   UNL d   1     -44.078  12.029  22.466  0.00  0.00     0.119 A 
ATOM     18  O   UNL d   1     -43.685  11.397  22.806  0.00  0.00    -0.300 OA
ATOM     19  C   UNL d   1     -43.582  12.352  21.897  0.00  0.00     0.119 A 
ATOM     20  C   UNL d   1     -42.964  11.319  22.465  0.00  0.00     0.304 A 
ATOM     21  O   UNL d   1     -42.891  11.915  21.893  0.00  0.00    -0.300 OA
ATOM     22  C   UNL d   1     -43.829  12.998  21.462  0.00  0.00     0.026 A 
ATOM     23  C   UNL d   1     -44.579  13.326  21.596  0.00  0.00     0.004 A 
ENDBRANCH  14  15
ENDBRANCH  12  14
ENDBRANCH  10  11
ENDBRANCH   9  10
ENDBRANCH   3   9
BRANCH   4  24
ATOM     24  C   UNL d   1     -50.340  13.524  23.103  0.00  0.00     0.017 A 
ATOM     25  C   UNL d   1     -50.304  14.088  23.694  0.00  0.00     0.002 A 
ATOM     26  C   UNL d   1     -50.357  14.885  23.514  0.00  0.00     0.011 A 
ATOM     27  C   UNL d   1     -50.449  15.119  22.721  0.00  0.00     0.058 A 
ATOM     28  C   UNL d   1     -50.486  14.551  22.122  0.00  0.00     0.011 A 
ATOM     29 CL   UNL d   1     -50.505  15.921  22.527  0.00  0.00    -0.082 Cl
ATOM     30  C   UNL d   1     -50.431  13.751  22.313  0.00  0.00     0.002 A 
ENDBRANCH   4  24
TORSDOF 6
ENDMDL
MODEL 3
REMARK VINA RESULT:      -5.1      5.243      8.220
REMARK  6 active torsions:
REMARK  status: ('A' for Active; 'I' for Inactive)
REMARK    1  A    between atoms: S_9  and  C_3 
REMARK    2  A    between atoms: C_11  and  C_4 
REMARK    3  A    between atoms: C_20  and  S_9 
REMARK    4  A    between atoms: C_12  and  C_20 
REMARK       I    between atoms: N_17  and  C_12 
REMARK    5  A    between atoms: C_25  and  N_17 
REMARK    6  A    between atoms: C_24  and  C_25 
ROOT
ATOM      1  N   UNL d   1     -39.661  14.536  20.592  0.00  0.00    -0.263 N 
ATOM      2  C   UNL d   1     -39.001  14.581  21.080  0.00  0.00     0.202 A 
ATOM      3  C   UNL d   1     -40.278  14.207  21.028  0.00  0.00     0.202 A 
ATOM      4  C   UNL d   1     -39.449  14.838  19.855  0.00  0.00     0.074 A 
ATOM      5  N   UNL d   1     -39.200  14.284  21.814  0.00  0.00    -0.121 NA
ATOM      6  N   UNL d   1     -39.991  14.048  21.793  0.00  0.00    -0.121 NA
ATOM      7  S   UNL d   1     -38.382  14.910  20.646  0.00  0.00    -0.046 SA
ATOM      8  C   UNL d   1     -38.654  15.069  19.893  0.00  0.00     0.056 A 
ENDROOT
BRANCH   3   9
ATOM      9  S   UNL d   1     -41.019  14.091  20.685  0.00  0.00    -0.043 SA
BRANCH   9  10
ATOM     10  C   UNL d   1     -41.698  14.052  21.157  0.00  0.00     0.101 C 
BRANCH  10  11
ATOM     11  C   UNL d   1     -42.290  13.509  20.979  0.00  0.00     0.286 C 
ATOM     12  N   UNL d   1     -42.970  13.467  21.457  0.00  0.00    -0.206 NA
ATOM     13  O   UNL d   1     -42.208  13.008  20.330  0.00  0.00    -0.265 OA
BRANCH  12  14
ATOM     14  C   UNL d   1     -43.567  12.920  21.280  0.00  0.00     0.102 C 
BRANCH  14  15
ATOM     15  C   UNL d   1     -44.232  12.856  21.777  0.00  0.00     0.021 A 
ATOM     16  C   UNL d   1     -44.808  13.451  21.808  0.00  0.00     0.028 A 
ATOM     17  C   UNL d   1     -45.454  13.368  22.302  0.00  0.00     0.119 A 
ATOM     18  O   UNL d   1     -46.099  13.847  22.452  0.00  0.00    -0.300 OA
ATOM     19  C   UNL d   1     -45.531  12.696  22.768  0.00  0.00     0.119 A 
ATOM     20  C   UNL d   1     -46.572  13.494  22.994  0.00  0.00     0.304 A 
ATOM     21  O   UNL d   1     -46.222  12.770  23.198  0.00  0.00    -0.300 OA
ATOM     22  C   UNL d   1     -44.960  12.112  22.735  0.00  0.00     0.026 A 
ATOM     23  C   UNL d   1     -44.306  12.198  22.232  0.00  0.00     0.004 A 
ENDBRANCH  14  15
ENDBRANCH  12  14
ENDBRANCH  10  11
ENDBRANCH   9  10
ENDBRANCH   3   9
BRANCH   4  24
ATOM     24  C   UNL d   1     -39.910  14.917  19.173  0.00  0.00     0.017 A 
ATOM     25  C   UNL d   1     -39.938  14.314  18.621  0.00  0.00     0.002 A 
ATOM     26  C   UNL d   1     -40.393  14.389  17.945  0.00  0.00     0.011 A 
ATOM     27  C   UNL d   1     -40.830  15.087  17.821  0.00  0.00     0.058 A 
ATOM     28  C   UNL d   1     -40.803  15.697  18.379  0.00  0.00     0.011 A 
ATOM     29 CL   UNL d   1     -41.294  15.174  17.142  0.00  0.00    -0.082 Cl
ATOM     30  C   UNL d   1     -40.341  15.612  19.056  0.00  0.00     0.002 A 
ENDBRANCH   4  24
TORSDOF 6
ENDMDL
MODEL 4
REMARK VINA RESULT:      -5.0      1.244      1.704
REMARK  6 active torsions:
REMARK  status: ('A' for Active; 'I' for Inactive)
REMARK    1  A    between atoms: S_9  and  C_3 
REMARK    2  A    between atoms: C_11  and  C_4 
REMARK    3  A    between atoms: C_20  and  S_9 
REMARK    4  A    between atoms: C_12  and  C_20 
REMARK       I    between atoms: N_17  and  C_12 
REMARK    5  A    between atoms: C_25  and  N_17 
REMARK    6  A    between atoms: C_24  and  C_25 
ROOT
ATOM      1  N   UNL d   1     -48.919  14.641  22.628  0.00  0.00    -0.263 N 
ATOM      2  C   UNL d   1     -49.059  15.431  22.446  0.00  0.00     0.202 A 
ATOM      3  C   UNL d   1     -48.108  14.549  22.743  0.00  0.00     0.202 A 
ATOM      4  C   UNL d   1     -49.644  14.249  22.623  0.00  0.00     0.074 A 
ATOM      5  N   UNL d   1     -48.347  15.830  22.448  0.00  0.00    -0.121 NA
ATOM      6  N   UNL d   1     -47.749  15.291  22.632  0.00  0.00    -0.121 NA
ATOM      7  S   UNL d   1     -49.870  15.528  22.330  0.00  0.00    -0.046 SA
ATOM      8  C   UNL d   1     -50.232  14.803  22.437  0.00  0.00     0.056 A 
ENDROOT
BRANCH   3   9
ATOM      9  S   UNL d   1     -47.794  13.810  22.935  0.00  0.00    -0.043 SA
BRANCH   9  10
ATOM     10  C   UNL d   1     -47.018  13.745  23.215  0.00  0.00     0.101 C 
BRANCH  10  11
ATOM     11  C   UNL d   1     -46.605  13.039  23.118  0.00  0.00     0.286 C 
ATOM     12  N   UNL d   1     -45.884  13.034  22.705  0.00  0.00    -0.206 NA
ATOM     13  O   UNL d   1     -46.908  12.339  23.432  0.00  0.00    -0.265 OA
BRANCH  12  14
ATOM     14  C   UNL d   1     -45.467  12.325  22.606  0.00  0.00     0.102 C 
BRANCH  14  15
ATOM     15  C   UNL d   1     -44.683  12.339  22.325  0.00  0.00     0.021 A 
ATOM     16  C   UNL d   1     -44.429  12.909  21.780  0.00  0.00     0.028 A 
ATOM     17  C   UNL d   1     -43.656  12.905  21.516  0.00  0.00     0.119 A 
ATOM     18  O   UNL d   1     -43.248  13.382  20.992  0.00  0.00    -0.300 OA
ATOM     19  C   UNL d   1     -43.131  12.336  21.792  0.00  0.00     0.119 A 
ATOM     20  C   UNL d   1     -42.491  13.128  20.935  0.00  0.00     0.304 A 
ATOM     21  O   UNL d   1     -42.409  12.471  21.435  0.00  0.00    -0.300 OA
ATOM     22  C   UNL d   1     -43.386  11.776  22.330  0.00  0.00     0.026 A 
ATOM     23  C   UNL d   1     -44.172  11.782  22.596  0.00  0.00     0.004 A 
ENDBRANCH  14  15
ENDBRANCH  12  14
ENDBRANCH  10  11
ENDBRANCH   9  10
ENDBRANCH   3   9
BRANCH   4  24
ATOM     24  C   UNL d   1     -49.805  13.452  22.770  0.00  0.00     0.017 A 
ATOM     25  C   UNL d   1     -49.812  12.911  22.155  0.00  0.00     0.002 A 
ATOM     26  C   UNL d   1     -49.971  12.121  22.298  0.00  0.00     0.011 A 
ATOM     27  C   UNL d   1     -50.126  11.869  23.076  0.00  0.00     0.058 A 
ATOM     28  C   UNL d   1     -50.118  12.414  23.698  0.00  0.00     0.011 A 
ATOM     29 CL   UNL d   1     -50.288  11.073  23.232  0.00  0.00    -0.082 Cl
ATOM     30  C   UNL d   1     -49.957  13.208  23.544  0.00  0.00     0.002 A 
ENDBRANCH   4  24
TORSDOF 6
ENDMDL
MODEL 5
REMARK VINA RESULT:      -4.9      1.793      2.747
REMARK  6 active torsions:
REMARK  status: ('A' for Active; 'I' for Inactive)
REMARK    1  A    between atoms: S_9  and  C_3 
REMARK    2  A    between atoms: C_11  and  C_4 
REMARK    3  A    between atoms: C_20  and  S_9 
REMARK    4  A    between atoms: C_12  and  C_20 
REMARK       I    between atoms: N_17  and  C_12 
REMARK    5  A    between atoms: C_25  and  N_17 
REMARK    6  A    between atoms: C_24  and  C_25 
ROOT
ATOM      1  N   UNL d   1     -49.773  13.083  22.492  0.00  0.00    -0.263 N 
ATOM      2  C   UNL d   1     -50.593  13.078  22.435  0.00  0.00     0.202 A 
ATOM      3  C   UNL d   1     -49.520  12.304  22.576  0.00  0.00     0.202 A 
ATOM      4  C   UNL d   1     -49.522  13.867  22.442  0.00  0.00     0.074 A 
ATOM      5  N   UNL d   1     -50.853  12.306  22.483  0.00  0.00    -0.121 NA
ATOM      6  N   UNL d   1     -50.194  11.816  22.571  0.00  0.00    -0.121 NA
ATOM      7  S   UNL d   1     -50.850  13.858  22.350  0.00  0.00    -0.046 SA
ATOM      8  C   UNL d   1     -50.194  14.345  22.353  0.00  0.00     0.056 A 
ENDROOT
BRANCH   3   9
ATOM      9  S   UNL d   1     -48.717  12.129  22.647  0.00  0.00    -0.043 SA
BRANCH   9  10
ATOM     10  C   UNL d   1     -48.449  11.350  22.567  0.00  0.00     0.101 C 
BRANCH  10  11
ATOM     11  C   UNL d   1     -47.873  11.060  23.079  0.00  0.00     0.286 C 
ATOM     12  N   UNL d   1     -47.078  11.277  22.973  0.00  0.00    -0.206 NA
ATOM     13  O   UNL d   1     -48.087  10.555  23.694  0.00  0.00    -0.265 OA
BRANCH  12  14
ATOM     14  C   UNL d   1     -46.496  10.986  23.487  0.00  0.00     0.102 C 
BRANCH  14  15
ATOM     15  C   UNL d   1     -45.690  11.084  23.302  0.00  0.00     0.021 A 
ATOM     16  C   UNL d   1     -45.424  11.731  22.858  0.00  0.00     0.028 A 
ATOM     17  C   UNL d   1     -44.629  11.809  22.687  0.00  0.00     0.119 A 
ATOM     18  O   UNL d   1     -44.206  12.371  22.271  0.00  0.00    -0.300 OA
ATOM     19  C   UNL d   1     -44.095  11.246  22.956  0.00  0.00     0.119 A 
ATOM     20  C   UNL d   1     -43.430  12.175  22.274  0.00  0.00     0.304 A 
ATOM     21  O   UNL d   1     -43.351  11.470  22.703  0.00  0.00    -0.300 OA
ATOM     22  C   UNL d   1     -44.361  10.610  23.395  0.00  0.00     0.026 A 
ATOM     23  C   UNL d   1     -45.169  10.534  23.566  0.00  0.00     0.004 A 
ENDBRANCH  14  15
ENDBRANCH  12  14
ENDBRANCH  10  11
ENDBRANCH   9  10
ENDBRANCH   3   9
BRANCH   4  24
ATOM     24  C   UNL d   1     -48.754  14.170  22.469  0.00  0.00     0.017 A 
ATOM     25  C   UNL d   1     -48.264  14.116  21.816  0.00  0.00     0.002 A 
ATOM     26  C   UNL d   1     -47.502  14.415  21.841  0.00  0.00     0.011 A 
ATOM     27  C   UNL d   1     -47.228  14.777  22.538  0.00  0.00     0.058 A 
ATOM     28  C   UNL d   1     -47.721  14.832  23.199  0.00  0.00     0.011 A 
ATOM     29 CL   UNL d   1     -46.460  15.083  22.575  0.00  0.00    -0.082 Cl
ATOM     30  C   UNL d   1     -48.487  14.528  23.164  0.00  0.00     0.002 A 
ENDBRANCH   4  24
TORSDOF 6
ENDMDL
MODEL 6
REMARK VINA RESULT:      -4.2      5.060      8.051
REMARK  6 active torsions:
REMARK  status: ('A' for Active; 'I' for Inactive)
REMARK    1  A    between atoms: S_9  and  C_3 
REMARK    2  A    between atoms: C_11  and  C_4 
REMARK    3  A    between atoms: C_20  and  S_9 
REMARK    4  A    between atoms: C_12  and  C_20 
REMARK       I    between atoms: N_17  and  C_12 
REMARK    5  A    between atoms: C_25  and  N_17 
REMARK    6  A    between atoms: C_24  and  C_25 
ROOT
ATOM      1  N   UNL d   1     -40.124  15.136  20.283  0.00  0.00    -0.263 N 
ATOM      2  C   UNL d   1     -40.019  15.667  19.664  0.00  0.00     0.202 A 
ATOM      3  C   UNL d   1     -40.909  14.884  20.269  0.00  0.00     0.202 A 
ATOM      4  C   UNL d   1     -39.404  15.062  20.677  0.00  0.00     0.074 A 
ATOM      5  N   UNL d   1     -40.726  15.748  19.266  0.00  0.00    -0.121 NA
ATOM      6  N   UNL d   1     -41.287  15.265  19.634  0.00  0.00    -0.121 NA
ATOM      7  S   UNL d   1     -39.234  15.922  19.675  0.00  0.00    -0.046 SA
ATOM      8  C   UNL d   1     -38.853  15.552  20.296  0.00  0.00     0.056 A 
ENDROOT
BRANCH   3   9
ATOM      9  S   UNL d   1     -41.185  14.344  20.828  0.00  0.00    -0.043 SA
BRANCH   9  10
ATOM     10  C   UNL d   1     -41.991  14.309  21.014  0.00  0.00     0.101 C 
BRANCH  10  11
ATOM     11  C   UNL d   1     -42.359  13.579  21.109  0.00  0.00     0.286 C 
ATOM     12  N   UNL d   1     -43.110  13.536  21.462  0.00  0.00    -0.206 NA
ATOM     13  O   UNL d   1     -41.982  12.892  20.853  0.00  0.00    -0.265 OA
BRANCH  12  14
ATOM     14  C   UNL d   1     -43.483  12.802  21.559  0.00  0.00     0.102 C 
BRANCH  14  15
ATOM     15  C   UNL d   1     -44.223  12.758  21.938  0.00  0.00     0.021 A 
ATOM     16  C   UNL d   1     -44.390  12.163  22.491  0.00  0.00     0.028 A 
ATOM     17  C   UNL d   1     -45.122  12.136  22.852  0.00  0.00     0.119 A 
ATOM     18  O   UNL d   1     -45.446  11.631  23.407  0.00  0.00    -0.300 OA
ATOM     19  C   UNL d   1     -45.691  12.698  22.666  0.00  0.00     0.119 A 
ATOM     20  C   UNL d   1     -46.196  11.861  23.570  0.00  0.00     0.304 A 
ATOM     21  O   UNL d   1     -46.358  12.531  23.109  0.00  0.00    -0.300 OA
ATOM     22  C   UNL d   1     -45.523  13.283  22.120  0.00  0.00     0.026 A 
ATOM     23  C   UNL d   1     -44.778  13.307  21.756  0.00  0.00     0.004 A 
ENDBRANCH  14  15
ENDBRANCH  12  14
ENDBRANCH  10  11
ENDBRANCH   9  10
ENDBRANCH   3   9
BRANCH   4  24
ATOM     24  C   UNL d   1     -39.216  14.599  21.335  0.00  0.00     0.017 A 
ATOM     25  C   UNL d   1     -38.927  13.840  21.237  0.00  0.00     0.002 A 
ATOM     26  C   UNL d   1     -38.741  13.378  21.887  0.00  0.00     0.011 A 
ATOM     27  C   UNL d   1     -38.847  13.687  22.653  0.00  0.00     0.058 A 
ATOM     28  C   UNL d   1     -39.140  14.454  22.753  0.00  0.00     0.011 A 
ATOM     29 CL   UNL d   1     -38.662  13.231  23.317  0.00  0.00    -0.082 Cl
ATOM     30  C   UNL d   1     -39.325  14.911  22.092  0.00  0.00     0.002 A 
ENDBRANCH   4  24
TORSDOF 6
ENDMDL
MODEL 7
REMARK VINA RESULT:      -3.9      3.035      4.446
REMARK  6 active torsions:
REMARK  status: ('A' for Active; 'I' for Inactive)
REMARK    1  A    between atoms: S_9  and  C_3 
REMARK    2  A    between atoms: C_11  and  C_4 
REMARK    3  A    between atoms: C_20  and  S_9 
REMARK    4  A    between atoms: C_12  and  C_20 
REMARK       I    between atoms: N_17  and  C_12 
REMARK    5  A    between atoms: C_25  and  N_17 
REMARK    6  A    between atoms: C_24  and  C_25 
ROOT
ATOM      1  N   UNL d   1     -46.410  11.877  23.133  0.00  0.00    -0.263 N 
ATOM      2  C   UNL d   1     -46.536  11.153  23.501  0.00  0.00     0.202 A 
ATOM      3  C   UNL d   1     -45.610  11.926  22.939  0.00  0.00     0.202 A 
ATOM      4  C   UNL d   1     -47.132  12.273  23.102  0.00  0.00     0.074 A 
ATOM      5  N   UNL d   1     -45.826  10.752  23.538  0.00  0.00    -0.121 NA
ATOM      6  N   UNL d   1     -45.244  11.224  23.191  0.00  0.00    -0.121 NA
ATOM      7  S   UNL d   1     -47.336  11.100  23.698  0.00  0.00    -0.046 SA
ATOM      8  C   UNL d   1     -47.705  11.787  23.454  0.00  0.00     0.056 A 
ENDROOT
BRANCH   3   9
ATOM      9  S   UNL d   1     -45.312  12.595  22.560  0.00  0.00    -0.043 SA
BRANCH   9  10
ATOM     10  C   UNL d   1     -44.495  12.723  22.516  0.00  0.00     0.101 C 
BRANCH  10  11
ATOM     11  C   UNL d   1     -44.147  12.911  21.794  0.00  0.00     0.286 C 
ATOM     12  N   UNL d   1     -43.362  13.185  21.772  0.00  0.00    -0.206 NA
ATOM     13  O   UNL d   1     -44.577  12.827  21.096  0.00  0.00    -0.265 OA
BRANCH  12  14
ATOM     14  C   UNL d   1     -43.009  13.375  21.047  0.00  0.00     0.102 C 
BRANCH  14  15
ATOM     15  C   UNL d   1     -42.281  13.778  21.031  0.00  0.00     0.021 A 
ATOM     16  C   UNL d   1     -42.245  14.606  21.022  0.00  0.00     0.028 A 
ATOM     17  C   UNL d   1     -41.520  14.982  21.006  0.00  0.00     0.119 A 
ATOM     18  O   UNL d   1     -41.308  15.772  20.995  0.00  0.00    -0.300 OA
ATOM     19  C   UNL d   1     -40.828  14.540  21.000  0.00  0.00     0.119 A 
ATOM     20  C   UNL d   1     -40.509  15.832  20.981  0.00  0.00     0.304 A 
ATOM     21  O   UNL d   1     -40.199  15.062  20.984  0.00  0.00    -0.300 OA
ATOM     22  C   UNL d   1     -40.868  13.723  21.008  0.00  0.00     0.026 A 
ATOM     23  C   UNL d   1     -41.606  13.344  21.024  0.00  0.00     0.004 A 
ENDBRANCH  14  15
ENDBRANCH  12  14
ENDBRANCH  10  11
ENDBRANCH   9  10
ENDBRANCH   3   9
BRANCH   4  24
ATOM     24  C   UNL d   1     -47.304  13.018  22.788  0.00  0.00     0.017 A 
ATOM     25  C   UNL d   1     -47.147  13.695  23.220  0.00  0.00     0.002 A 
ATOM     26  C   UNL d   1     -47.316  14.434  22.911  0.00  0.00     0.011 A 
ATOM     27  C   UNL d   1     -47.650  14.493  22.151  0.00  0.00     0.058 A 
ATOM     28  C   UNL d   1     -47.809  13.810  21.713  0.00  0.00     0.011 A 
ATOM     29 CL   UNL d   1     -47.825  15.235  21.828  0.00  0.00    -0.082 Cl
ATOM     30  C   UNL d   1     -47.635  13.070  22.033  0.00  0.00     0.002 A 
ENDBRANCH   4  24
TORSDOF 6
ENDMDL
