MODEL 1
REMARK VINA RESULT:      60.1      0.000      0.000
REMARK  7 active torsions:
REMARK  status: ('A' for Active; 'I' for Inactive)
REMARK    1  A    between atoms: C_2  and  S_1 
REMARK    2  A    between atoms: N_3  and  S_1 
REMARK    3  A    between atoms: C_11  and  N_3 
REMARK    4  A    between atoms: C_4  and  C_7 
REMARK       I    between atoms: N_12  and  C_4 
REMARK    5  A    between atoms: C_22  and  N_12 
REMARK    6  A    between atoms: O_20  and  C_24 
REMARK    7  A    between atoms: C_24  and  C_22 
ROOT
ATOM      1  C   UNL d   1     -48.277  28.981  35.181  0.00  0.00     0.058 A 
ATOM      2  C   UNL d   1     -47.477  30.418  35.251  0.00  0.00     0.094 A 
ATOM      3  C   UNL d   1     -48.067  29.301  35.912  0.00  0.00     0.006 A 
ATOM      4  C   UNL d   1     -48.086  29.380  34.484  0.00  0.00     0.006 A 
ATOM      5  C   UNL d   1     -47.668  30.018  35.947  0.00  0.00     0.020 A 
ATOM      6  C   UNL d   1     -47.686  30.099  34.519  0.00  0.00     0.020 A 
ENDROOT
BRANCH   2   7
ATOM      7  N   UNL d   1     -47.078  31.136  35.286  0.00  0.00    -0.158 NA
BRANCH   7   8
ATOM      8  S   UNL d   1     -47.297  31.753  34.784  0.00  0.00     0.285 S 
ATOM      9  O   UNL d   1     -47.111  31.287  34.130  0.00  0.00    -0.198 OA
ATOM     10  O   UNL d   1     -47.482  32.216  35.441  0.00  0.00    -0.198 OA
BRANCH   8  11
ATOM     11  C   UNL d   1     -47.517  32.373  34.291  0.00  0.00     0.105 A 
ATOM     12  C   UNL d   1     -46.958  32.754  33.823  0.00  0.00     0.012 A 
ATOM     13  C   UNL d   1     -47.187  33.375  33.331  0.00  0.00     0.001 A 
ATOM     14  C   UNL d   1     -46.165  32.503  33.856  0.00  0.00     0.001 C 
ATOM     15  C   UNL d   1     -47.971  33.615  33.306  0.00  0.00     0.000 A 
ATOM     16  C   UNL d   1     -48.536  33.235  33.774  0.00  0.00     0.001 A 
ATOM     17  C   UNL d   1     -48.315  32.615  34.267  0.00  0.00     0.013 A 
ATOM     18  C   UNL d   1     -49.333  33.483  33.744  0.00  0.00     0.000 C 
ENDBRANCH   8  11
ENDBRANCH   7   8
ENDBRANCH   2   7
BRANCH   1  19
ATOM     19  C   UNL d   1     -48.682  28.253  35.139  0.00  0.00     0.279 C 
ATOM     20  O   UNL d   1     -48.808  27.808  35.821  0.00  0.00    -0.265 OA
ATOM     21  N   UNL d   1     -48.954  27.985  34.412  0.00  0.00    -0.204 NA
BRANCH  21  22
ATOM     22  C   UNL d   1     -49.355  27.265  34.368  0.00  0.00     0.128 C 
BRANCH  22  23
ATOM     23  C   UNL d   1     -49.542  26.940  33.634  0.00  0.00     0.137 C 
BRANCH  23  24
ATOM     24  O   UNL d   1     -50.347  26.856  33.405  0.00  0.00    -0.325 OA
ATOM     25  C   UNL d   1     -50.669  26.107  33.308  0.00  0.00     0.182 C 
ENDBRANCH  23  24
ENDBRANCH  22  23
ENDBRANCH  21  22
ENDBRANCH   1  19
TORSDOF 7
ENDMDL
MODEL 2
REMARK VINA RESULT:      61.5      1.547      5.405
REMARK  7 active torsions:
REMARK  status: ('A' for Active; 'I' for Inactive)
REMARK    1  A    between atoms: C_2  and  S_1 
REMARK    2  A    between atoms: N_3  and  S_1 
REMARK    3  A    between atoms: C_11  and  N_3 
REMARK    4  A    between atoms: C_4  and  C_7 
REMARK       I    between atoms: N_12  and  C_4 
REMARK    5  A    between atoms: C_22  and  N_12 
REMARK    6  A    between atoms: O_20  and  C_24 
REMARK    7  A    between atoms: C_24  and  C_22 
ROOT
ATOM      1  C   UNL d   1     -47.998  29.192  35.060  0.00  0.00     0.058 A 
ATOM      2  C   UNL d   1     -48.456  27.684  34.585  0.00  0.00     0.094 A 
ATOM      3  C   UNL d   1     -48.629  28.816  35.436  0.00  0.00     0.006 A 
ATOM      4  C   UNL d   1     -47.596  28.814  34.446  0.00  0.00     0.006 A 
ATOM      5  C   UNL d   1     -48.858  28.063  35.199  0.00  0.00     0.020 A 
ATOM      6  C   UNL d   1     -47.825  28.060  34.209  0.00  0.00     0.020 A 
ENDROOT
BRANCH   2   7
ATOM      7  N   UNL d   1     -48.685  26.931  34.349  0.00  0.00    -0.158 NA
BRANCH   7   8
ATOM      8  S   UNL d   1     -49.455  26.800  34.081  0.00  0.00     0.285 S 
ATOM      9  O   UNL d   1     -49.177  26.752  33.306  0.00  0.00    -0.198 OA
ATOM     10  O   UNL d   1     -49.728  26.850  34.857  0.00  0.00    -0.198 OA
BRANCH   8  11
ATOM     11  C   UNL d   1     -50.225  26.670  33.822  0.00  0.00     0.105 A 
ATOM     12  C   UNL d   1     -50.460  25.924  33.571  0.00  0.00     0.012 A 
ATOM     13  C   UNL d   1     -51.234  25.802  33.313  0.00  0.00     0.001 A 
ATOM     14  C   UNL d   1     -49.909  25.300  33.582  0.00  0.00     0.001 C 
ATOM     15  C   UNL d   1     -51.771  26.423  33.306  0.00  0.00     0.000 A 
ATOM     16  C   UNL d   1     -51.537  27.174  33.557  0.00  0.00     0.001 A 
ATOM     17  C   UNL d   1     -50.767  27.303  33.816  0.00  0.00     0.013 A 
ATOM     18  C   UNL d   1     -52.087  27.803  33.548  0.00  0.00     0.000 C 
ENDBRANCH   8  11
ENDBRANCH   7   8
ENDBRANCH   2   7
BRANCH   1  19
ATOM     19  C   UNL d   1     -47.761  29.956  35.296  0.00  0.00     0.279 C 
ATOM     20  O   UNL d   1     -47.378  30.069  36.017  0.00  0.00    -0.265 OA
ATOM     21  N   UNL d   1     -47.913  30.596  34.803  0.00  0.00    -0.204 NA
BRANCH  21  22
ATOM     22  C   UNL d   1     -47.680  31.353  35.034  0.00  0.00     0.128 C 
BRANCH  22  23
ATOM     23  C   UNL d   1     -47.931  32.012  34.607  0.00  0.00     0.137 C 
BRANCH  23  24
ATOM     24  O   UNL d   1     -47.515  32.739  34.674  0.00  0.00    -0.325 OA
ATOM     25  C   UNL d   1     -47.605  33.316  34.098  0.00  0.00     0.182 C 
ENDBRANCH  23  24
ENDBRANCH  22  23
ENDBRANCH  21  22
ENDBRANCH   1  19
TORSDOF 7
ENDMDL
MODEL 3
REMARK VINA RESULT:      62.6      2.996      5.095
REMARK  7 active torsions:
REMARK  status: ('A' for Active; 'I' for Inactive)
REMARK    1  A    between atoms: C_2  and  S_1 
REMARK    2  A    between atoms: N_3  and  S_1 
REMARK    3  A    between atoms: C_11  and  N_3 
REMARK    4  A    between atoms: C_4  and  C_7 
REMARK       I    between atoms: N_12  and  C_4 
REMARK    5  A    between atoms: C_22  and  N_12 
REMARK    6  A    between atoms: O_20  and  C_24 
REMARK    7  A    between atoms: C_24  and  C_22 
ROOT
ATOM      1  C   UNL d   1     -51.080  25.331  33.421  0.00  0.00     0.058 A 
ATOM      2  C   UNL d   1     -50.215  26.730  33.365  0.00  0.00     0.094 A 
ATOM      3  C   UNL d   1     -51.471  26.057  33.426  0.00  0.00     0.006 A 
ATOM      4  C   UNL d   1     -50.256  25.304  33.388  0.00  0.00     0.006 A 
ATOM      5  C   UNL d   1     -51.039  26.756  33.398  0.00  0.00     0.020 A 
ATOM      6  C   UNL d   1     -49.823  26.004  33.360  0.00  0.00     0.020 A 
ENDROOT
BRANCH   2   7
ATOM      7  N   UNL d   1     -49.783  27.429  33.337  0.00  0.00    -0.158 NA
BRANCH   7   8
ATOM      8  S   UNL d   1     -49.439  27.727  34.025  0.00  0.00     0.285 S 
ATOM      9  O   UNL d   1     -48.980  28.242  33.572  0.00  0.00    -0.198 OA
ATOM     10  O   UNL d   1     -49.900  27.212  34.474  0.00  0.00    -0.198 OA
BRANCH   8  11
ATOM     11  C   UNL d   1     -49.101  28.020  34.715  0.00  0.00     0.105 A 
ATOM     12  C   UNL d   1     -49.367  27.767  35.451  0.00  0.00     0.012 A 
ATOM     13  C   UNL d   1     -49.022  28.065  36.138  0.00  0.00     0.001 A 
ATOM     14  C   UNL d   1     -49.985  27.210  35.488  0.00  0.00     0.001 C 
ATOM     15  C   UNL d   1     -48.414  28.614  36.092  0.00  0.00     0.000 A 
ATOM     16  C   UNL d   1     -48.144  28.870  35.354  0.00  0.00     0.001 A 
ATOM     17  C   UNL d   1     -48.483  28.577  34.665  0.00  0.00     0.013 A 
ATOM     18  C   UNL d   1     -47.524  29.428  35.312  0.00  0.00     0.000 C 
ENDBRANCH   8  11
ENDBRANCH   7   8
ENDBRANCH   2   7
BRANCH   1  19
ATOM     19  C   UNL d   1     -51.513  24.619  33.449  0.00  0.00     0.279 C 
ATOM     20  O   UNL d   1     -51.137  23.898  33.310  0.00  0.00    -0.265 OA
ATOM     21  N   UNL d   1     -52.317  24.641  33.618  0.00  0.00    -0.204 NA
BRANCH  21  22
ATOM     22  C   UNL d   1     -52.747  23.938  33.646  0.00  0.00     0.128 C 
BRANCH  22  23
ATOM     23  C   UNL d   1     -53.516  23.911  33.349  0.00  0.00     0.137 C 
BRANCH  23  24
ATOM     24  O   UNL d   1     -53.946  23.189  33.364  0.00  0.00    -0.325 OA
ATOM     25  C   UNL d   1     -54.765  23.200  33.306  0.00  0.00     0.182 C 
ENDBRANCH  23  24
ENDBRANCH  22  23
ENDBRANCH  21  22
ENDBRANCH   1  19
TORSDOF 7
ENDMDL
