MODEL 1
REMARK VINA RESULT:       9.5      0.000      0.000
REMARK  1 active torsions:
REMARK  status: ('A' for Active; 'I' for Inactive)
REMARK    1  A    between atoms: C_6  and  C_1 
ROOT
ATOM      1  C   UNL d   1      24.562  12.606  -2.785  0.00  0.00     0.111 A 
ATOM      2  N   UNL d   1      24.314  13.278  -2.382  0.00  0.00    -0.239 NA
ATOM      3  S   UNL d   1      24.737  12.025  -2.237  0.00  0.00    -0.066 SA
ATOM      4  C   UNL d   1      24.335  13.111  -1.569  0.00  0.00     0.088 A 
ATOM      5  C   UNL d   1      24.597  12.337  -1.475  0.00  0.00     0.049 A 
ATOM      6  C   UNL d   1      24.151  13.564  -0.906  0.00  0.00     0.020 A 
ATOM      7  C   UNL d   1      24.674  12.015  -0.720  0.00  0.00     0.008 A 
ATOM      8  C   UNL d   1      24.489  12.467  -0.058  0.00  0.00     0.001 A 
ATOM      9  C   UNL d   1      24.228  13.242  -0.152  0.00  0.00     0.002 A 
ENDROOT
BRANCH   1  10
ATOM     10  C   UNL d   1      24.613  12.564  -3.613  0.00  0.00     0.024 A 
ATOM     11  C   UNL d   1      24.570  13.252  -4.069  0.00  0.00     0.004 A 
ATOM     12  C   UNL d   1      24.622  13.202  -4.893  0.00  0.00     0.021 A 
ATOM     13  C   UNL d   1      24.716  12.466  -5.265  0.00  0.00     0.103 A 
ATOM     14  C   UNL d   1      24.759  11.782  -4.803  0.00  0.00     0.021 A 
ATOM     15  N   UNL d   1      24.768  12.420  -6.092  0.00  0.00    -0.148 N 
ATOM     16  C   UNL d   1      24.707  11.830  -3.978  0.00  0.00     0.004 A 
ENDBRANCH   1  10
TORSDOF 1
ENDMDL
