MODEL 1
REMARK VINA RESULT:     104.0      0.000      0.000
REMARK  6 active torsions:
REMARK  status: ('A' for Active; 'I' for Inactive)
REMARK    1  A    between atoms: N_2  and  S_1 
REMARK    2  A    between atoms: C_6  and  S_1 
REMARK    3  A    between atoms: N_4  and  C_3 
REMARK       I    between atoms: C_5  and  N_4 
REMARK       I    between atoms: N_10  and  C_5 
REMARK    4  A    between atoms: C_7  and  C_11 
REMARK    5  A    between atoms: O_20  and  C_7 
REMARK    6  A    between atoms: C_14  and  N_10 
ROOT
ATOM      1  N   UNL d   1      56.787  48.383  50.115  0.00  0.00    -0.214 N 
ATOM      2  C   UNL d   1      57.232  49.084  50.164  0.00  0.00     0.162 A 
ATOM      3  C   UNL d   1      56.043  48.577  49.799  0.00  0.00     0.093 A 
ATOM      4  C   UNL d   1      56.764  49.708  49.880  0.00  0.00     0.040 A 
ATOM      5  C   UNL d   1      56.039  49.396  49.658  0.00  0.00     0.023 A 
ENDROOT
BRANCH   2   6
ATOM      6  N   UNL d   1      58.017  49.141  50.451  0.00  0.00    -0.173 NA
ATOM      7  C   UNL d   1      58.153  49.451  51.201  0.00  0.00     0.370 C 
ATOM      8  N   UNL d   1      58.928  49.509  51.488  0.00  0.00    -0.191 NA
ATOM      9  O   UNL d   1      57.525  49.708  51.674  0.00  0.00    -0.242 OA
BRANCH   8  10
ATOM     10  C   UNL d   1      59.560  49.256  51.023  0.00  0.00     0.086 A 
ATOM     11  C   UNL d   1      59.950  48.552  51.206  0.00  0.00     0.025 A 
ATOM     12  C   UNL d   1      60.581  48.299  50.741  0.00  0.00     0.065 A 
ATOM     13  C   UNL d   1      60.823  48.751  50.090  0.00  0.00     0.005 A 
ATOM     14  C   UNL d   1      60.431  49.453  49.911  0.00  0.00     0.002 A 
ATOM     15  C   UNL d   1      59.800  49.706  50.375  0.00  0.00     0.019 A 
BRANCH  12  16
ATOM     16  C   UNL d   1      60.967  47.592  50.930  0.00  0.00     0.296 C 
ATOM     17  O   UNL d   1      60.795  47.195  51.623  0.00  0.00    -0.259 OA
BRANCH  16  18
ATOM     18  O   UNL d   1      61.532  47.290  50.409  0.00  0.00    -0.296 OA
ATOM     19  C   UNL d   1      61.876  46.560  50.543  0.00  0.00     0.185 C 
ENDBRANCH  16  18
ENDBRANCH  12  16
ENDBRANCH   8  10
ENDBRANCH   2   6
BRANCH   1  20
ATOM     20  S   UNL d   1      56.950  47.602  50.309  0.00  0.00     0.272 S 
ATOM     21  O   UNL d   1      57.396  47.501  49.654  0.00  0.00    -0.200 OA
ATOM     22  O   UNL d   1      56.500  47.669  50.993  0.00  0.00    -0.200 OA
BRANCH  20  23
ATOM     23  C   UNL d   1      57.123  46.807  50.499  0.00  0.00     0.104 A 
ATOM     24  C   UNL d   1      57.897  46.532  50.462  0.00  0.00     0.014 A 
ATOM     25  C   UNL d   1      58.058  45.754  50.649  0.00  0.00     0.012 A 
ATOM     26  C   UNL d   1      57.448  45.236  50.877  0.00  0.00     0.058 A 
ATOM     27  C   UNL d   1      56.674  45.511  50.915  0.00  0.00     0.012 A 
ATOM     28 CL   UNL d   1      57.615  44.448  51.066  0.00  0.00    -0.082 Cl
ATOM     29  C   UNL d   1      56.506  46.305  50.725  0.00  0.00     0.014 A 
ENDBRANCH  20  23
ENDBRANCH   1  20
TORSDOF 6
ENDMDL
MODEL 2
REMARK VINA RESULT:     106.3      2.159      3.782
REMARK  6 active torsions:
REMARK  status: ('A' for Active; 'I' for Inactive)
REMARK    1  A    between atoms: N_2  and  S_1 
REMARK    2  A    between atoms: C_6  and  S_1 
REMARK    3  A    between atoms: N_4  and  C_3 
REMARK       I    between atoms: C_5  and  N_4 
REMARK       I    between atoms: N_10  and  C_5 
REMARK    4  A    between atoms: C_7  and  C_11 
REMARK    5  A    between atoms: O_20  and  C_7 
REMARK    6  A    between atoms: C_14  and  N_10 
ROOT
ATOM      1  N   UNL d   1      60.508  49.089  50.382  0.00  0.00    -0.214 N 
ATOM      2  C   UNL d   1      61.033  48.459  50.527  0.00  0.00     0.162 A 
ATOM      3  C   UNL d   1      60.944  49.708  50.040  0.00  0.00     0.093 A 
ATOM      4  C   UNL d   1      61.789  48.691  50.275  0.00  0.00     0.040 A 
ATOM      5  C   UNL d   1      61.733  49.453  49.978  0.00  0.00     0.023 A 
ENDROOT
BRANCH   2   6
ATOM      6  N   UNL d   1      60.825  47.723  50.868  0.00  0.00    -0.173 NA
ATOM      7  C   UNL d   1      60.913  47.612  51.678  0.00  0.00     0.370 C 
ATOM      8  N   UNL d   1      60.708  46.884  52.018  0.00  0.00    -0.191 NA
ATOM      9  O   UNL d   1      61.205  48.217  52.160  0.00  0.00    -0.242 OA
BRANCH   8  10
ATOM     10  C   UNL d   1      60.416  46.276  51.545  0.00  0.00     0.086 A 
ATOM     11  C   UNL d   1      60.940  45.785  51.137  0.00  0.00     0.025 A 
ATOM     12  C   UNL d   1      60.648  45.177  50.664  0.00  0.00     0.065 A 
ATOM     13  C   UNL d   1      59.831  45.058  50.599  0.00  0.00     0.005 A 
ATOM     14  C   UNL d   1      59.312  45.550  51.008  0.00  0.00     0.002 A 
ATOM     15  C   UNL d   1      59.603  46.159  51.481  0.00  0.00     0.019 A 
BRANCH  12  16
ATOM     16  C   UNL d   1      61.179  44.689  50.258  0.00  0.00     0.296 C 
ATOM     17  O   UNL d   1      61.119  44.588  49.450  0.00  0.00    -0.259 OA
BRANCH  16  18
ATOM     18  O   UNL d   1      61.774  44.301  50.680  0.00  0.00    -0.296 OA
ATOM     19  C   UNL d   1      61.779  43.486  50.741  0.00  0.00     0.185 C 
ENDBRANCH  16  18
ENDBRANCH  12  16
ENDBRANCH   8  10
ENDBRANCH   2   6
BRANCH   1  20
ATOM     20  S   UNL d   1      59.703  49.186  50.511  0.00  0.00     0.272 S 
ATOM     21  O   UNL d   1      59.521  48.884  49.794  0.00  0.00    -0.200 OA
ATOM     22  O   UNL d   1      59.851  49.501  51.254  0.00  0.00    -0.200 OA
BRANCH  20  23
ATOM     23  C   UNL d   1      58.882  49.281  50.633  0.00  0.00     0.104 A 
ATOM     24  C   UNL d   1      58.348  49.047  50.052  0.00  0.00     0.014 A 
ATOM     25  C   UNL d   1      57.547  49.143  50.178  0.00  0.00     0.012 A 
ATOM     26  C   UNL d   1      57.265  49.474  50.887  0.00  0.00     0.058 A 
ATOM     27  C   UNL d   1      57.798  49.708  51.468  0.00  0.00     0.012 A 
ATOM     28 CL   UNL d   1      56.452  49.570  51.011  0.00  0.00    -0.082 Cl
ATOM     29  C   UNL d   1      58.617  49.612  51.342  0.00  0.00     0.014 A 
ENDBRANCH  20  23
ENDBRANCH   1  20
TORSDOF 6
ENDMDL
