MODEL 1
REMARK VINA RESULT:       4.2      0.000      0.000
REMARK  5 active torsions:
REMARK  status: ('A' for Active; 'I' for Inactive)
REMARK    1  A    between atoms: N_3  and  S_1 
REMARK    2  A    between atoms: C_13  and  S_1 
REMARK    3  A    between atoms: C_2  and  N_3 
REMARK    4  A    between atoms: N_9  and  C_4 
REMARK       I    between atoms: C_8  and  N_10 
REMARK    5  A    between atoms: C_19  and  C_8 
ROOT
ATOM      1  C   UNL d   1      30.027  16.263 -24.262  0.00  0.00     0.110 A 
ATOM      2  C   UNL d   1      30.181  17.313 -24.320  0.00  0.00     0.083 A 
ATOM      3  C   UNL d   1      29.208  16.216 -24.263  0.00  0.00     0.020 A 
ATOM      4  C   UNL d   1      29.414  17.616 -24.341  0.00  0.00     0.018 A 
ATOM      5  C   UNL d   1      28.906  16.968 -24.306  0.00  0.00     0.003 A 
ATOM      6  C   UNL d   1      28.090  17.084 -24.317  0.00  0.00     0.000 A 
ATOM      7  C   UNL d   1      28.708  15.552 -24.227  0.00  0.00     0.002 A 
ATOM      8  C   UNL d   1      29.112  18.368 -24.385  0.00  0.00     0.002 A 
ATOM      9  C   UNL d   1      27.885  15.685 -24.238  0.00  0.00     0.000 A 
ATOM     10  C   UNL d   1      28.287  18.504 -24.396  0.00  0.00     0.000 A 
ATOM     11  C   UNL d   1      27.578  16.444 -24.283  0.00  0.00     0.000 A 
ATOM     12  C   UNL d   1      27.785  17.844 -24.361  0.00  0.00     0.000 A 
ENDROOT
BRANCH   2  13
ATOM     13  N   UNL d   1      30.820  17.824 -24.346  0.00  0.00    -0.300 N 
ATOM     14  C   UNL d   1      31.267  17.880 -25.035  0.00  0.00     0.100 A 
ATOM     15  C   UNL d   1      31.885  18.378 -25.052  0.00  0.00     0.102 A 
ATOM     16  N   UNL d   1      32.112  18.861 -24.393  0.00  0.00    -0.269 N 
ATOM     17  C   UNL d   1      32.752  19.381 -24.405  0.00  0.00     0.265 C 
ATOM     18  C   UNL d   1      31.668  18.805 -23.712  0.00  0.00     0.102 A 
ATOM     19  O   UNL d   1      33.238  19.479 -25.070  0.00  0.00    -0.267 OA
ATOM     20  C   UNL d   1      30.989  18.260 -23.687  0.00  0.00     0.100 A 
BRANCH  17  21
ATOM     21  C   UNL d   1      32.912  19.816 -23.730  0.00  0.00     0.057 A 
ATOM     22  C   UNL d   1      33.039  19.443 -22.996  0.00  0.00     0.005 A 
ATOM     23  C   UNL d   1      33.201  19.891 -22.315  0.00  0.00     0.000 A 
ATOM     24  C   UNL d   1      33.238  20.724 -22.364  0.00  0.00     0.000 A 
ATOM     25  C   UNL d   1      33.111  21.091 -23.095  0.00  0.00     0.000 A 
ATOM     26  C   UNL d   1      32.949  20.639 -23.771  0.00  0.00     0.005 A 
ENDBRANCH  17  21
ENDBRANCH   2  13
BRANCH   1  27
ATOM     27  N   UNL d   1      30.494  15.597 -24.222  0.00  0.00    -0.157 NA
BRANCH  27  28
ATOM     28  S   UNL d   1      31.160  15.566 -23.739  0.00  0.00     0.285 S 
ATOM     29  O   UNL d   1      31.637  15.652 -24.405  0.00  0.00    -0.198 OA
ATOM     30  O   UNL d   1      30.681  15.481 -23.081  0.00  0.00    -0.198 OA
BRANCH  28  31
ATOM     31  C   UNL d   1      31.824  15.536 -23.264  0.00  0.00     0.105 A 
ATOM     32  C   UNL d   1      32.579  15.483 -23.599  0.00  0.00     0.013 A 
ATOM     33  C   UNL d   1      33.241  15.453 -23.120  0.00  0.00     0.001 A 
ATOM     34  C   UNL d   1      33.163  15.475 -22.309  0.00  0.00     0.000 A 
ATOM     35  C   UNL d   1      32.403  15.528 -21.952  0.00  0.00     0.001 A 
ATOM     36  C   UNL d   1      31.745  15.558 -22.448  0.00  0.00     0.013 A 
ENDBRANCH  28  31
ENDBRANCH  27  28
ENDBRANCH   1  27
TORSDOF 5
ENDMDL
