MODEL 1
REMARK VINA RESULT:      -5.5      0.000      0.000
REMARK  7 active torsions:
REMARK  status: ('A' for Active; 'I' for Inactive)
REMARK    1  A    between atoms: C_6  and  N_1 
REMARK    2  A    between atoms: C_12  and  C_6 
REMARK    3  A    between atoms: C_7  and  C_8 
REMARK    4  A    between atoms: C_22  and  C_7 
REMARK    5  A    between atoms: C_15  and  C_12 
REMARK    6  A    between atoms: O_13  and  C_15 
REMARK    7  A    between atoms: C_14  and  O_13 
ROOT
ATOM      1  C   UNL d   1      58.869  -0.221  29.485  0.00  0.00     0.238 C 
ATOM      2  O   UNL d   1      59.342   0.449  29.591  0.00  0.00    -0.283 OA
ENDROOT
BRANCH   1   3
ATOM      3  C   UNL d   1      58.970  -0.701  28.820  0.00  0.00     0.126 C 
BRANCH   3   4
ATOM      4  N   UNL d   1      59.600  -1.244  28.801  0.00  0.00    -0.286 N 
ATOM      5  C   UNL d   1      60.406  -1.044  28.771  0.00  0.00     0.148 A 
ATOM      6  N   UNL d   1      60.843  -1.752  28.760  0.00  0.00    -0.227 NA
ATOM      7  C   UNL d   1      60.720  -0.284  28.754  0.00  0.00     0.041 C 
ATOM      8  C   UNL d   1      60.313  -2.381  28.783  0.00  0.00     0.099 A 
ATOM      9  C   UNL d   1      59.542  -2.064  28.809  0.00  0.00     0.083 A 
ATOM     10  C   UNL d   1      60.423  -3.190  28.785  0.00  0.00     0.021 A 
ATOM     11  C   UNL d   1      58.891  -2.577  28.836  0.00  0.00     0.019 A 
ATOM     12  C   UNL d   1      59.011  -3.396  28.837  0.00  0.00     0.002 A 
ATOM     13  C   UNL d   1      59.778  -3.700  28.812  0.00  0.00     0.002 A 
ENDBRANCH   3   4
ENDBRANCH   1   3
BRANCH   1  14
ATOM     14  C   UNL d   1      58.290  -0.408  30.055  0.00  0.00     0.166 C 
BRANCH  14  15
ATOM     15  O   UNL d   1      57.880   0.221  30.457  0.00  0.00    -0.302 OA
BRANCH  15  16
ATOM     16  C   UNL d   1      57.367   0.065  31.097  0.00  0.00     0.100 A 
ATOM     17  C   UNL d   1      57.153  -0.707  31.275  0.00  0.00     0.025 A 
ATOM     18  C   UNL d   1      56.643  -0.858  31.910  0.00  0.00     0.005 A 
ATOM     19  C   UNL d   1      56.356  -0.241  32.355  0.00  0.00     0.039 A 
ATOM     20  C   UNL d   1      56.575   0.537  32.172  0.00  0.00     0.005 A 
ATOM     21  C   UNL d   1      57.080   0.682  31.541  0.00  0.00     0.025 A 
BRANCH  19  22
ATOM     22  C   UNL d   1      55.849  -0.388  32.987  0.00  0.00     0.196 C 
ATOM     23  O   UNL d   1      55.780  -1.144  33.296  0.00  0.00    -0.287 OA
BRANCH  22  24
ATOM     24  C   UNL d   1      55.408   0.230  33.312  0.00  0.00     0.042 C 
ATOM     25  C   UNL d   1      55.074   0.149  34.054  0.00  0.00     0.003 C 
ENDBRANCH  22  24
ENDBRANCH  19  22
ENDBRANCH  15  16
ENDBRANCH  14  15
ENDBRANCH   1  14
TORSDOF 7
ENDMDL
MODEL 2
REMARK VINA RESULT:      -3.9      1.073      1.980
REMARK  7 active torsions:
REMARK  status: ('A' for Active; 'I' for Inactive)
REMARK    1  A    between atoms: C_6  and  N_1 
REMARK    2  A    between atoms: C_12  and  C_6 
REMARK    3  A    between atoms: C_7  and  C_8 
REMARK    4  A    between atoms: C_22  and  C_7 
REMARK    5  A    between atoms: C_15  and  C_12 
REMARK    6  A    between atoms: O_13  and  C_15 
REMARK    7  A    between atoms: C_14  and  O_13 
ROOT
ATOM      1  C   UNL d   1      57.991  -1.187  30.254  0.00  0.00     0.238 C 
ATOM      2  O   UNL d   1      58.352  -1.847  30.597  0.00  0.00    -0.283 OA
ENDROOT
BRANCH   1   3
ATOM      3  C   UNL d   1      58.120  -1.009  29.458  0.00  0.00     0.126 C 
BRANCH   3   4
ATOM      4  N   UNL d   1      58.877  -1.124  29.132  0.00  0.00    -0.286 N 
ATOM      5  C   UNL d   1      59.167  -1.842  28.831  0.00  0.00     0.148 A 
ATOM      6  N   UNL d   1      59.943  -1.710  28.563  0.00  0.00    -0.227 NA
ATOM      7  C   UNL d   1      58.763  -2.558  28.800  0.00  0.00     0.041 C 
ATOM      8  C   UNL d   1      60.131  -0.920  28.697  0.00  0.00     0.099 A 
ATOM      9  C   UNL d   1      59.467  -0.558  29.051  0.00  0.00     0.083 A 
ATOM     10  C   UNL d   1      60.805  -0.485  28.549  0.00  0.00     0.021 A 
ATOM     11  C   UNL d   1      59.501   0.247  29.249  0.00  0.00     0.019 A 
ATOM     12  C   UNL d   1      60.189   0.681  29.096  0.00  0.00     0.002 A 
ATOM     13  C   UNL d   1      60.838   0.314  28.746  0.00  0.00     0.002 A 
ENDBRANCH   3   4
ENDBRANCH   1   3
BRANCH   1  14
ATOM     14  C   UNL d   1      57.496  -0.703  30.719  0.00  0.00     0.166 C 
BRANCH  14  15
ATOM     15  O   UNL d   1      57.585  -0.703  31.565  0.00  0.00    -0.302 OA
BRANCH  15  16
ATOM     16  C   UNL d   1      56.983  -0.413  32.066  0.00  0.00     0.100 A 
ATOM     17  C   UNL d   1      56.496  -0.935  32.470  0.00  0.00     0.025 A 
ATOM     18  C   UNL d   1      55.900  -0.644  32.965  0.00  0.00     0.005 A 
ATOM     19  C   UNL d   1      55.798   0.158  33.049  0.00  0.00     0.039 A 
ATOM     20  C   UNL d   1      56.291   0.682  32.639  0.00  0.00     0.005 A 
ATOM     21  C   UNL d   1      56.881   0.389  32.149  0.00  0.00     0.025 A 
BRANCH  19  22
ATOM     22  C   UNL d   1      55.205   0.450  33.541  0.00  0.00     0.196 C 
ATOM     23  O   UNL d   1      54.484   0.682  33.229  0.00  0.00    -0.287 OA
BRANCH  22  24
ATOM     24  C   UNL d   1      55.339   0.510  34.354  0.00  0.00     0.042 C 
ATOM     25  C   UNL d   1      54.720   0.679  34.860  0.00  0.00     0.003 C 
ENDBRANCH  22  24
ENDBRANCH  19  22
ENDBRANCH  15  16
ENDBRANCH  14  15
ENDBRANCH   1  14
TORSDOF 7
ENDMDL
MODEL 3
REMARK VINA RESULT:      -3.8      1.925      5.678
REMARK  7 active torsions:
REMARK  status: ('A' for Active; 'I' for Inactive)
REMARK    1  A    between atoms: C_6  and  N_1 
REMARK    2  A    between atoms: C_12  and  C_6 
REMARK    3  A    between atoms: C_7  and  C_8 
REMARK    4  A    between atoms: C_22  and  C_7 
REMARK    5  A    between atoms: C_15  and  C_12 
REMARK    6  A    between atoms: O_13  and  C_15 
REMARK    7  A    between atoms: C_14  and  O_13 
ROOT
ATOM      1  C   UNL d   1      56.835  -0.041  31.554  0.00  0.00     0.238 C 
ATOM      2  O   UNL d   1      56.387  -0.732  31.624  0.00  0.00    -0.283 OA
ENDROOT
BRANCH   1   3
ATOM      3  C   UNL d   1      56.606   0.647  31.951  0.00  0.00     0.126 C 
BRANCH   3   4
ATOM      4  N   UNL d   1      56.612   0.657  32.783  0.00  0.00    -0.286 N 
ATOM      5  C   UNL d   1      57.293   0.673  33.259  0.00  0.00     0.148 A 
ATOM      6  N   UNL d   1      57.048   0.679  34.054  0.00  0.00    -0.227 NA
ATOM      7  C   UNL d   1      58.072   0.681  32.996  0.00  0.00     0.041 C 
ATOM      8  C   UNL d   1      56.225   0.667  34.069  0.00  0.00     0.099 A 
ATOM      9  C   UNL d   1      55.956   0.653  33.279  0.00  0.00     0.083 A 
ATOM     10  C   UNL d   1      55.688   0.667  34.684  0.00  0.00     0.021 A 
ATOM     11  C   UNL d   1      55.141   0.639  33.126  0.00  0.00     0.019 A 
ATOM     12  C   UNL d   1      54.603   0.639  33.756  0.00  0.00     0.002 A 
ATOM     13  C   UNL d   1      54.879   0.653  34.532  0.00  0.00     0.002 A 
ENDBRANCH   3   4
ENDBRANCH   1   3
BRANCH   1  14
ATOM     14  C   UNL d   1      57.520  -0.043  31.078  0.00  0.00     0.166 C 
BRANCH  14  15
ATOM     15  O   UNL d   1      57.477  -0.352  30.286  0.00  0.00    -0.302 OA
BRANCH  15  16
ATOM     16  C   UNL d   1      58.162  -0.611  29.883  0.00  0.00     0.100 A 
ATOM     17  C   UNL d   1      58.553  -0.106  29.369  0.00  0.00     0.025 A 
ATOM     18  C   UNL d   1      59.232  -0.366  28.971  0.00  0.00     0.005 A 
ATOM     19  C   UNL d   1      59.508  -1.121  29.093  0.00  0.00     0.039 A 
ATOM     20  C   UNL d   1      59.110  -1.628  29.614  0.00  0.00     0.005 A 
ATOM     21  C   UNL d   1      58.438  -1.366  30.005  0.00  0.00     0.025 A 
BRANCH  19  22
ATOM     22  C   UNL d   1      60.183  -1.382  28.699  0.00  0.00     0.196 C 
ATOM     23  O   UNL d   1      60.756  -0.847  28.458  0.00  0.00    -0.287 OA
BRANCH  22  24
ATOM     24  C   UNL d   1      60.283  -2.188  28.546  0.00  0.00     0.042 C 
ATOM     25  C   UNL d   1      61.034  -2.507  28.506  0.00  0.00     0.003 C 
ENDBRANCH  22  24
ENDBRANCH  19  22
ENDBRANCH  15  16
ENDBRANCH  14  15
ENDBRANCH   1  14
TORSDOF 7
ENDMDL
