MODEL 1
REMARK VINA RESULT:      99.0      0.000      0.000
REMARK  7 active torsions:
REMARK  status: ('A' for Active; 'I' for Inactive)
REMARK    1  A    between atoms: C_2  and  S_1 
REMARK    2  A    between atoms: N_3  and  S_1 
REMARK    3  A    between atoms: C_16  and  N_3 
REMARK    4  A    between atoms: C_4  and  C_8 
REMARK       I    between atoms: N_5  and  C_4 
REMARK    5  A    between atoms: C_17  and  N_5 
REMARK    6  A    between atoms: C_20  and  C_16 
REMARK    7  A    between atoms: C_18  and  C_17 
ROOT
ATOM      1  C   UNL d   1      60.360  48.289  50.613  0.00  0.00     0.058 A 
ATOM      2  C   UNL d   1      59.999  47.578  50.829  0.00  0.00     0.005 A 
ATOM      3  C   UNL d   1      61.144  48.285  50.353  0.00  0.00     0.005 A 
ATOM      4  C   UNL d   1      61.200  46.864  50.528  0.00  0.00     0.020 A 
ATOM      5  C   UNL d   1      60.416  46.868  50.787  0.00  0.00     0.002 A 
ATOM      6  C   UNL d   1      61.564  47.565  50.312  0.00  0.00     0.002 A 
ENDROOT
BRANCH   4   7
ATOM      7  C   UNL d   1      61.611  46.154  50.488  0.00  0.00     0.112 C 
BRANCH   7   8
ATOM      8  N   UNL d   1      61.251  45.490  50.169  0.00  0.00    -0.157 NA
BRANCH   8   9
ATOM      9  S   UNL d   1      61.622  44.750  50.206  0.00  0.00     0.285 S 
ATOM     10  O   UNL d   1      61.737  44.764  49.394  0.00  0.00    -0.198 OA
ATOM     11  O   UNL d   1      61.505  44.739  51.020  0.00  0.00    -0.198 OA
BRANCH   9  12
ATOM     12  C   UNL d   1      61.991  44.011  50.253  0.00  0.00     0.105 A 
ATOM     13  C   UNL d   1      62.344  43.685  49.589  0.00  0.00     0.012 A 
ATOM     14  C   UNL d   1      62.710  42.951  49.638  0.00  0.00     0.001 A 
ATOM     15  C   UNL d   1      62.326  44.108  48.869  0.00  0.00     0.001 C 
ATOM     16  C   UNL d   1      62.724  42.537  50.357  0.00  0.00     0.000 A 
ATOM     17  C   UNL d   1      62.366  42.872  51.023  0.00  0.00     0.001 A 
ATOM     18  C   UNL d   1      61.999  43.609  50.973  0.00  0.00     0.013 A 
ATOM     19  C   UNL d   1      62.381  42.457  51.740  0.00  0.00     0.000 C 
ENDBRANCH   9  12
ENDBRANCH   8   9
ENDBRANCH   7   8
ENDBRANCH   4   7
BRANCH   1  20
ATOM     20  C   UNL d   1      59.946  48.996  50.654  0.00  0.00     0.279 C 
ATOM     21  N   UNL d   1      59.128  48.994  50.602  0.00  0.00    -0.205 NA
ATOM     22  O   UNL d   1      60.356  49.708  50.749  0.00  0.00    -0.265 OA
BRANCH  21  23
ATOM     23  C   UNL d   1      58.708  49.705  50.643  0.00  0.00     0.121 C 
BRANCH  23  24
ATOM     24  C   UNL d   1      57.900  49.706  50.483  0.00  0.00     0.101 A 
ATOM     25  N   UNL d   1      57.366  49.706  51.107  0.00  0.00    -0.242 NA
ATOM     26  C   UNL d   1      56.563  49.707  50.940  0.00  0.00     0.099 A 
ATOM     27  C   UNL d   1      56.292  49.708  50.166  0.00  0.00     0.021 A 
ATOM     28  C   UNL d   1      56.842  49.708  49.546  0.00  0.00     0.003 A 
ATOM     29  C   UNL d   1      57.648  49.707  49.710  0.00  0.00     0.021 A 
ENDBRANCH  23  24
ENDBRANCH  21  23
ENDBRANCH   1  20
TORSDOF 7
ENDMDL
MODEL 2
REMARK VINA RESULT:      99.0      1.882      2.855
REMARK  7 active torsions:
REMARK  status: ('A' for Active; 'I' for Inactive)
REMARK    1  A    between atoms: C_2  and  S_1 
REMARK    2  A    between atoms: N_3  and  S_1 
REMARK    3  A    between atoms: C_16  and  N_3 
REMARK    4  A    between atoms: C_4  and  C_8 
REMARK       I    between atoms: N_5  and  C_4 
REMARK    5  A    between atoms: C_17  and  N_5 
REMARK    6  A    between atoms: C_20  and  C_16 
REMARK    7  A    between atoms: C_18  and  C_17 
ROOT
ATOM      1  C   UNL d   1      61.555  46.430  49.987  0.00  0.00     0.058 A 
ATOM      2  C   UNL d   1      61.962  46.017  49.398  0.00  0.00     0.005 A 
ATOM      3  C   UNL d   1      61.248  46.020  50.634  0.00  0.00     0.005 A 
ATOM      4  C   UNL d   1      61.754  44.790  50.101  0.00  0.00     0.020 A 
ATOM      5  C   UNL d   1      62.061  45.200  49.455  0.00  0.00     0.002 A 
ATOM      6  C   UNL d   1      61.350  45.194  50.688  0.00  0.00     0.002 A 
ENDROOT
BRANCH   4   7
ATOM      7  C   UNL d   1      61.856  43.977  50.153  0.00  0.00     0.112 C 
BRANCH   7   8
ATOM      8  N   UNL d   1      62.578  43.669  50.393  0.00  0.00    -0.157 NA
BRANCH   8   9
ATOM      9  S   UNL d   1      62.714  42.852  50.378  0.00  0.00     0.285 S 
ATOM     10  O   UNL d   1      63.155  42.935  49.691  0.00  0.00    -0.198 OA
ATOM     11  O   UNL d   1      62.272  42.772  51.066  0.00  0.00    -0.198 OA
BRANCH   9  12
ATOM     12  C   UNL d   1      62.845  42.036  50.371  0.00  0.00     0.105 A 
ATOM     13  C   UNL d   1      63.028  41.642  51.067  0.00  0.00     0.012 A 
ATOM     14  C   UNL d   1      63.157  40.831  51.057  0.00  0.00     0.001 A 
ATOM     15  C   UNL d   1      63.080  42.076  51.778  0.00  0.00     0.001 C 
ATOM     16  C   UNL d   1      63.104  40.406  50.346  0.00  0.00     0.000 A 
ATOM     17  C   UNL d   1      62.919  40.809  49.648  0.00  0.00     0.001 A 
ATOM     18  C   UNL d   1      62.789  41.624  49.659  0.00  0.00     0.013 A 
ATOM     19  C   UNL d   1      62.865  40.384  48.939  0.00  0.00     0.000 C 
ENDBRANCH   9  12
ENDBRANCH   8   9
ENDBRANCH   7   8
ENDBRANCH   4   7
BRANCH   1  20
ATOM     20  C   UNL d   1      61.456  47.243  49.932  0.00  0.00     0.279 C 
ATOM     21  N   UNL d   1      61.089  47.652  50.539  0.00  0.00    -0.205 NA
ATOM     22  O   UNL d   1      61.727  47.645  49.261  0.00  0.00    -0.265 OA
BRANCH  21  23
ATOM     23  C   UNL d   1      60.987  48.471  50.486  0.00  0.00     0.121 C 
BRANCH  23  24
ATOM     24  C   UNL d   1      60.700  48.885  51.138  0.00  0.00     0.101 A 
ATOM     25  N   UNL d   1      59.888  48.926  51.262  0.00  0.00    -0.242 NA
ATOM     26  C   UNL d   1      59.608  49.340  51.912  0.00  0.00     0.099 A 
ATOM     27  C   UNL d   1      60.124  49.708  52.432  0.00  0.00     0.021 A 
ATOM     28  C   UNL d   1      60.940  49.658  52.296  0.00  0.00     0.003 A 
ATOM     29  C   UNL d   1      61.224  49.244  51.644  0.00  0.00     0.021 A 
ENDBRANCH  23  24
ENDBRANCH  21  23
ENDBRANCH   1  20
TORSDOF 7
ENDMDL
