MODEL 1
REMARK VINA RESULT:      76.0      0.000      0.000
REMARK  5 active torsions:
REMARK  status: ('A' for Active; 'I' for Inactive)
REMARK    1  A    between atoms: O_5  and  C_1 
REMARK    2  A    between atoms: C_10  and  C_2 
REMARK    3  A    between atoms: C_3  and  O_5 
REMARK    4  A    between atoms: C_6  and  C_3 
REMARK    5  A    between atoms: N_11  and  C_10 
ROOT
ATOM      1  C   UNL d   1     -57.249 -98.946 -44.705  0.00  0.00     0.122 A 
ATOM      2  C   UNL d   1     -57.850 -99.095 -45.249  0.00  0.00     0.043 A 
ATOM      3  C   UNL d   1     -57.420 -98.927 -43.898  0.00  0.00     0.105 A 
ATOM      4  C   UNL d   1     -58.190 -99.056 -43.636  0.00  0.00     0.030 A 
ATOM      5  C   UNL d   1     -58.782 -99.204 -44.184  0.00  0.00     0.059 A 
ATOM      6  C   UNL d   1     -58.621 -99.224 -44.988  0.00  0.00     0.015 A 
ATOM      7  N   UNL d   1     -56.821 -98.779 -43.361  0.00  0.00    -0.242 NA
ATOM      8 CL   UNL d   1     -59.556 -99.332 -43.895  0.00  0.00    -0.082 Cl
ATOM      9  C   UNL d   1     -58.354 -99.037 -42.840  0.00  0.00     0.004 A 
ATOM     10  C   UNL d   1     -56.992 -98.760 -42.554  0.00  0.00     0.099 A 
ATOM     11  C   UNL d   1     -57.762 -98.890 -42.293  0.00  0.00     0.021 A 
ENDROOT
BRANCH   1  12
ATOM     12  O   UNL d   1     -56.547 -98.827 -44.931  0.00  0.00    -0.271 OA
BRANCH  12  13
ATOM     13  C   UNL d   1     -55.703 -99.284 -45.024  0.00  0.00     0.302 C 
ATOM     14  O   UNL d   1     -55.002 -98.757 -45.513  0.00  0.00    -0.259 OA
BRANCH  13  15
ATOM     15  C   UNL d   1     -55.591-100.041 -44.720  0.00  0.00     0.091 A 
ATOM     16  C   UNL d   1     -55.119-100.150 -44.044  0.00  0.00     0.145 A 
ATOM     17  F   UNL d   1     -54.718 -99.501 -43.614  0.00  0.00    -0.204 F 
ATOM     18  C   UNL d   1     -55.007-100.918 -43.738  0.00  0.00     0.030 A 
ATOM     19  C   UNL d   1     -55.365-101.577 -44.107  0.00  0.00     0.002 A 
ATOM     20  C   UNL d   1     -55.835-101.464 -44.781  0.00  0.00     0.000 A 
ATOM     21  C   UNL d   1     -55.946-100.696 -45.085  0.00  0.00     0.008 A 
ENDBRANCH  13  15
ENDBRANCH  12  13
ENDBRANCH   1  12
BRANCH   2  22
ATOM     22  C   UNL d   1     -57.856 -99.153 -46.158  0.00  0.00     0.082 C 
BRANCH  22  23
ATOM     23  N   UNL d   1     -58.555 -99.021 -46.566  0.00  0.00    -0.299 N 
ATOM     24  C   UNL d   1     -58.545 -98.978 -47.382  0.00  0.00     0.107 A 
ATOM     25  C   UNL d   1     -59.242 -98.845 -47.807  0.00  0.00     0.142 A 
ATOM     26  O   UNL d   1     -59.943 -98.756 -47.400  0.00  0.00    -0.300 OA
ATOM     27  C   UNL d   1     -59.956 -98.799 -46.572  0.00  0.00     0.142 A 
ATOM     28  C   UNL d   1     -59.257 -98.932 -46.166  0.00  0.00     0.107 A 
ENDBRANCH  22  23
ENDBRANCH   2  22
TORSDOF 5
ENDMDL
