MODEL 1
REMARK VINA RESULT:      49.5      0.000      0.000
REMARK  3 active torsions:
REMARK  status: ('A' for Active; 'I' for Inactive)
REMARK    1  A    between atoms: S_2  and  C_1 
REMARK    2  A    between atoms: C_8  and  S_2 
REMARK    3  A    between atoms: C_20  and  C_13 
ROOT
ATOM      1  C   UNL d   1     -54.756-101.619 -40.743  0.00  0.00     0.151 A 
ATOM      2  C   UNL d   1     -54.757-102.453 -40.740  0.00  0.00     0.311 A 
ATOM      3  C   UNL d   1     -54.748-101.213 -40.027  0.00  0.00     0.019 A 
ATOM      4  O   UNL d   1     -54.751-102.863 -40.022  0.00  0.00    -0.273 OA
ATOM      5  C   UNL d   1     -54.742-101.615 -39.313  0.00  0.00     0.024 A 
ATOM      6  C   UNL d   1     -54.744-102.449 -39.311  0.00  0.00     0.103 A 
ATOM      7  O   UNL d   1     -54.765-102.871 -41.459  0.00  0.00    -0.258 OA
ATOM      8  C   UNL d   1     -54.734-101.209 -38.602  0.00  0.00     0.009 A 
ATOM      9  C   UNL d   1     -54.738-102.859 -38.597  0.00  0.00     0.025 A 
ATOM     10  C   UNL d   1     -54.728-101.611 -37.880  0.00  0.00     0.035 A 
ATOM     11  C   UNL d   1     -54.730-102.445 -37.878  0.00  0.00     0.009 A 
ATOM     12 BR   UNL d   1     -54.721-101.192 -37.156  0.00  0.00    -0.049 Br
ENDROOT
BRANCH   1  13
ATOM     13  S   UNL d   1     -54.762-101.217 -41.464  0.00  0.00     0.215 S 
ATOM     14  O   UNL d   1     -54.789-100.490 -41.069  0.00  0.00    -0.217 OA
ATOM     15  O   UNL d   1     -54.734-101.947 -41.866  0.00  0.00    -0.217 OA
BRANCH  13  16
ATOM     16  C   UNL d   1     -54.767-100.822 -42.191  0.00  0.00     0.088 A 
ATOM     17  C   UNL d   1     -54.820-101.252 -42.900  0.00  0.00     0.011 A 
ATOM     18  C   UNL d   1     -54.826-100.857 -43.623  0.00  0.00     0.001 A 
ATOM     19  C   UNL d   1     -54.779-100.034 -43.649  0.00  0.00     0.000 A 
ATOM     20  C   UNL d   1     -54.726 -99.605 -42.944  0.00  0.00     0.001 A 
ATOM     21  C   UNL d   1     -54.720 -99.999 -42.221  0.00  0.00     0.011 A 
BRANCH  19  22
ATOM     22  C   UNL d   1     -54.785 -99.640 -44.381  0.00  0.00     0.000 C 
ATOM     23  C   UNL d   1     -54.816 -98.825 -44.404  0.00  0.00     0.000 C 
ATOM     24  C   UNL d   1     -54.759-100.076 -45.080  0.00  0.00     0.000 C 
ENDBRANCH  19  22
ENDBRANCH  13  16
ENDBRANCH   1  13
TORSDOF 3
ENDMDL
