MODEL 1
REMARK VINA RESULT:       6.1      0.000      0.000
REMARK  4 active torsions:
REMARK  status: ('A' for Active; 'I' for Inactive)
REMARK    1  A    between atoms: C_8  and  C_1 
REMARK    2  A    between atoms: C_12  and  C_3 
REMARK    3  A    between atoms: N_10  and  C_8 
REMARK    4  A    between atoms: C_25  and  C_13 
ROOT
ATOM      1  C   UNL d   1     -41.375-122.468 -50.520  0.00  0.00     0.079 A 
ATOM      2  C   UNL d   1     -41.409-121.846 -51.805  0.00  0.00     0.062 A 
ATOM      3  C   UNL d   1     -41.586-122.641 -52.974  0.00  0.00     0.064 A 
ATOM      4  C   UNL d   1     -41.445-122.525 -51.338  0.00  0.00     0.108 A 
ATOM      5  C   UNL d   1     -41.479-121.904 -52.624  0.00  0.00     0.199 A 
ATOM      6  O   UNL d   1     -41.552-123.262 -51.690  0.00  0.00    -0.305 OA
ATOM      7  C   UNL d   1     -41.622-123.320 -52.507  0.00  0.00     0.126 A 
ATOM      8  C   UNL d   1     -41.268-121.729 -50.165  0.00  0.00     0.199 A 
ATOM      9  C   UNL d   1     -41.302-121.109 -51.454  0.00  0.00     0.008 A 
ATOM     10  C   UNL d   1     -41.231-121.050 -50.632  0.00  0.00     0.039 A 
ATOM     11  O   UNL d   1     -41.442-121.225 -53.090  0.00  0.00    -0.286 OA
ATOM     12  O   UNL d   1     -41.198-121.667 -49.355  0.00  0.00    -0.286 OA
ENDROOT
BRANCH   3  13
ATOM     13  C   UNL d   1     -41.656-122.698 -53.793  0.00  0.00     0.007 A 
ATOM     14  C   UNL d   1     -42.210-122.227 -54.202  0.00  0.00     0.027 A 
ATOM     15  C   UNL d   1     -42.280-122.285 -55.020  0.00  0.00     0.123 A 
ATOM     16  O   UNL d   1     -42.829-121.816 -55.418  0.00  0.00    -0.301 OA
ATOM     17  C   UNL d   1     -41.800-122.811 -55.436  0.00  0.00     0.123 A 
ATOM     18  C   UNL d   1     -42.902-121.872 -56.243  0.00  0.00     0.149 A 
ATOM     19  C   UNL d   1     -42.416-122.405 -56.660  0.00  0.00     0.149 A 
ATOM     20  O   UNL d   1     -41.871-122.868 -56.255  0.00  0.00    -0.301 OA
ATOM     21  C   UNL d   1     -41.249-123.281 -55.031  0.00  0.00     0.027 A 
ATOM     22  C   UNL d   1     -41.178-123.224 -54.213  0.00  0.00     0.002 A 
ENDBRANCH   3  13
BRANCH   1  23
ATOM     23  C   UNL d   1     -41.412-123.147 -50.053  0.00  0.00     0.085 C 
BRANCH  23  24
ATOM     24  N   UNL d   1     -42.042-123.257 -49.534  0.00  0.00    -0.304 N 
ATOM     25  C   UNL d   1     -41.915-123.593 -48.790  0.00  0.00     0.064 A 
ATOM     26  C   UNL d   1     -41.156-123.817 -48.567  0.00  0.00     0.019 C 
ATOM     27  C   UNL d   1     -42.545-123.699 -48.279  0.00  0.00     0.018 A 
ATOM     28  C   UNL d   1     -43.314-123.472 -48.505  0.00  0.00     0.003 A 
ATOM     29  C   UNL d   1     -43.436-123.139 -49.244  0.00  0.00     0.019 A 
ATOM     30  C   UNL d   1     -42.806-123.028 -49.764  0.00  0.00     0.080 A 
ENDBRANCH  23  24
ENDBRANCH   1  23
BRANCH  10  31
ATOM     31  C   UNL d   1     -41.123-120.308 -50.274  0.00  0.00     0.003 C 
ATOM     32  C   UNL d   1     -41.160-119.622 -50.731  0.00  0.00     0.000 C 
ENDBRANCH  10  31
TORSDOF 4
ENDMDL
