MODEL 1
REMARK VINA RESULT:      -2.4      0.000      0.000
REMARK  6 active torsions:
REMARK  status: ('A' for Active; 'I' for Inactive)
REMARK    1  A    between atoms: C_6  and  C_1 
REMARK    2  A    between atoms: N_8  and  C_5 
REMARK    3  A    between atoms: O_13  and  C_6 
REMARK       I    between atoms: C_7  and  N_8 
REMARK    4  A    between atoms: O_12  and  C_7 
REMARK    5  A    between atoms: C_16  and  O_12 
REMARK    6  A    between atoms: C_17  and  O_13 
ROOT
ATOM      1  C   UNL d   1      59.766  -0.857  29.296  0.00  0.00     0.083 A 
ATOM      2  N   UNL d   1      59.183   0.337  28.766  0.00  0.00    -0.244 NA
ATOM      3  C   UNL d   1      59.833  -0.185  28.845  0.00  0.00     0.087 A 
ATOM      4  C   UNL d   1      59.047  -1.034  29.686  0.00  0.00     0.028 A 
ATOM      5  C   UNL d   1      58.403  -0.524  29.614  0.00  0.00     0.104 A 
ATOM      6  C   UNL d   1      58.471   0.159  29.155  0.00  0.00     0.099 A 
ATOM      7  C   UNL d   1      60.546  -0.007  28.456  0.00  0.00     0.021 C 
ATOM      8  C   UNL d   1      57.815   0.682  29.078  0.00  0.00     0.022 C 
ENDROOT
BRANCH   5   9
ATOM      9  N   UNL d   1      57.684  -0.700  30.004  0.00  0.00    -0.184 NA
ATOM     10  C   UNL d   1      57.620  -0.577  30.820  0.00  0.00     0.392 C 
ATOM     11  O   UNL d   1      58.261  -0.280  31.260  0.00  0.00    -0.236 OA
BRANCH  10  12
ATOM     12  O   UNL d   1      56.907  -0.751  31.213  0.00  0.00    -0.256 OA
BRANCH  12  13
ATOM     13  C   UNL d   1      56.879  -0.792  32.034  0.00  0.00     0.128 C 
ATOM     14  C   UNL d   1      56.242  -1.143  32.414  0.00  0.00     0.029 C 
ENDBRANCH  12  13
ENDBRANCH  10  12
ENDBRANCH   5   9
BRANCH   1  15
ATOM     15  C   UNL d   1      60.404  -1.371  29.374  0.00  0.00     0.302 C 
ATOM     16  O   UNL d   1      61.077  -1.141  29.792  0.00  0.00    -0.259 OA
BRANCH  15  17
ATOM     17  O   UNL d   1      60.364  -2.117  29.029  0.00  0.00    -0.271 OA
BRANCH  17  18
ATOM     18  C   UNL d   1      60.933  -2.680  29.221  0.00  0.00     0.126 C 
ATOM     19  C   UNL d   1      60.908  -3.418  28.857  0.00  0.00     0.029 C 
ENDBRANCH  17  18
ENDBRANCH  15  17
ENDBRANCH   1  15
TORSDOF 6
ENDMDL
MODEL 2
REMARK VINA RESULT:      -2.4      1.488      1.978
REMARK  6 active torsions:
REMARK  status: ('A' for Active; 'I' for Inactive)
REMARK    1  A    between atoms: C_6  and  C_1 
REMARK    2  A    between atoms: N_8  and  C_5 
REMARK    3  A    between atoms: O_13  and  C_6 
REMARK       I    between atoms: C_7  and  N_8 
REMARK    4  A    between atoms: O_12  and  C_7 
REMARK    5  A    between atoms: C_16  and  O_12 
REMARK    6  A    between atoms: C_17  and  O_13 
ROOT
ATOM      1  C   UNL d   1      58.513  -0.351  29.956  0.00  0.00     0.083 A 
ATOM      2  N   UNL d   1      59.062   0.375  31.059  0.00  0.00    -0.244 NA
ATOM      3  C   UNL d   1      59.143   0.026  30.303  0.00  0.00     0.087 A 
ATOM      4  C   UNL d   1      57.777  -0.394  30.353  0.00  0.00     0.028 A 
ATOM      5  C   UNL d   1      57.690  -0.052  31.098  0.00  0.00     0.104 A 
ATOM      6  C   UNL d   1      58.330   0.331  31.450  0.00  0.00     0.099 A 
ATOM      7  C   UNL d   1      59.875   0.070  29.912  0.00  0.00     0.021 C 
ATOM      8  C   UNL d   1      58.246   0.682  32.211  0.00  0.00     0.022 C 
ENDROOT
BRANCH   5   9
ATOM      9  N   UNL d   1      56.954  -0.094  31.495  0.00  0.00    -0.184 NA
ATOM     10  C   UNL d   1      56.675  -0.826  31.763  0.00  0.00     0.392 C 
ATOM     11  O   UNL d   1      57.116  -1.522  31.644  0.00  0.00    -0.236 OA
BRANCH  10  12
ATOM     12  O   UNL d   1      55.944  -0.874  32.158  0.00  0.00    -0.256 OA
BRANCH  12  13
ATOM     13  C   UNL d   1      55.864  -1.321  32.844  0.00  0.00     0.128 C 
ATOM     14  C   UNL d   1      55.286  -1.140  33.396  0.00  0.00     0.029 C 
ENDBRANCH  12  13
ENDBRANCH  10  12
ENDBRANCH   5   9
BRANCH   1  15
ATOM     15  C   UNL d   1      58.591  -0.695  29.213  0.00  0.00     0.302 C 
ATOM     16  O   UNL d   1      58.374  -0.277  28.535  0.00  0.00    -0.259 OA
BRANCH  15  17
ATOM     17  O   UNL d   1      58.889  -1.460  29.153  0.00  0.00    -0.271 OA
BRANCH  17  18
ATOM     18  C   UNL d   1      58.636  -1.942  28.536  0.00  0.00     0.126 C 
ATOM     19  C   UNL d   1      58.834  -2.741  28.543  0.00  0.00     0.029 C 
ENDBRANCH  17  18
ENDBRANCH  15  17
ENDBRANCH   1  15
TORSDOF 6
ENDMDL
MODEL 3
REMARK VINA RESULT:      -1.5      1.380      3.487
REMARK  6 active torsions:
REMARK  status: ('A' for Active; 'I' for Inactive)
REMARK    1  A    between atoms: C_6  and  C_1 
REMARK    2  A    between atoms: N_8  and  C_5 
REMARK    3  A    between atoms: O_13  and  C_6 
REMARK       I    between atoms: C_7  and  N_8 
REMARK    4  A    between atoms: O_12  and  C_7 
REMARK    5  A    between atoms: C_16  and  O_12 
REMARK    6  A    between atoms: C_17  and  O_13 
ROOT
ATOM      1  C   UNL d   1      58.962  -0.455  29.772  0.00  0.00     0.083 A 
ATOM      2  N   UNL d   1      60.326  -0.317  29.366  0.00  0.00    -0.244 NA
ATOM      3  C   UNL d   1      59.658  -0.038  29.786  0.00  0.00     0.087 A 
ATOM      4  C   UNL d   1      58.906  -1.168  29.337  0.00  0.00     0.028 A 
ATOM      5  C   UNL d   1      59.560  -1.449  28.920  0.00  0.00     0.104 A 
ATOM      6  C   UNL d   1      60.267  -1.025  28.935  0.00  0.00     0.099 A 
ATOM      7  C   UNL d   1      59.717   0.670  30.217  0.00  0.00     0.021 C 
ATOM      8  C   UNL d   1      60.938  -1.309  28.511  0.00  0.00     0.022 C 
ENDROOT
BRANCH   5   9
ATOM      9  N   UNL d   1      59.504  -2.162  28.485  0.00  0.00    -0.184 NA
ATOM     10  C   UNL d   1      59.399  -2.879  28.886  0.00  0.00     0.392 C 
ATOM     11  O   UNL d   1      59.347  -2.902  29.716  0.00  0.00    -0.236 OA
BRANCH  10  12
ATOM     12  O   UNL d   1      59.343  -3.591  28.457  0.00  0.00    -0.256 OA
BRANCH  12  13
ATOM     13  C   UNL d   1      59.032  -4.268  28.806  0.00  0.00     0.128 C 
ATOM     14  C   UNL d   1      59.173  -5.008  28.481  0.00  0.00     0.029 C 
ENDBRANCH  12  13
ENDBRANCH  10  12
ENDBRANCH   5   9
BRANCH   1  15
ATOM     15  C   UNL d   1      58.304  -0.182  30.185  0.00  0.00     0.302 C 
ATOM     16  O   UNL d   1      57.905   0.494  29.932  0.00  0.00    -0.259 OA
BRANCH  15  17
ATOM     17  O   UNL d   1      58.050  -0.591  30.852  0.00  0.00    -0.271 OA
BRANCH  17  18
ATOM     18  C   UNL d   1      57.349  -0.365  31.219  0.00  0.00     0.126 C 
ATOM     19  C   UNL d   1      57.060  -0.813  31.846  0.00  0.00     0.029 C 
ENDBRANCH  17  18
ENDBRANCH  15  17
ENDBRANCH   1  15
TORSDOF 6
ENDMDL
MODEL 4
REMARK VINA RESULT:      -1.2      8.512      9.533
REMARK  6 active torsions:
REMARK  status: ('A' for Active; 'I' for Inactive)
REMARK    1  A    between atoms: C_6  and  C_1 
REMARK    2  A    between atoms: N_8  and  C_5 
REMARK    3  A    between atoms: O_13  and  C_6 
REMARK       I    between atoms: C_7  and  N_8 
REMARK    4  A    between atoms: O_12  and  C_7 
REMARK    5  A    between atoms: C_16  and  O_12 
REMARK    6  A    between atoms: C_17  and  O_13 
ROOT
ATOM      1  C   UNL d   1      59.838  -8.540  34.886  0.00  0.00     0.083 A 
ATOM      2  N   UNL d   1      60.993  -8.968  34.158  0.00  0.00    -0.244 NA
ATOM      3  C   UNL d   1      60.644  -8.542  34.789  0.00  0.00     0.087 A 
ATOM      4  C   UNL d   1      59.348  -8.965  34.356  0.00  0.00     0.028 A 
ATOM      5  C   UNL d   1      59.684  -9.387  33.733  0.00  0.00     0.104 A 
ATOM      6  C   UNL d   1      60.503  -9.388  33.634  0.00  0.00     0.099 A 
ATOM      7  C   UNL d   1      61.133  -8.121  35.313  0.00  0.00     0.021 C 
ATOM      8  C   UNL d   1      60.851  -9.818  32.998  0.00  0.00     0.022 C 
ENDROOT
BRANCH   5   9
ATOM      9  N   UNL d   1      59.195  -9.811  33.203  0.00  0.00    -0.184 NA
ATOM     10  C   UNL d   1      58.688  -9.399  32.695  0.00  0.00     0.392 C 
ATOM     11  O   UNL d   1      58.657  -8.568  32.702  0.00  0.00    -0.236 OA
BRANCH  10  12
ATOM     12  O   UNL d   1      58.199  -9.817  32.166  0.00  0.00    -0.256 OA
BRANCH  12  13
ATOM     13  C   UNL d   1      57.631  -9.424  31.718  0.00  0.00     0.128 C 
ATOM     14  C   UNL d   1      57.224  -9.814  31.123  0.00  0.00     0.029 C 
ENDBRANCH  12  13
ENDBRANCH  10  12
ENDBRANCH   5   9
BRANCH   1  15
ATOM     15  C   UNL d   1      59.495  -8.122  35.506  0.00  0.00     0.302 C 
ATOM     16  O   UNL d   1      59.128  -8.522  36.127  0.00  0.00    -0.259 OA
BRANCH  15  17
ATOM     17  O   UNL d   1      59.521  -7.299  35.499  0.00  0.00    -0.271 OA
BRANCH  17  18
ATOM     18  C   UNL d   1      58.992  -6.876  35.966  0.00  0.00     0.126 C 
ATOM     19  C   UNL d   1      59.009  -6.053  35.949  0.00  0.00     0.029 C 
ENDBRANCH  17  18
ENDBRANCH  15  17
ENDBRANCH   1  15
TORSDOF 6
ENDMDL
MODEL 5
REMARK VINA RESULT:      -1.0      2.258      5.474
REMARK  6 active torsions:
REMARK  status: ('A' for Active; 'I' for Inactive)
REMARK    1  A    between atoms: C_6  and  C_1 
REMARK    2  A    between atoms: N_8  and  C_5 
REMARK    3  A    between atoms: O_13  and  C_6 
REMARK       I    between atoms: C_7  and  N_8 
REMARK    4  A    between atoms: O_12  and  C_7 
REMARK    5  A    between atoms: C_16  and  O_12 
REMARK    6  A    between atoms: C_17  and  O_13 
ROOT
ATOM      1  C   UNL d   1      56.096   0.193  33.390  0.00  0.00     0.083 A 
ATOM      2  N   UNL d   1      57.449   0.573  33.658  0.00  0.00    -0.244 NA
ATOM      3  C   UNL d   1      56.672   0.407  33.922  0.00  0.00     0.087 A 
ATOM      4  C   UNL d   1      56.275   0.137  32.574  0.00  0.00     0.028 A 
ATOM      5  C   UNL d   1      57.039   0.298  32.308  0.00  0.00     0.104 A 
ATOM      6  C   UNL d   1      57.623   0.516  32.848  0.00  0.00     0.099 A 
ATOM      7  C   UNL d   1      56.497   0.464  34.732  0.00  0.00     0.021 C 
ATOM      8  C   UNL d   1      58.404   0.682  32.580  0.00  0.00     0.022 C 
ENDROOT
BRANCH   5   9
ATOM      9  N   UNL d   1      57.218   0.242  31.492  0.00  0.00    -0.184 NA
ATOM     10  C   UNL d   1      57.240  -0.501  31.128  0.00  0.00     0.392 C 
ATOM     11  O   UNL d   1      57.086  -1.195  31.562  0.00  0.00    -0.236 OA
BRANCH  10  12
ATOM     12  O   UNL d   1      57.417  -0.563  30.317  0.00  0.00    -0.256 OA
BRANCH  12  13
ATOM     13  C   UNL d   1      58.163  -0.804  30.067  0.00  0.00     0.128 C 
ATOM     14  C   UNL d   1      58.363  -0.785  29.272  0.00  0.00     0.029 C 
ENDBRANCH  12  13
ENDBRANCH  10  12
ENDBRANCH   5   9
BRANCH   1  15
ATOM     15  C   UNL d   1      55.332   0.030  33.648  0.00  0.00     0.302 C 
ATOM     16  O   UNL d   1      55.106  -0.744  33.821  0.00  0.00    -0.259 OA
BRANCH  15  17
ATOM     17  O   UNL d   1      54.795   0.648  33.731  0.00  0.00    -0.271 OA
BRANCH  17  18
ATOM     18  C   UNL d   1      53.991   0.498  33.636  0.00  0.00     0.126 C 
ATOM     19  C   UNL d   1      53.473   0.682  34.248  0.00  0.00     0.029 C 
ENDBRANCH  17  18
ENDBRANCH  15  17
ENDBRANCH   1  15
TORSDOF 6
ENDMDL
MODEL 6
REMARK VINA RESULT:      -0.1      2.125      3.150
REMARK  6 active torsions:
REMARK  status: ('A' for Active; 'I' for Inactive)
REMARK    1  A    between atoms: C_6  and  C_1 
REMARK    2  A    between atoms: N_8  and  C_5 
REMARK    3  A    between atoms: O_13  and  C_6 
REMARK       I    between atoms: C_7  and  N_8 
REMARK    4  A    between atoms: O_12  and  C_7 
REMARK    5  A    between atoms: C_16  and  O_12 
REMARK    6  A    between atoms: C_17  and  O_13 
ROOT
ATOM      1  C   UNL d   1      57.712  -0.108  30.665  0.00  0.00     0.083 A 
ATOM      2  N   UNL d   1      57.132  -1.384  30.948  0.00  0.00    -0.244 NA
ATOM      3  C   UNL d   1      57.645  -0.900  30.498  0.00  0.00     0.087 A 
ATOM      4  C   UNL d   1      57.268   0.231  31.288  0.00  0.00     0.028 A 
ATOM      5  C   UNL d   1      56.760  -0.240  31.736  0.00  0.00     0.104 A 
ATOM      6  C   UNL d   1      56.692  -1.045  31.567  0.00  0.00     0.099 A 
ATOM      7  C   UNL d   1      58.084  -1.240  29.880  0.00  0.00     0.021 C 
ATOM      8  C   UNL d   1      56.175  -1.529  32.022  0.00  0.00     0.022 C 
ENDROOT
BRANCH   5   9
ATOM      9  N   UNL d   1      56.316   0.099  32.360  0.00  0.00    -0.184 NA
ATOM     10  C   UNL d   1      56.702   0.343  33.050  0.00  0.00     0.392 C 
ATOM     11  O   UNL d   1      57.525   0.257  33.135  0.00  0.00    -0.236 OA
BRANCH  10  12
ATOM     12  O   UNL d   1      56.265   0.681  33.674  0.00  0.00    -0.256 OA
BRANCH  12  13
ATOM     13  C   UNL d   1      56.029   0.226  34.317  0.00  0.00     0.128 C 
ATOM     14  C   UNL d   1      55.689   0.577  34.975  0.00  0.00     0.029 C 
ENDBRANCH  12  13
ENDBRANCH  10  12
ENDBRANCH   5   9
BRANCH   1  15
ATOM     15  C   UNL d   1      58.216   0.369  30.222  0.00  0.00     0.302 C 
ATOM     16  O   UNL d   1      58.043   0.540  29.434  0.00  0.00    -0.259 OA
BRANCH  15  17
ATOM     17  O   UNL d   1      58.894   0.673  30.575  0.00  0.00    -0.271 OA
BRANCH  17  18
ATOM     18  C   UNL d   1      59.622   0.566  30.206  0.00  0.00     0.126 C 
ATOM     19  C   UNL d   1      60.313   0.681  30.638  0.00  0.00     0.029 C 
ENDBRANCH  17  18
ENDBRANCH  15  17
ENDBRANCH   1  15
TORSDOF 6
ENDMDL
