MODEL 1
REMARK VINA RESULT:      -4.2      0.000      0.000
REMARK  6 active torsions:
REMARK  status: ('A' for Active; 'I' for Inactive)
REMARK    1  A    between atoms: S_11  and  C_2 
REMARK    2  A    between atoms: C_5  and  N_8 
REMARK       I    between atoms: N_8  and  C_13 
REMARK    3  A    between atoms: C_17  and  C_10 
REMARK    4  A    between atoms: C_16  and  S_11 
REMARK    5  A    between atoms: C_13  and  C_16 
REMARK    6  A    between atoms: C_18  and  C_17 
ROOT
ATOM      1  C   UNL d   1      58.073   0.231  30.129  0.00  0.00     0.197 A 
ATOM      2  N   UNL d   1      58.802   0.621  30.141  0.00  0.00    -0.219 NA
ATOM      3  S   UNL d   1      58.117  -0.350  29.541  0.00  0.00    -0.047 SA
ATOM      4  C   UNL d   1      58.858  -0.318  29.197  0.00  0.00     0.051 A 
ATOM      5  C   UNL d   1      59.282   0.284  29.570  0.00  0.00     0.108 A 
ENDROOT
BRANCH   1   6
ATOM      6  N   UNL d   1      57.425   0.389  30.609  0.00  0.00    -0.182 NA
ATOM      7  C   UNL d   1      57.510   0.395  31.430  0.00  0.00     0.288 C 
ATOM      8  O   UNL d   1      58.252   0.241  31.769  0.00  0.00    -0.265 OA
BRANCH   7   9
ATOM      9  C   UNL d   1      56.866   0.552  31.919  0.00  0.00     0.101 C 
BRANCH   9  10
ATOM     10  S   UNL d   1      56.937   0.489  32.730  0.00  0.00    -0.041 SA
BRANCH  10  11
ATOM     11  C   UNL d   1      56.262   0.517  33.211  0.00  0.00     0.219 A 
ATOM     12  N   UNL d   1      56.257   0.606  34.029  0.00  0.00    -0.167 N 
ATOM     13  C   UNL d   1      55.478   0.606  34.278  0.00  0.00     0.189 A 
ATOM     14  N   UNL d   1      56.923   0.682  34.511  0.00  0.00    -0.038 N 
ATOM     15  N   UNL d   1      54.994   0.516  33.611  0.00  0.00    -0.126 NA
ATOM     16  C   UNL d   1      55.212   0.681  35.059  0.00  0.00     0.044 C 
ATOM     17  N   UNL d   1      55.483   0.462  32.956  0.00  0.00    -0.120 NA
ENDBRANCH  10  11
ENDBRANCH   9  10
ENDBRANCH   7   9
ENDBRANCH   1   6
BRANCH   4  18
ATOM     18  C   UNL d   1      59.131  -0.803  28.587  0.00  0.00     0.008 C 
BRANCH  18  19
ATOM     19  C   UNL d   1      59.403  -1.560  28.760  0.00  0.00     0.001 A 
ATOM     20  C   UNL d   1      60.201  -1.683  28.936  0.00  0.00     0.002 A 
ATOM     21  C   UNL d   1      60.473  -2.439  29.109  0.00  0.00     0.030 A 
ATOM     22  C   UNL d   1      59.947  -3.080  29.106  0.00  0.00     0.140 A 
ATOM     23  C   UNL d   1      59.153  -2.961  28.930  0.00  0.00     0.030 A 
ATOM     24  F   UNL d   1      60.222  -3.834  29.278  0.00  0.00    -0.204 F 
ATOM     25  C   UNL d   1      58.877  -2.201  28.757  0.00  0.00     0.002 A 
ENDBRANCH  18  19
ENDBRANCH   4  18
TORSDOF 6
ENDMDL
MODEL 2
REMARK VINA RESULT:      -3.4      2.592      5.783
REMARK  6 active torsions:
REMARK  status: ('A' for Active; 'I' for Inactive)
REMARK    1  A    between atoms: S_11  and  C_2 
REMARK    2  A    between atoms: C_5  and  N_8 
REMARK       I    between atoms: N_8  and  C_13 
REMARK    3  A    between atoms: C_17  and  C_10 
REMARK    4  A    between atoms: C_16  and  S_11 
REMARK    5  A    between atoms: C_13  and  C_16 
REMARK    6  A    between atoms: C_18  and  C_17 
ROOT
ATOM      1  C   UNL d   1      57.900  -0.370  30.268  0.00  0.00     0.197 A 
ATOM      2  N   UNL d   1      57.499   0.324  30.068  0.00  0.00    -0.219 NA
ATOM      3  S   UNL d   1      57.882  -0.432  31.094  0.00  0.00    -0.047 SA
ATOM      4  C   UNL d   1      57.478   0.211  31.396  0.00  0.00     0.051 A 
ATOM      5  C   UNL d   1      57.241   0.680  30.759  0.00  0.00     0.108 A 
ENDROOT
BRANCH   1   6
ATOM      6  N   UNL d   1      58.252  -0.901  29.748  0.00  0.00    -0.182 NA
ATOM      7  C   UNL d   1      58.980  -0.723  29.405  0.00  0.00     0.288 C 
ATOM      8  O   UNL d   1      59.358  -0.007  29.586  0.00  0.00    -0.265 OA
BRANCH   7   9
ATOM      9  C   UNL d   1      59.339  -1.249  28.882  0.00  0.00     0.101 C 
BRANCH   9  10
ATOM     10  S   UNL d   1      59.264  -2.055  28.992  0.00  0.00    -0.041 SA
BRANCH  10  11
ATOM     11  C   UNL d   1      59.891  -2.562  28.799  0.00  0.00     0.219 A 
ATOM     12  N   UNL d   1      59.853  -3.383  28.766  0.00  0.00    -0.167 N 
ATOM     13  C   UNL d   1      60.593  -3.662  28.555  0.00  0.00     0.189 A 
ATOM     14  N   UNL d   1      59.185  -3.844  28.919  0.00  0.00    -0.038 N 
ATOM     15  N   UNL d   1      61.095  -3.010  28.455  0.00  0.00    -0.126 NA
ATOM     16  C   UNL d   1      60.810  -4.455  28.456  0.00  0.00     0.044 C 
ATOM     17  N   UNL d   1      60.657  -2.334  28.607  0.00  0.00    -0.120 NA
ENDBRANCH  10  11
ENDBRANCH   9  10
ENDBRANCH   7   9
ENDBRANCH   1   6
BRANCH   4  18
ATOM     18  C   UNL d   1      57.335   0.363  32.194  0.00  0.00     0.008 C 
BRANCH  18  19
ATOM     19  C   UNL d   1      56.627   0.116  32.534  0.00  0.00     0.001 A 
ATOM     20  C   UNL d   1      56.494  -0.687  32.677  0.00  0.00     0.002 A 
ATOM     21  C   UNL d   1      55.787  -0.933  33.017  0.00  0.00     0.030 A 
ATOM     22  C   UNL d   1      55.206  -0.376  33.217  0.00  0.00     0.140 A 
ATOM     23  C   UNL d   1      55.336   0.423  33.075  0.00  0.00     0.030 A 
ATOM     24  F   UNL d   1      54.502  -0.625  33.556  0.00  0.00    -0.204 F 
ATOM     25  C   UNL d   1      56.047   0.673  32.733  0.00  0.00     0.002 A 
ENDBRANCH  18  19
ENDBRANCH   4  18
TORSDOF 6
ENDMDL
MODEL 3
REMARK VINA RESULT:      -2.2      2.483      6.007
REMARK  6 active torsions:
REMARK  status: ('A' for Active; 'I' for Inactive)
REMARK    1  A    between atoms: S_11  and  C_2 
REMARK    2  A    between atoms: C_5  and  N_8 
REMARK       I    between atoms: N_8  and  C_13 
REMARK    3  A    between atoms: C_17  and  C_10 
REMARK    4  A    between atoms: C_16  and  S_11 
REMARK    5  A    between atoms: C_13  and  C_16 
REMARK    6  A    between atoms: C_18  and  C_17 
ROOT
ATOM      1  C   UNL d   1      57.116  -0.765  31.186  0.00  0.00     0.197 A 
ATOM      2  N   UNL d   1      56.837  -1.243  31.800  0.00  0.00    -0.219 NA
ATOM      3  S   UNL d   1      56.911   0.015  31.373  0.00  0.00    -0.047 SA
ATOM      4  C   UNL d   1      56.514   0.018  32.088  0.00  0.00     0.051 A 
ATOM      5  C   UNL d   1      56.469  -0.763  32.352  0.00  0.00     0.108 A 
ENDROOT
BRANCH   1   6
ATOM      6  N   UNL d   1      57.520  -1.015  30.516  0.00  0.00    -0.182 NA
ATOM      7  C   UNL d   1      58.198  -0.615  30.269  0.00  0.00     0.288 C 
ATOM      8  O   UNL d   1      58.471   0.041  30.699  0.00  0.00    -0.265 OA
BRANCH   7   9
ATOM      9  C   UNL d   1      58.609  -0.859  29.598  0.00  0.00     0.101 C 
BRANCH   9  10
ATOM     10  S   UNL d   1      58.834  -1.640  29.512  0.00  0.00    -0.041 SA
BRANCH  10  11
ATOM     11  C   UNL d   1      59.550  -1.828  29.139  0.00  0.00     0.219 A 
ATOM     12  N   UNL d   1      59.868  -2.583  29.060  0.00  0.00    -0.167 N 
ATOM     13  C   UNL d   1      60.577  -2.518  28.657  0.00  0.00     0.189 A 
ATOM     14  N   UNL d   1      59.528  -3.282  29.340  0.00  0.00    -0.038 N 
ATOM     15  N   UNL d   1      60.702  -1.717  28.484  0.00  0.00    -0.126 NA
ATOM     16  C   UNL d   1      61.086  -3.140  28.455  0.00  0.00     0.044 C 
ATOM     17  N   UNL d   1      60.066  -1.296  28.783  0.00  0.00    -0.120 NA
ENDBRANCH  10  11
ENDBRANCH   9  10
ENDBRANCH   7   9
ENDBRANCH   1   6
BRANCH   4  18
ATOM     18  C   UNL d   1      56.214   0.682  32.474  0.00  0.00     0.008 C 
BRANCH  18  19
ATOM     19  C   UNL d   1      55.927   0.612  33.242  0.00  0.00     0.001 A 
ATOM     20  C   UNL d   1      55.117   0.517  33.374  0.00  0.00     0.002 A 
ATOM     21  C   UNL d   1      54.830   0.447  34.142  0.00  0.00     0.030 A 
ATOM     22  C   UNL d   1      55.353   0.471  34.784  0.00  0.00     0.140 A 
ATOM     23  C   UNL d   1      56.160   0.566  34.655  0.00  0.00     0.030 A 
ATOM     24  F   UNL d   1      55.064   0.401  35.549  0.00  0.00    -0.204 F 
ATOM     25  C   UNL d   1      56.451   0.637  33.884  0.00  0.00     0.002 A 
ENDBRANCH  18  19
ENDBRANCH   4  18
TORSDOF 6
ENDMDL
