MODEL 1
REMARK VINA RESULT:      -2.5      0.000      0.000
REMARK  2 active torsions:
REMARK  status: ('A' for Active; 'I' for Inactive)
REMARK    1  A    between atoms: N_10  and  C_3 
REMARK    2  A    between atoms: C_11  and  C_5 
ROOT
ATOM      1  N   UNL d   1      30.767  17.784 -24.304  0.00  0.00    -0.196 N 
ATOM      2  C   UNL d   1      30.220  17.170 -24.193  0.00  0.00     0.167 A 
ATOM      3  C   UNL d   1      31.555  17.657 -24.110  0.00  0.00     0.152 A 
ATOM      4  N   UNL d   1      29.734  18.610 -24.791  0.00  0.00    -0.163 NA
ATOM      5  C   UNL d   1      29.440  17.275 -24.379  0.00  0.00     0.055 A 
ATOM      6  N   UNL d   1      30.473  16.443 -23.890  0.00  0.00    -0.227 NA
ATOM      7  C   UNL d   1      31.807  16.941 -23.811  0.00  0.00     0.052 A 
ATOM      8  C   UNL d   1      29.190  17.999 -24.680  0.00  0.00     0.104 A 
ATOM      9  C   UNL d   1      31.263  16.330 -23.700  0.00  0.00     0.086 A 
ATOM     10  C   UNL d   1      32.606  16.834 -23.621  0.00  0.00     0.004 A 
ATOM     11  C   UNL d   1      28.415  18.116 -24.869  0.00  0.00     0.023 C 
ATOM     12  C   UNL d   1      31.513  15.606 -23.399  0.00  0.00     0.019 A 
ATOM     13  C   UNL d   1      32.856  16.097 -23.315  0.00  0.00     0.000 A 
ATOM     14  C   UNL d   1      32.312  15.486 -23.204  0.00  0.00     0.002 A 
ENDROOT
BRANCH   3  15
ATOM     15  N   UNL d   1      32.113  18.279 -24.221  0.00  0.00    -0.285 N 
ATOM     16  C   UNL d   1      32.343  18.771 -23.568  0.00  0.00     0.108 A 
ATOM     17  C   UNL d   1      32.898  19.388 -23.683  0.00  0.00     0.142 A 
ATOM     18  O   UNL d   1      33.238  19.528 -24.453  0.00  0.00    -0.300 OA
ATOM     19  C   UNL d   1      33.002  19.032 -25.096  0.00  0.00     0.142 A 
ATOM     20  C   UNL d   1      32.447  18.415 -24.981  0.00  0.00     0.108 A 
ENDBRANCH   3  15
BRANCH   5  21
ATOM     21  C   UNL d   1      28.896  16.664 -24.269  0.00  0.00     0.004 A 
ATOM     22  C   UNL d   1      28.743  16.149 -24.880  0.00  0.00     0.000 A 
ATOM     23  C   UNL d   1      28.200  15.538 -24.770  0.00  0.00     0.000 A 
ATOM     24  C   UNL d   1      27.817  15.453 -24.050  0.00  0.00     0.000 A 
ATOM     25  C   UNL d   1      27.977  15.977 -23.440  0.00  0.00     0.000 A 
ATOM     26  C   UNL d   1      28.521  16.587 -23.550  0.00  0.00     0.000 A 
ENDBRANCH   5  21
TORSDOF 2
ENDMDL
