MODEL 1
REMARK VINA RESULT:      70.0      0.000      0.000
REMARK  8 active torsions:
REMARK  status: ('A' for Active; 'I' for Inactive)
REMARK    1  A    between atoms: C_7  and  C_2 
REMARK    2  A    between atoms: C_12  and  N_3 
REMARK    3  A    between atoms: O_9  and  C_6 
REMARK    4  A    between atoms: O_22  and  C_7 
REMARK    5  A    between atoms: C_8  and  N_11 
REMARK    6  A    between atoms: C_20  and  O_9 
REMARK    7  A    between atoms: C_10  and  C_20 
REMARK       I    between atoms: N_11  and  C_10 
REMARK    8  A    between atoms: C_27  and  O_22 
ROOT
ATOM      1  N   UNL d   1     -47.671  30.827  34.777  0.00  0.00    -0.155 NA
ATOM      2  C   UNL d   1     -47.836  30.048  34.975  0.00  0.00     0.187 A 
ATOM      3  N   UNL d   1     -48.146  31.217  34.224  0.00  0.00    -0.194 N 
ATOM      4  C   UNL d   1     -48.781  30.823  33.874  0.00  0.00     0.282 A 
ATOM      5  C   UNL d   1     -48.941  30.039  34.078  0.00  0.00     0.089 A 
ATOM      6  C   UNL d   1     -48.471  29.654  34.626  0.00  0.00     0.130 A 
ATOM      7  O   UNL d   1     -49.256  31.212  33.321  0.00  0.00    -0.265 OA
ENDROOT
BRANCH   6   8
ATOM      8  O   UNL d   1     -48.631  28.870  34.829  0.00  0.00    -0.298 OA
BRANCH   8   9
ATOM      9  C   UNL d   1     -48.597  28.279  34.261  0.00  0.00     0.185 C 
BRANCH   9  10
ATOM     10  C   UNL d   1     -49.213  27.729  34.207  0.00  0.00     0.304 C 
ATOM     11  N   UNL d   1     -49.474  27.478  33.468  0.00  0.00    -0.206 NA
ATOM     12  O   UNL d   1     -49.562  27.437  34.893  0.00  0.00    -0.263 OA
BRANCH  11  13
ATOM     13  C   UNL d   1     -50.090  26.929  33.415  0.00  0.00     0.085 A 
ATOM     14  C   UNL d   1     -50.864  27.178  33.387  0.00  0.00     0.019 A 
ATOM     15  C   UNL d   1     -51.482  26.645  33.334  0.00  0.00     0.002 A 
ATOM     16  C   UNL d   1     -52.250  26.905  33.307  0.00  0.00     0.000 C 
ATOM     17  C   UNL d   1     -51.309  25.830  33.307  0.00  0.00     0.000 A 
ATOM     18  C   UNL d   1     -50.532  25.579  33.335  0.00  0.00     0.002 A 
ATOM     19  C   UNL d   1     -49.922  26.122  33.388  0.00  0.00     0.019 A 
ATOM     20  C   UNL d   1     -50.365  24.771  33.309  0.00  0.00     0.000 C 
ENDBRANCH  11  13
ENDBRANCH   9  10
ENDBRANCH   8   9
ENDBRANCH   6   8
BRANCH   2  21
ATOM     21  C   UNL d   1     -47.366  29.662  35.523  0.00  0.00     0.322 C 
ATOM     22  O   UNL d   1     -46.835  29.081  35.276  0.00  0.00    -0.257 OA
BRANCH  21  23
ATOM     23  O   UNL d   1     -47.417  29.850  36.329  0.00  0.00    -0.270 OA
BRANCH  23  24
ATOM     24  C   UNL d   1     -46.903  29.510  36.869  0.00  0.00     0.126 C 
ATOM     25  C   UNL d   1     -46.727  29.901  37.574  0.00  0.00     0.029 C 
ENDBRANCH  23  24
ENDBRANCH  21  23
ENDBRANCH   2  21
BRANCH   3  26
ATOM     26  C   UNL d   1     -47.984  31.998  34.023  0.00  0.00     0.086 A 
ATOM     27  C   UNL d   1     -47.303  32.356  34.301  0.00  0.00     0.019 A 
ATOM     28  C   UNL d   1     -47.137  33.140  34.102  0.00  0.00     0.002 A 
ATOM     29  C   UNL d   1     -47.661  33.567  33.618  0.00  0.00     0.000 A 
ATOM     30  C   UNL d   1     -48.346  33.199  33.340  0.00  0.00     0.002 A 
ATOM     31  C   UNL d   1     -48.508  32.426  33.538  0.00  0.00     0.019 A 
ENDBRANCH   3  26
TORSDOF 8
ENDMDL
MODEL 2
REMARK VINA RESULT:      71.6      2.257      6.344
REMARK  8 active torsions:
REMARK  status: ('A' for Active; 'I' for Inactive)
REMARK    1  A    between atoms: C_7  and  C_2 
REMARK    2  A    between atoms: C_12  and  N_3 
REMARK    3  A    between atoms: O_9  and  C_6 
REMARK    4  A    between atoms: O_22  and  C_7 
REMARK    5  A    between atoms: C_8  and  N_11 
REMARK    6  A    between atoms: C_20  and  O_9 
REMARK    7  A    between atoms: C_10  and  C_20 
REMARK       I    between atoms: N_11  and  C_10 
REMARK    8  A    between atoms: C_27  and  O_22 
ROOT
ATOM      1  N   UNL d   1     -50.942  25.183  33.448  0.00  0.00    -0.155 NA
ATOM      2  C   UNL d   1     -50.405  25.804  33.473  0.00  0.00     0.187 A 
ATOM      3  N   UNL d   1     -51.751  25.346  33.393  0.00  0.00    -0.194 N 
ATOM      4  C   UNL d   1     -52.014  26.127  33.363  0.00  0.00     0.282 A 
ATOM      5  C   UNL d   1     -51.470  26.746  33.389  0.00  0.00     0.089 A 
ATOM      6  C   UNL d   1     -50.668  26.585  33.444  0.00  0.00     0.130 A 
ATOM      7  O   UNL d   1     -52.823  26.289  33.308  0.00  0.00    -0.265 OA
ENDROOT
BRANCH   6   8
ATOM      8  O   UNL d   1     -50.124  27.204  33.470  0.00  0.00    -0.298 OA
BRANCH   8   9
ATOM      9  C   UNL d   1     -50.089  27.699  34.123  0.00  0.00     0.185 C 
BRANCH   9  10
ATOM     10  C   UNL d   1     -49.411  28.156  34.253  0.00  0.00     0.304 C 
ATOM     11  N   UNL d   1     -49.079  28.189  35.005  0.00  0.00    -0.206 NA
ATOM     12  O   UNL d   1     -49.074  28.574  33.630  0.00  0.00    -0.263 OA
BRANCH  11  13
ATOM     13  C   UNL d   1     -48.402  28.645  35.135  0.00  0.00     0.085 A 
ATOM     14  C   UNL d   1     -47.781  28.623  34.610  0.00  0.00     0.019 A 
ATOM     15  C   UNL d   1     -47.106  29.069  34.727  0.00  0.00     0.002 A 
ATOM     16  C   UNL d   1     -46.493  29.039  34.197  0.00  0.00     0.000 C 
ATOM     17  C   UNL d   1     -47.058  29.556  35.402  0.00  0.00     0.000 A 
ATOM     18  C   UNL d   1     -47.681  29.580  35.931  0.00  0.00     0.002 A 
ATOM     19  C   UNL d   1     -48.351  29.128  35.802  0.00  0.00     0.019 A 
ATOM     20  C   UNL d   1     -47.629  30.063  36.598  0.00  0.00     0.000 C 
ENDBRANCH  11  13
ENDBRANCH   9  10
ENDBRANCH   8   9
ENDBRANCH   6   8
BRANCH   2  21
ATOM     21  C   UNL d   1     -49.605  25.643  33.528  0.00  0.00     0.322 C 
ATOM     22  O   UNL d   1     -49.052  26.218  33.315  0.00  0.00    -0.257 OA
BRANCH  21  23
ATOM     23  O   UNL d   1     -49.340  24.905  33.796  0.00  0.00    -0.270 OA
BRANCH  23  24
ATOM     24  C   UNL d   1     -48.905  24.414  33.306  0.00  0.00     0.126 C 
ATOM     25  C   UNL d   1     -48.340  23.905  33.626  0.00  0.00     0.029 C 
ENDBRANCH  23  24
ENDBRANCH  21  23
ENDBRANCH   2  21
BRANCH   3  26
ATOM     26  C   UNL d   1     -52.292  24.726  33.367  0.00  0.00     0.086 A 
ATOM     27  C   UNL d   1     -53.094  24.886  33.375  0.00  0.00     0.019 A 
ATOM     28  C   UNL d   1     -53.640  24.267  33.349  0.00  0.00     0.002 A 
ATOM     29  C   UNL d   1     -53.375  23.479  33.316  0.00  0.00     0.000 A 
ATOM     30  C   UNL d   1     -52.563  23.325  33.309  0.00  0.00     0.002 A 
ATOM     31  C   UNL d   1     -52.027  23.938  33.335  0.00  0.00     0.019 A 
ENDBRANCH   3  26
TORSDOF 8
ENDMDL
