MODEL 1
REMARK VINA RESULT:      31.5      0.000      0.000
REMARK  3 active torsions:
REMARK  status: ('A' for Active; 'I' for Inactive)
REMARK    1  A    between atoms: C_3  and  C_1 
REMARK    2  A    between atoms: C_5  and  C_3 
REMARK    3  A    between atoms: C_10  and  C_5 
ROOT
ATOM      1  C   UNL d   1     -55.677 -99.267 -44.583  0.00  0.00     0.109 C 
ATOM      2  C   UNL d   1     -55.284 -99.012 -45.262  0.00  0.00     0.105 C 
ATOM      3  N   UNL d   1     -54.899 -98.756 -45.942  0.00  0.00    -0.191 NA
ENDROOT
BRANCH   1   4
ATOM      4  C   UNL d   1     -56.494 -99.167 -44.521  0.00  0.00     0.192 A 
ATOM      5  N   UNL d   1     -56.911 -98.971 -43.826  0.00  0.00    -0.220 NA
ATOM      6  C   UNL d   1     -57.710 -98.929 -44.016  0.00  0.00     0.106 A 
ATOM      7  C   UNL d   1     -58.378 -98.757 -43.553  0.00  0.00     0.021 A 
ATOM      8  C   UNL d   1     -57.795 -99.097 -44.819  0.00  0.00     0.119 A 
ATOM      9  C   UNL d   1     -59.129 -98.755 -43.902  0.00  0.00     0.002 A 
ATOM     10  C   UNL d   1     -59.218 -98.922 -44.705  0.00  0.00     0.002 A 
ATOM     11  C   UNL d   1     -58.558 -99.093 -45.167  0.00  0.00     0.026 A 
ATOM     12  O   UNL d   1     -57.044 -99.244 -45.129  0.00  0.00    -0.287 OA
ENDBRANCH   1   4
BRANCH   1  13
ATOM     13  C   UNL d   1     -55.258 -99.617 -43.973  0.00  0.00     0.014 C 
BRANCH  13  14
ATOM     14  C   UNL d   1     -55.076-100.421 -44.009  0.00  0.00     0.004 A 
ATOM     15  C   UNL d   1     -55.038-100.863 -43.316  0.00  0.00     0.042 A 
ATOM     16  C   UNL d   1     -54.856-101.667 -43.356  0.00  0.00     0.196 A 
ATOM     17  O   UNL d   1     -54.816-102.117 -42.662  0.00  0.00    -0.287 OA
ATOM     18  C   UNL d   1     -54.711-102.029 -44.081  0.00  0.00     0.042 A 
ATOM     19  C   UNL d   1     -54.752-101.574 -44.778  0.00  0.00     0.003 A 
ATOM     20  C   UNL d   1     -54.934-100.770 -44.742  0.00  0.00     0.000 A 
ENDBRANCH  13  14
ENDBRANCH   1  13
TORSDOF 3
ENDMDL
