MODEL 1
REMARK VINA RESULT:      65.9      0.000      0.000
REMARK  9 active torsions:
REMARK  status: ('A' for Active; 'I' for Inactive)
REMARK    1  A    between atoms: N_2  and  C_1 
REMARK       I    between atoms: C_4  and  N_2 
REMARK    2  A    between atoms: C_7  and  C_4 
REMARK    3  A    between atoms: C_8  and  C_5 
REMARK    4  A    between atoms: C_10  and  C_8 
REMARK       I    between atoms: N_12  and  C_10 
REMARK    5  A    between atoms: C_11  and  C_19 
REMARK    6  A    between atoms: C_19  and  N_12 
REMARK    7  A    between atoms: O_23  and  C_17 
REMARK    8  A    between atoms: O_24  and  C_18 
REMARK    9  A    between atoms: O_22  and  C_20 
ROOT
ATOM      1  C   UNL d   1     -55.261-101.354 -42.002  0.00  0.00     0.197 A 
ATOM      2  N   UNL d   1     -54.956-100.906 -42.635  0.00  0.00    -0.220 NA
ATOM      3  C   UNL d   1     -55.212-101.243 -43.336  0.00  0.00     0.095 A 
ATOM      4  S   UNL d   1     -55.705-101.965 -42.331  0.00  0.00    -0.046 SA
ATOM      5  C   UNL d   1     -55.676-101.899 -43.151  0.00  0.00     0.058 A 
ENDROOT
BRANCH   1   6
ATOM      6  N   UNL d   1     -55.136-101.203 -41.206  0.00  0.00    -0.183 NA
ATOM      7  C   UNL d   1     -55.124-101.811 -40.659  0.00  0.00     0.281 C 
ATOM      8  O   UNL d   1     -55.240-102.597 -40.903  0.00  0.00    -0.265 OA
BRANCH   7   9
ATOM      9  C   UNL d   1     -54.998-101.662 -39.856  0.00  0.00     0.062 A 
ATOM     10  C   UNL d   1     -54.918-100.902 -39.581  0.00  0.00     0.029 A 
ATOM     11  C   UNL d   1     -54.793-100.762 -38.781  0.00  0.00     0.096 A 
ATOM     12  C   UNL d   1     -54.749-101.398 -38.253  0.00  0.00     0.048 A 
ATOM     13  C   UNL d   1     -54.831-102.160 -38.540  0.00  0.00     0.096 A 
ATOM     14  C   UNL d   1     -54.956-102.308 -39.335  0.00  0.00     0.029 A 
BRANCH  11  15
ATOM     15  O   UNL d   1     -54.712 -99.994 -38.503  0.00  0.00    -0.328 OA
ATOM     16  C   UNL d   1     -55.301 -99.428 -38.663  0.00  0.00     0.181 C 
ENDBRANCH  11  15
BRANCH  13  17
ATOM     17  O   UNL d   1     -54.788-102.807 -38.020  0.00  0.00    -0.328 OA
ATOM     18  C   UNL d   1     -55.325-102.874 -37.399  0.00  0.00     0.181 C 
ENDBRANCH  13  17
ENDBRANCH   7   9
ENDBRANCH   1   6
BRANCH   3  19
ATOM     19  C   UNL d   1     -55.038-100.975 -44.098  0.00  0.00     0.082 C 
BRANCH  19  20
ATOM     20  C   UNL d   1     -55.290-100.225 -44.341  0.00  0.00     0.281 C 
ATOM     21  N   UNL d   1     -56.087-100.030 -44.290  0.00  0.00    -0.206 NA
ATOM     22  O   UNL d   1     -54.741 -99.686 -44.629  0.00  0.00    -0.265 OA
BRANCH  21  23
ATOM     23  C   UNL d   1     -56.337 -99.288 -44.530  0.00  0.00     0.104 C 
BRANCH  23  24
ATOM     24  C   UNL d   1     -57.144 -99.124 -44.596  0.00  0.00     0.042 A 
ATOM     25  C   UNL d   1     -57.579 -98.921 -43.922  0.00  0.00     0.096 A 
ATOM     26  C   UNL d   1     -58.380 -98.756 -43.975  0.00  0.00     0.024 A 
ATOM     27  C   UNL d   1     -58.758 -98.793 -44.705  0.00  0.00     0.002 A 
ATOM     28  C   UNL d   1     -58.332 -98.994 -45.380  0.00  0.00     0.000 A 
ATOM     29  C   UNL d   1     -57.526 -99.160 -45.329  0.00  0.00     0.004 A 
BRANCH  25  30
ATOM     30  O   UNL d   1     -57.204 -98.881 -43.179  0.00  0.00    -0.328 OA
ATOM     31  C   UNL d   1     -57.646 -98.780 -42.488  0.00  0.00     0.181 C 
ENDBRANCH  25  30
ENDBRANCH  23  24
ENDBRANCH  21  23
ENDBRANCH  19  20
ENDBRANCH   3  19
TORSDOF 9
ENDMDL
