MODEL 1
REMARK VINA RESULT:      -8.9      0.000      0.000
REMARK  2 active torsions:
REMARK  status: ('A' for Active; 'I' for Inactive)
REMARK       I    between atoms: C_7  and  N_1 
REMARK    1  A    between atoms: C_6  and  C_3 
REMARK    2  A    between atoms: C_8  and  C_4 
ROOT
ATOM      1  N   UNL d   1     -48.965  13.157  22.268  0.00  0.00    -0.195 N 
ATOM      2  N   UNL d   1     -48.375  12.598  22.280  0.00  0.00    -0.163 NA
ATOM      3  C   UNL d   1     -48.864  13.657  22.915  0.00  0.00     0.091 A 
ATOM      4  C   UNL d   1     -47.903  12.753  22.940  0.00  0.00     0.104 A 
ATOM      5  C   UNL d   1     -48.208  13.404  23.324  0.00  0.00     0.040 A 
ATOM      6  C   UNL d   1     -49.588  13.221  21.689  0.00  0.00     0.281 C 
ATOM      7  O   UNL d   1     -50.138  13.803  21.744  0.00  0.00    -0.265 OA
ATOM      8  C   UNL d   1     -49.610  12.674  21.074  0.00  0.00     0.068 C 
ENDROOT
BRANCH   3   9
ATOM      9  C   UNL d   1     -49.348  14.302  23.106  0.00  0.00     0.057 A 
ATOM     10  C   UNL d   1     -49.094  15.053  22.960  0.00  0.00     0.197 A 
ATOM     11  O   UNL d   1     -48.367  15.185  22.627  0.00  0.00    -0.286 OA
ATOM     12  C   UNL d   1     -49.574  15.703  23.150  0.00  0.00     0.042 A 
ATOM     13  C   UNL d   1     -50.319  15.590  23.490  0.00  0.00     0.003 A 
ATOM     14  C   UNL d   1     -50.560  14.819  23.631  0.00  0.00     0.000 A 
ATOM     15  C   UNL d   1     -50.091  14.192  23.446  0.00  0.00     0.005 A 
ENDBRANCH   3   9
BRANCH   4  16
ATOM     16  C   UNL d   1     -47.237  12.323  23.169  0.00  0.00     0.039 A 
ATOM     17  C   UNL d   1     -46.486  12.657  23.100  0.00  0.00     0.101 A 
ATOM     18  N   UNL d   1     -45.820  12.227  23.329  0.00  0.00    -0.242 NA
ATOM     19  C   UNL d   1     -45.906  11.463  23.629  0.00  0.00     0.099 A 
ATOM     20  C   UNL d   1     -46.658  11.129  23.698  0.00  0.00     0.021 A 
ATOM     21  C   UNL d   1     -47.324  11.560  23.468  0.00  0.00     0.005 A 
ENDBRANCH   4  16
TORSDOF 2
ENDMDL
MODEL 2
REMARK VINA RESULT:      -8.5      1.115      2.004
REMARK  2 active torsions:
REMARK  status: ('A' for Active; 'I' for Inactive)
REMARK       I    between atoms: C_7  and  N_1 
REMARK    1  A    between atoms: C_6  and  C_3 
REMARK    2  A    between atoms: C_8  and  C_4 
ROOT
ATOM      1  N   UNL d   1     -48.398  14.118  22.692  0.00  0.00    -0.195 N 
ATOM      2  N   UNL d   1     -47.586  14.099  22.659  0.00  0.00    -0.163 NA
ATOM      3  C   UNL d   1     -48.675  13.345  22.764  0.00  0.00     0.091 A 
ATOM      4  C   UNL d   1     -47.357  13.307  22.711  0.00  0.00     0.104 A 
ATOM      5  C   UNL d   1     -48.030  12.850  22.775  0.00  0.00     0.040 A 
ATOM      6  C   UNL d   1     -48.888  14.815  22.659  0.00  0.00     0.281 C 
ATOM      7  O   UNL d   1     -49.687  14.755  22.698  0.00  0.00    -0.265 OA
ATOM      8  C   UNL d   1     -48.522  15.550  22.587  0.00  0.00     0.068 C 
ENDROOT
BRANCH   3   9
ATOM      9  C   UNL d   1     -49.471  13.121  22.815  0.00  0.00     0.057 A 
ATOM     10  C   UNL d   1     -49.830  12.766  22.186  0.00  0.00     0.197 A 
ATOM     11  O   UNL d   1     -49.419  12.625  21.502  0.00  0.00    -0.286 OA
ATOM     12  C   UNL d   1     -50.627  12.539  22.231  0.00  0.00     0.042 A 
ATOM     13  C   UNL d   1     -51.064  12.674  22.919  0.00  0.00     0.003 A 
ATOM     14  C   UNL d   1     -50.682  13.036  23.548  0.00  0.00     0.000 A 
ATOM     15  C   UNL d   1     -49.909  13.254  23.501  0.00  0.00     0.005 A 
ENDBRANCH   3   9
BRANCH   4  16
ATOM     16  C   UNL d   1     -46.581  13.027  22.700  0.00  0.00     0.039 A 
ATOM     17  C   UNL d   1     -46.336  12.468  23.254  0.00  0.00     0.101 A 
ATOM     18  N   UNL d   1     -45.560  12.187  23.243  0.00  0.00    -0.242 NA
ATOM     19  C   UNL d   1     -45.029  12.467  22.676  0.00  0.00     0.099 A 
ATOM     20  C   UNL d   1     -45.274  13.026  22.121  0.00  0.00     0.021 A 
ATOM     21  C   UNL d   1     -46.051  13.306  22.133  0.00  0.00     0.005 A 
ENDBRANCH   4  16
TORSDOF 2
ENDMDL
MODEL 3
REMARK VINA RESULT:      -7.0      1.881      3.850
REMARK  2 active torsions:
REMARK  status: ('A' for Active; 'I' for Inactive)
REMARK       I    between atoms: C_7  and  N_1 
REMARK    1  A    between atoms: C_6  and  C_3 
REMARK    2  A    between atoms: C_8  and  C_4 
ROOT
ATOM      1  N   UNL d   1     -47.319  13.799  22.755  0.00  0.00    -0.195 N 
ATOM      2  N   UNL d   1     -48.122  13.737  22.862  0.00  0.00    -0.163 NA
ATOM      3  C   UNL d   1     -47.013  13.043  22.631  0.00  0.00     0.091 A 
ATOM      4  C   UNL d   1     -48.318  12.937  22.803  0.00  0.00     0.104 A 
ATOM      5  C   UNL d   1     -47.633  12.517  22.662  0.00  0.00     0.040 A 
ATOM      6  C   UNL d   1     -46.861  14.518  22.768  0.00  0.00     0.281 C 
ATOM      7  O   UNL d   1     -46.067  14.499  22.654  0.00  0.00    -0.265 OA
ATOM      8  C   UNL d   1     -47.253  15.230  22.900  0.00  0.00     0.068 C 
ENDROOT
BRANCH   3   9
ATOM      9  C   UNL d   1     -46.216  12.861  22.499  0.00  0.00     0.057 A 
ATOM     10  C   UNL d   1     -45.814  12.409  23.032  0.00  0.00     0.197 A 
ATOM     11  O   UNL d   1     -46.182  12.130  23.697  0.00  0.00    -0.286 OA
ATOM     12  C   UNL d   1     -45.014  12.223  22.905  0.00  0.00     0.042 A 
ATOM     13  C   UNL d   1     -44.620  12.498  22.233  0.00  0.00     0.003 A 
ATOM     14  C   UNL d   1     -45.047  12.956  21.702  0.00  0.00     0.000 A 
ATOM     15  C   UNL d   1     -45.820  13.134  21.829  0.00  0.00     0.005 A 
ENDBRANCH   3   9
BRANCH   4  16
ATOM     16  C   UNL d   1     -49.075  12.618  22.876  0.00  0.00     0.039 A 
ATOM     17  C   UNL d   1     -49.506  12.419  22.201  0.00  0.00     0.101 A 
ATOM     18  N   UNL d   1     -50.263  12.100  22.274  0.00  0.00    -0.242 NA
ATOM     19  C   UNL d   1     -50.590  11.980  23.022  0.00  0.00     0.099 A 
ATOM     20  C   UNL d   1     -50.158  12.178  23.697  0.00  0.00     0.021 A 
ATOM     21  C   UNL d   1     -49.400  12.497  23.624  0.00  0.00     0.005 A 
ENDBRANCH   4  16
TORSDOF 2
ENDMDL
MODEL 4
REMARK VINA RESULT:      -6.9      8.847     10.452
REMARK  2 active torsions:
REMARK  status: ('A' for Active; 'I' for Inactive)
REMARK       I    between atoms: C_7  and  N_1 
REMARK    1  A    between atoms: C_6  and  C_3 
REMARK    2  A    between atoms: C_8  and  C_4 
ROOT
ATOM      1  N   UNL d   1     -40.313  15.348  17.801  0.00  0.00    -0.195 N 
ATOM      2  N   UNL d   1     -40.604  15.651  18.497  0.00  0.00    -0.163 NA
ATOM      3  C   UNL d   1     -39.638  14.906  17.970  0.00  0.00     0.091 A 
ATOM      4  C   UNL d   1     -40.105  15.395  19.104  0.00  0.00     0.104 A 
ATOM      5  C   UNL d   1     -39.515  14.939  18.774  0.00  0.00     0.040 A 
ATOM      6  C   UNL d   1     -40.643  15.463  17.023  0.00  0.00     0.281 C 
ATOM      7  O   UNL d   1     -40.298  15.130  16.380  0.00  0.00    -0.265 OA
ATOM      8  C   UNL d   1     -41.323  15.922  16.950  0.00  0.00     0.068 C 
ENDROOT
BRANCH   3   9
ATOM      9  C   UNL d   1     -39.173  14.503  17.415  0.00  0.00     0.057 A 
ATOM     10  C   UNL d   1     -39.170  13.697  17.402  0.00  0.00     0.197 A 
ATOM     11  O   UNL d   1     -39.619  13.275  17.928  0.00  0.00    -0.286 OA
ATOM     12  C   UNL d   1     -38.707  13.288  16.848  0.00  0.00     0.042 A 
ATOM     13  C   UNL d   1     -38.243  13.700  16.302  0.00  0.00     0.003 A 
ATOM     14  C   UNL d   1     -38.259  14.520  16.331  0.00  0.00     0.000 A 
ATOM     15  C   UNL d   1     -38.709  14.912  16.869  0.00  0.00     0.005 A 
ENDBRANCH   3   9
BRANCH   4  16
ATOM     16  C   UNL d   1     -40.190  15.571  19.905  0.00  0.00     0.039 A 
ATOM     17  C   UNL d   1     -39.525  15.746  20.362  0.00  0.00     0.101 A 
ATOM     18  N   UNL d   1     -39.610  15.921  21.164  0.00  0.00    -0.242 NA
ATOM     19  C   UNL d   1     -40.360  15.922  21.509  0.00  0.00     0.099 A 
ATOM     20  C   UNL d   1     -41.025  15.747  21.052  0.00  0.00     0.021 A 
ATOM     21  C   UNL d   1     -40.939  15.571  20.249  0.00  0.00     0.005 A 
ENDBRANCH   4  16
TORSDOF 2
ENDMDL
MODEL 5
REMARK VINA RESULT:      -6.2      9.621     10.352
REMARK  2 active torsions:
REMARK  status: ('A' for Active; 'I' for Inactive)
REMARK       I    between atoms: C_7  and  N_1 
REMARK    1  A    between atoms: C_6  and  C_3 
REMARK    2  A    between atoms: C_8  and  C_4 
ROOT
ATOM      1  N   UNL d   1     -38.733  13.649  18.740  0.00  0.00    -0.195 N 
ATOM      2  N   UNL d   1     -38.440  13.519  19.486  0.00  0.00    -0.163 NA
ATOM      3  C   UNL d   1     -39.253  14.288  18.771  0.00  0.00     0.091 A 
ATOM      4  C   UNL d   1     -38.781  14.082  19.986  0.00  0.00     0.104 A 
ATOM      5  C   UNL d   1     -39.279  14.550  19.541  0.00  0.00     0.040 A 
ATOM      6  C   UNL d   1     -38.541  13.205  18.038  0.00  0.00     0.281 C 
ATOM      7  O   UNL d   1     -38.872  13.394  17.332  0.00  0.00    -0.265 OA
ATOM      8  C   UNL d   1     -38.008  12.580  18.102  0.00  0.00     0.068 C 
ENDROOT
BRANCH   3   9
ATOM      9  C   UNL d   1     -39.672  14.600  18.128  0.00  0.00     0.057 A 
ATOM     10  C   UNL d   1     -40.464  14.465  18.060  0.00  0.00     0.197 A 
ATOM     11  O   UNL d   1     -40.857  14.025  18.616  0.00  0.00    -0.286 OA
ATOM     12  C   UNL d   1     -40.889  14.776  17.418  0.00  0.00     0.042 A 
ATOM     13  C   UNL d   1     -40.507  15.227  16.840  0.00  0.00     0.003 A 
ATOM     14  C   UNL d   1     -39.702  15.353  16.927  0.00  0.00     0.000 A 
ATOM     15  C   UNL d   1     -39.294  15.051  17.550  0.00  0.00     0.005 A 
ENDBRANCH   3   9
BRANCH   4  16
ATOM     16  C   UNL d   1     -38.642  14.157  20.796  0.00  0.00     0.039 A 
ATOM     17  C   UNL d   1     -38.079  14.693  21.070  0.00  0.00     0.101 A 
ATOM     18  N   UNL d   1     -37.940  14.769  21.880  0.00  0.00    -0.242 NA
ATOM     19  C   UNL d   1     -38.365  14.306  22.416  0.00  0.00     0.099 A 
ATOM     20  C   UNL d   1     -38.929  13.770  22.141  0.00  0.00     0.021 A 
ATOM     21  C   UNL d   1     -39.067  13.695  21.331  0.00  0.00     0.005 A 
ENDBRANCH   4  16
TORSDOF 2
ENDMDL
