MODEL 1
REMARK VINA RESULT:      -5.0      0.000      0.000
REMARK  5 active torsions:
REMARK  status: ('A' for Active; 'I' for Inactive)
REMARK    1  A    between atoms: N_10  and  C_3 
REMARK    2  A    between atoms: N_11  and  C_6 
REMARK    3  A    between atoms: C_12  and  N_10 
REMARK    4  A    between atoms: C_13  and  N_11 
REMARK    5  A    between atoms: C_21  and  C_13 
ROOT
ATOM      1  C   UNL d   1      59.538  -0.051  30.182  0.00  0.00     0.187 A 
ATOM      2  C   UNL d   1      59.575  -0.461  29.509  0.00  0.00     0.094 A 
ATOM      3  C   UNL d   1      58.921  -0.786  29.206  0.00  0.00     0.185 A 
ATOM      4  N   UNL d   1      58.854   0.036  30.554  0.00  0.00    -0.040 NA
ATOM      5  N   UNL d   1      58.239  -0.695  29.585  0.00  0.00    -0.040 NA
ATOM      6  C   UNL d   1      58.205  -0.285  30.257  0.00  0.00     0.753 A 
ATOM      7  N   UNL d   1      60.885   0.185  30.105  0.00  0.00    -0.162 NA
ATOM      8  N   UNL d   1      60.190   0.274  30.485  0.00  0.00    -0.208 N 
ATOM      9  C   UNL d   1      60.918  -0.225  29.433  0.00  0.00     0.127 A 
ATOM     10  C   UNL d   1      60.157   0.682  31.153  0.00  0.00     0.123 C 
ENDROOT
BRANCH   3  11
ATOM     11  N   UNL d   1      58.948  -1.214  28.507  0.00  0.00    -0.226 NA
BRANCH  11  12
ATOM     12  C   UNL d   1      58.947  -2.035  28.523  0.00  0.00     0.083 A 
ATOM     13  C   UNL d   1      59.657  -2.461  28.607  0.00  0.00     0.021 A 
ATOM     14  C   UNL d   1      59.658  -3.286  28.623  0.00  0.00     0.031 A 
ATOM     15  C   UNL d   1      58.938  -3.696  28.555  0.00  0.00     0.140 A 
ATOM     16  C   UNL d   1      58.234  -3.281  28.472  0.00  0.00     0.031 A 
ATOM     17  F   UNL d   1      58.928  -4.518  28.570  0.00  0.00    -0.204 F 
ATOM     18  C   UNL d   1      58.238  -2.449  28.456  0.00  0.00     0.021 A 
ENDBRANCH  11  12
ENDBRANCH   3  11
BRANCH   6  19
ATOM     19  N   UNL d   1      57.478  -0.195  30.649  0.00  0.00    -0.058 NA
BRANCH  19  20
ATOM     20  C   UNL d   1      57.378  -0.514  31.411  0.00  0.00     0.118 C 
BRANCH  20  21
ATOM     21  C   UNL d   1      56.760  -0.540  31.959  0.00  0.00     0.020 A 
ATOM     22  C   UNL d   1      56.491   0.153  32.325  0.00  0.00     0.002 A 
ATOM     23  C   UNL d   1      55.867   0.111  32.875  0.00  0.00     0.000 A 
ATOM     24  C   UNL d   1      55.520  -0.611  33.055  0.00  0.00     0.000 A 
ATOM     25  C   UNL d   1      55.786  -1.298  32.692  0.00  0.00     0.000 A 
ATOM     26  C   UNL d   1      56.405  -1.262  32.145  0.00  0.00     0.002 A 
ENDBRANCH  20  21
ENDBRANCH  19  20
ENDBRANCH   6  19
TORSDOF 5
ENDMDL
