MODEL 1
REMARK VINA RESULT:      53.6      0.000      0.000
REMARK  4 active torsions:
REMARK  status: ('A' for Active; 'I' for Inactive)
REMARK    1  A    between atoms: C_2  and  S_1 
REMARK    2  A    between atoms: N_4  and  S_1 
REMARK    3  A    between atoms: C_16  and  N_4 
REMARK    4  A    between atoms: C_17  and  C_16 
ROOT
ATOM      1  S   UNL d   1     -50.257  26.904  33.465  0.00  0.00     0.287 S 
ATOM      2  O   UNL d   1     -49.720  26.292  33.326  0.00  0.00    -0.198 OA
ATOM      3  O   UNL d   1     -50.787  27.522  33.605  0.00  0.00    -0.198 OA
ENDROOT
BRANCH   1   4
ATOM      4  C   UNL d   1     -50.881  26.365  33.427  0.00  0.00     0.123 A 
ATOM      5  C   UNL d   1     -50.731  25.551  33.386  0.00  0.00     0.094 A 
ATOM      6  N   UNL d   1     -49.952  25.279  33.384  0.00  0.00    -0.243 NA
ATOM      7  C   UNL d   1     -51.340  25.015  33.349  0.00  0.00     0.018 A 
ATOM      8  C   UNL d   1     -49.799  24.487  33.345  0.00  0.00     0.099 A 
ATOM      9  C   UNL d   1     -50.422  23.948  33.307  0.00  0.00     0.021 A 
ATOM     10  C   UNL d   1     -51.197  24.198  33.308  0.00  0.00     0.003 A 
ATOM     11  C   UNL d   1     -52.126  25.284  33.350  0.00  0.00     0.002 A 
ATOM     12  C   UNL d   1     -52.273  26.079  33.390  0.00  0.00     0.001 A 
ATOM     13  C   UNL d   1     -51.649  26.618  33.428  0.00  0.00     0.015 A 
ENDBRANCH   1   4
BRANCH   1  14
ATOM     14  N   UNL d   1     -49.626  27.438  33.502  0.00  0.00    -0.157 NA
BRANCH  14  15
ATOM     15  C   UNL d   1     -49.685  28.112  33.984  0.00  0.00     0.112 C 
BRANCH  15  16
ATOM     16  C   UNL d   1     -49.053  28.355  34.433  0.00  0.00     0.022 A 
ATOM     17  C   UNL d   1     -48.965  29.152  34.665  0.00  0.00     0.028 A 
ATOM     18  C   UNL d   1     -48.330  29.377  35.112  0.00  0.00     0.119 A 
ATOM     19  O   UNL d   1     -48.107  30.094  35.410  0.00  0.00    -0.300 OA
ATOM     20  C   UNL d   1     -47.757  28.811  35.345  0.00  0.00     0.119 A 
ATOM     21  C   UNL d   1     -47.396  29.991  35.832  0.00  0.00     0.304 A 
ATOM     22  O   UNL d   1     -47.196  29.200  35.781  0.00  0.00    -0.300 OA
ATOM     23  C   UNL d   1     -47.844  28.048  35.121  0.00  0.00     0.026 A 
ATOM     24  C   UNL d   1     -48.501  27.810  34.657  0.00  0.00     0.004 A 
ENDBRANCH  15  16
ENDBRANCH  14  15
ENDBRANCH   1  14
TORSDOF 4
ENDMDL
MODEL 2
REMARK VINA RESULT:      53.9      0.889      1.783
REMARK  4 active torsions:
REMARK  status: ('A' for Active; 'I' for Inactive)
REMARK    1  A    between atoms: C_2  and  S_1 
REMARK    2  A    between atoms: N_4  and  S_1 
REMARK    3  A    between atoms: C_16  and  N_4 
REMARK    4  A    between atoms: C_17  and  C_16 
ROOT
ATOM      1  S   UNL d   1     -50.121  25.704  33.396  0.00  0.00     0.287 S 
ATOM      2  O   UNL d   1     -50.865  26.051  33.314  0.00  0.00    -0.198 OA
ATOM      3  O   UNL d   1     -49.372  25.364  33.478  0.00  0.00    -0.198 OA
ENDROOT
BRANCH   1   4
ATOM      4  C   UNL d   1     -50.467  24.956  33.371  0.00  0.00     0.123 A 
ATOM      5  C   UNL d   1     -51.292  24.874  33.351  0.00  0.00     0.094 A 
ATOM      6  N   UNL d   1     -51.768  25.548  33.356  0.00  0.00    -0.243 NA
ATOM      7  C   UNL d   1     -51.640  24.141  33.327  0.00  0.00     0.018 A 
ATOM      8  C   UNL d   1     -52.572  25.477  33.337  0.00  0.00     0.099 A 
ATOM      9  C   UNL d   1     -52.919  24.730  33.312  0.00  0.00     0.021 A 
ATOM     10  C   UNL d   1     -52.466  24.053  33.306  0.00  0.00     0.003 A 
ATOM     11  C   UNL d   1     -51.165  23.461  33.322  0.00  0.00     0.002 A 
ATOM     12  C   UNL d   1     -50.360  23.538  33.341  0.00  0.00     0.001 A 
ATOM     13  C   UNL d   1     -50.012  24.287  33.366  0.00  0.00     0.015 A 
ENDBRANCH   1   4
BRANCH   1  14
ATOM     14  N   UNL d   1     -49.780  26.458  33.420  0.00  0.00    -0.157 NA
BRANCH  14  15
ATOM     15  C   UNL d   1     -49.188  26.624  33.977  0.00  0.00     0.112 C 
BRANCH  15  16
ATOM     16  C   UNL d   1     -48.983  27.393  34.145  0.00  0.00     0.022 A 
ATOM     17  C   UNL d   1     -48.559  27.589  34.836  0.00  0.00     0.028 A 
ATOM     18  C   UNL d   1     -48.363  28.358  34.989  0.00  0.00     0.119 A 
ATOM     19  O   UNL d   1     -47.963  28.702  35.601  0.00  0.00    -0.300 OA
ATOM     20  C   UNL d   1     -48.586  28.963  34.452  0.00  0.00     0.119 A 
ATOM     21  C   UNL d   1     -47.929  29.524  35.460  0.00  0.00     0.304 A 
ATOM     22  O   UNL d   1     -48.315  29.665  34.753  0.00  0.00    -0.300 OA
ATOM     23  C   UNL d   1     -48.993  28.773  33.791  0.00  0.00     0.026 A 
ATOM     24  C   UNL d   1     -49.198  27.975  33.629  0.00  0.00     0.004 A 
ENDBRANCH  15  16
ENDBRANCH  14  15
ENDBRANCH   1  14
TORSDOF 4
ENDMDL
