MODEL 1
REMARK VINA RESULT:      -5.0      0.000      0.000
REMARK  7 active torsions:
REMARK  status: ('A' for Active; 'I' for Inactive)
REMARK    1  A    between atoms: N_3  and  C_2 
REMARK       I    between atoms: C_6  and  N_3 
REMARK    2  A    between atoms: C_11  and  C_4 
REMARK    3  A    between atoms: C_5  and  C_6 
REMARK    4  A    between atoms: C_15  and  C_11 
REMARK    5  A    between atoms: C_18  and  C_12 
REMARK    6  A    between atoms: O_17  and  C_18 
REMARK    7  A    between atoms: C_19  and  O_17 
ROOT
ATOM      1  C   UNL d   1     -41.491-122.750 -51.216  0.00  0.00     0.158 A 
ATOM      2  O   UNL d   1     -41.456-123.146 -51.936  0.00  0.00    -0.300 OA
ATOM      3  C   UNL d   1     -41.287-121.963 -51.347  0.00  0.00     0.032 A 
ATOM      4  C   UNL d   1     -41.230-122.607 -52.520  0.00  0.00     0.125 A 
ATOM      5  C   UNL d   1     -41.126-121.875 -52.153  0.00  0.00     0.029 A 
ENDROOT
BRANCH   1   6
ATOM      6  C   UNL d   1     -41.695-123.083 -50.484  0.00  0.00     0.304 C 
ATOM      7  N   UNL d   1     -42.387-122.843 -50.102  0.00  0.00    -0.180 NA
ATOM      8  O   UNL d   1     -41.206-123.652 -50.141  0.00  0.00    -0.263 OA
BRANCH   7   9
ATOM      9  C   UNL d   1     -42.591-123.171 -49.377  0.00  0.00     0.216 A 
ATOM     10  N   UNL d   1     -42.136-123.139 -48.671  0.00  0.00    -0.200 NA
ATOM     11  C   UNL d   1     -42.544-123.532 -48.097  0.00  0.00     0.175 A 
ATOM     12  N   UNL d   1     -43.248-123.814 -48.419  0.00  0.00    -0.187 NA
ATOM     13  S   UNL d   1     -43.276-123.591 -49.210  0.00  0.00     0.054 SA
BRANCH  11  14
ATOM     14  C   UNL d   1     -42.305-123.638 -47.315  0.00  0.00     0.082 C 
BRANCH  14  15
ATOM     15  C   UNL d   1     -42.005-122.991 -46.891  0.00  0.00     0.199 C 
ATOM     16  O   UNL d   1     -42.496-122.365 -46.682  0.00  0.00    -0.286 OA
ATOM     17  C   UNL d   1     -41.203-122.976 -46.676  0.00  0.00     0.045 C 
ENDBRANCH  14  15
ENDBRANCH  11  14
ENDBRANCH   7   9
ENDBRANCH   1   6
BRANCH   4  18
ATOM     18  C   UNL d   1     -41.130-122.774 -53.315  0.00  0.00     0.147 C 
BRANCH  18  19
ATOM     19  O   UNL d   1     -41.791-122.972 -53.779  0.00  0.00    -0.303 OA
BRANCH  19  20
ATOM     20  C   UNL d   1     -41.914-122.599 -54.502  0.00  0.00     0.100 A 
ATOM     21  C   UNL d   1     -41.316-122.607 -55.071  0.00  0.00     0.025 A 
ATOM     22  C   UNL d   1     -41.437-122.236 -55.791  0.00  0.00     0.002 A 
ATOM     23  C   UNL d   1     -42.161-121.852 -55.949  0.00  0.00     0.000 A 
ATOM     24  C   UNL d   1     -42.754-121.849 -55.375  0.00  0.00     0.002 A 
ATOM     25  C   UNL d   1     -42.278-121.479 -56.678  0.00  0.00     0.000 C 
ATOM     26  C   UNL d   1     -42.631-122.222 -54.652  0.00  0.00     0.025 A 
ENDBRANCH  19  20
ENDBRANCH  18  19
ENDBRANCH   4  18
TORSDOF 7
ENDMDL
