MODEL 1
REMARK VINA RESULT:     -10.8      0.000      0.000
REMARK  1 active torsions:
REMARK  status: ('A' for Active; 'I' for Inactive)
REMARK    1  A    between atoms: C_11  and  C_2 
ROOT
ATOM      1  C   UNL d   1     -48.833  14.055  22.861  0.00  0.00     0.026 A 
ATOM      2  C   UNL d   1     -48.314  13.432  22.837  0.00  0.00     0.007 A 
ATOM      3  C   UNL d   1     -48.560  14.822  22.800  0.00  0.00     0.103 A 
ATOM      4  C   UNL d   1     -47.510  13.565  22.752  0.00  0.00     0.026 A 
ATOM      5  C   UNL d   1     -49.643  13.914  22.947  0.00  0.00     0.047 A 
ATOM      6  C   UNL d   1     -47.236  14.335  22.691  0.00  0.00     0.103 A 
ATOM      7  O   UNL d   1     -47.766  14.973  22.715  0.00  0.00    -0.307 OA
ATOM      8  C   UNL d   1     -49.084  15.454  22.824  0.00  0.00     0.070 A 
ATOM      9  C   UNL d   1     -50.180  14.532  22.973  0.00  0.00     0.234 A 
ATOM     10  C   UNL d   1     -49.906  15.310  22.911  0.00  0.00     0.236 A 
ATOM     11  C   UNL d   1     -46.971  12.946  22.726  0.00  0.00     0.047 A 
ATOM     12  C   UNL d   1     -46.418  14.488  22.603  0.00  0.00     0.070 A 
ATOM     13  C   UNL d   1     -46.149  13.083  22.639  0.00  0.00     0.234 A 
ATOM     14  C   UNL d   1     -45.883  13.864  22.578  0.00  0.00     0.236 A 
ATOM     15  O   UNL d   1     -50.449  15.922  22.938  0.00  0.00    -0.283 OA
ATOM     16  O   UNL d   1     -50.978  14.371  23.059  0.00  0.00    -0.283 OA
ATOM     17  O   UNL d   1     -45.617  12.463  22.614  0.00  0.00    -0.283 OA
ATOM     18  O   UNL d   1     -45.079  14.022  22.492  0.00  0.00    -0.283 OA
ENDROOT
BRANCH   2  19
ATOM     19  C   UNL d   1     -48.588  12.662  22.899  0.00  0.00     0.039 A 
ATOM     20  C   UNL d   1     -48.798  12.241  22.208  0.00  0.00     0.196 A 
ATOM     21  O   UNL d   1     -48.736  12.583  21.475  0.00  0.00    -0.287 OA
ATOM     22  C   UNL d   1     -49.075  11.464  22.270  0.00  0.00     0.042 A 
ATOM     23  C   UNL d   1     -49.143  11.100  23.023  0.00  0.00     0.003 A 
ATOM     24  C   UNL d   1     -48.932  11.527  23.698  0.00  0.00     0.000 A 
ATOM     25  C   UNL d   1     -48.656  12.304  23.625  0.00  0.00     0.003 A 
ENDBRANCH   2  19
TORSDOF 1
ENDMDL
MODEL 2
REMARK VINA RESULT:     -10.7      1.173      2.643
REMARK  1 active torsions:
REMARK  status: ('A' for Active; 'I' for Inactive)
REMARK    1  A    between atoms: C_11  and  C_2 
ROOT
ATOM      1  C   UNL d   1     -49.051  12.859  23.218  0.00  0.00     0.026 A 
ATOM      2  C   UNL d   1     -48.691  13.569  23.061  0.00  0.00     0.007 A 
ATOM      3  C   UNL d   1     -48.608  12.177  23.283  0.00  0.00     0.103 A 
ATOM      4  C   UNL d   1     -47.879  13.610  22.966  0.00  0.00     0.026 A 
ATOM      5  C   UNL d   1     -49.872  12.825  23.312  0.00  0.00     0.047 A 
ATOM      6  C   UNL d   1     -47.433  12.925  23.032  0.00  0.00     0.103 A 
ATOM      7  O   UNL d   1     -47.800  12.198  23.192  0.00  0.00    -0.307 OA
ATOM      8  C   UNL d   1     -48.970  11.458  23.442  0.00  0.00     0.070 A 
ATOM      9  C   UNL d   1     -50.250  12.116  23.471  0.00  0.00     0.234 A 
ATOM     10  C   UNL d   1     -49.803  11.424  23.538  0.00  0.00     0.236 A 
ATOM     11  C   UNL d   1     -47.498  14.321  22.807  0.00  0.00     0.047 A 
ATOM     12  C   UNL d   1     -46.602  12.950  22.938  0.00  0.00     0.070 A 
ATOM     13  C   UNL d   1     -46.667  14.361  22.710  0.00  0.00     0.234 A 
ATOM     14  C   UNL d   1     -46.227  13.664  22.778  0.00  0.00     0.236 A 
ATOM     15  O   UNL d   1     -50.189  10.719  23.697  0.00  0.00    -0.283 OA
ATOM     16  O   UNL d   1     -51.064  12.103  23.561  0.00  0.00    -0.283 OA
ATOM     17  O   UNL d   1     -46.294  15.071  22.552  0.00  0.00    -0.283 OA
ATOM     18  O   UNL d   1     -45.408  13.681  22.687  0.00  0.00    -0.283 OA
ENDROOT
BRANCH   2  19
ATOM     19  C   UNL d   1     -49.137  14.254  22.995  0.00  0.00     0.039 A 
ATOM     20  C   UNL d   1     -49.431  14.486  22.249  0.00  0.00     0.196 A 
ATOM     21  O   UNL d   1     -49.283  14.045  21.585  0.00  0.00    -0.287 OA
ATOM     22  C   UNL d   1     -49.881  15.178  22.182  0.00  0.00     0.042 A 
ATOM     23  C   UNL d   1     -50.040  15.643  22.862  0.00  0.00     0.003 A 
ATOM     24  C   UNL d   1     -49.744  15.402  23.595  0.00  0.00     0.000 A 
ATOM     25  C   UNL d   1     -49.295  14.709  23.650  0.00  0.00     0.003 A 
ENDBRANCH   2  19
TORSDOF 1
ENDMDL
MODEL 3
REMARK VINA RESULT:     -10.6      1.245      3.933
REMARK  1 active torsions:
REMARK  status: ('A' for Active; 'I' for Inactive)
REMARK    1  A    between atoms: C_11  and  C_2 
ROOT
ATOM      1  C   UNL d   1     -47.471  12.709  23.051  0.00  0.00     0.026 A 
ATOM      2  C   UNL d   1     -48.226  12.992  22.958  0.00  0.00     0.007 A 
ATOM      3  C   UNL d   1     -47.346  11.950  23.325  0.00  0.00     0.103 A 
ATOM      4  C   UNL d   1     -48.871  12.521  23.137  0.00  0.00     0.026 A 
ATOM      5  C   UNL d   1     -46.824  13.190  22.868  0.00  0.00     0.047 A 
ATOM      6  C   UNL d   1     -48.746  11.759  23.412  0.00  0.00     0.103 A 
ATOM      7  O   UNL d   1     -47.975  11.468  23.508  0.00  0.00    -0.307 OA
ATOM      8  C   UNL d   1     -46.584  11.662  23.420  0.00  0.00     0.070 A 
ATOM      9  C   UNL d   1     -46.057  12.919  22.957  0.00  0.00     0.234 A 
ATOM     10  C   UNL d   1     -45.927  12.151  23.234  0.00  0.00     0.236 A 
ATOM     11  C   UNL d   1     -49.642  12.792  23.049  0.00  0.00     0.047 A 
ATOM     12  C   UNL d   1     -49.394  11.264  23.600  0.00  0.00     0.070 A 
ATOM     13  C   UNL d   1     -50.300  12.308  23.233  0.00  0.00     0.234 A 
ATOM     14  C   UNL d   1     -50.163  11.541  23.510  0.00  0.00     0.236 A 
ATOM     15  O   UNL d   1     -45.157  11.887  23.320  0.00  0.00    -0.283 OA
ATOM     16  O   UNL d   1     -45.430  13.411  22.770  0.00  0.00    -0.283 OA
ATOM     17  O   UNL d   1     -51.064  12.583  23.142  0.00  0.00    -0.283 OA
ATOM     18  O   UNL d   1     -50.796  11.048  23.697  0.00  0.00    -0.283 OA
ENDROOT
BRANCH   2  19
ATOM     19  C   UNL d   1     -48.351  13.754  22.683  0.00  0.00     0.039 A 
ATOM     20  C   UNL d   1     -48.442  13.889  21.863  0.00  0.00     0.196 A 
ATOM     21  O   UNL d   1     -48.408  13.277  21.333  0.00  0.00    -0.287 OA
ATOM     22  C   UNL d   1     -48.569  14.657  21.586  0.00  0.00     0.042 A 
ATOM     23  C   UNL d   1     -48.606  15.299  22.125  0.00  0.00     0.003 A 
ATOM     24  C   UNL d   1     -48.514  15.153  22.933  0.00  0.00     0.000 A 
ATOM     25  C   UNL d   1     -48.388  14.380  23.200  0.00  0.00     0.003 A 
ENDBRANCH   2  19
TORSDOF 1
ENDMDL
MODEL 4
REMARK VINA RESULT:     -10.2      1.225      1.871
REMARK  1 active torsions:
REMARK  status: ('A' for Active; 'I' for Inactive)
REMARK    1  A    between atoms: C_11  and  C_2 
ROOT
ATOM      1  C   UNL d   1     -47.991  13.536  22.785  0.00  0.00     0.026 A 
ATOM      2  C   UNL d   1     -48.105  12.754  22.969  0.00  0.00     0.007 A 
ATOM      3  C   UNL d   1     -47.238  13.851  22.770  0.00  0.00     0.103 A 
ATOM      4  C   UNL d   1     -47.467  12.271  23.143  0.00  0.00     0.026 A 
ATOM      5  C   UNL d   1     -48.640  14.018  22.611  0.00  0.00     0.047 A 
ATOM      6  C   UNL d   1     -46.710  12.588  23.128  0.00  0.00     0.103 A 
ATOM      7  O   UNL d   1     -46.592  13.387  22.939  0.00  0.00    -0.307 OA
ATOM      8  C   UNL d   1     -47.120  14.641  22.583  0.00  0.00     0.070 A 
ATOM      9  C   UNL d   1     -48.542  14.808  22.422  0.00  0.00     0.234 A 
ATOM     10  C   UNL d   1     -47.780  15.130  22.406  0.00  0.00     0.236 A 
ATOM     11  C   UNL d   1     -47.564  11.478  23.332  0.00  0.00     0.047 A 
ATOM     12  C   UNL d   1     -46.047  12.108  23.303  0.00  0.00     0.070 A 
ATOM     13  C   UNL d   1     -46.910  10.986  23.509  0.00  0.00     0.234 A 
ATOM     14  C   UNL d   1     -46.151  11.315  23.491  0.00  0.00     0.236 A 
ATOM     15  O   UNL d   1     -47.690  15.922  22.217  0.00  0.00    -0.283 OA
ATOM     16  O   UNL d   1     -49.197  15.268  22.253  0.00  0.00    -0.283 OA
ATOM     17  O   UNL d   1     -47.013  10.197  23.696  0.00  0.00    -0.283 OA
ATOM     18  O   UNL d   1     -45.493  10.848  23.662  0.00  0.00    -0.283 OA
ENDROOT
BRANCH   2  19
ATOM     19  C   UNL d   1     -48.861  12.438  22.984  0.00  0.00     0.039 A 
ATOM     20  C   UNL d   1     -49.189  12.116  22.286  0.00  0.00     0.196 A 
ATOM     21  O   UNL d   1     -48.771  12.110  21.592  0.00  0.00    -0.287 OA
ATOM     22  C   UNL d   1     -49.952  11.797  22.302  0.00  0.00     0.042 A 
ATOM     23  C   UNL d   1     -50.394  11.797  23.015  0.00  0.00     0.003 A 
ATOM     24  C   UNL d   1     -50.059  12.119  23.698  0.00  0.00     0.000 A 
ATOM     25  C   UNL d   1     -49.295  12.435  23.672  0.00  0.00     0.003 A 
ENDBRANCH   2  19
TORSDOF 1
ENDMDL
MODEL 5
REMARK VINA RESULT:      -7.8      1.186      3.430
REMARK  1 active torsions:
REMARK  status: ('A' for Active; 'I' for Inactive)
REMARK    1  A    between atoms: C_11  and  C_2 
ROOT
ATOM      1  C   UNL d   1     -48.525  12.462  23.009  0.00  0.00     0.026 A 
ATOM      2  C   UNL d   1     -48.228  13.183  22.783  0.00  0.00     0.007 A 
ATOM      3  C   UNL d   1     -49.329  12.357  23.096  0.00  0.00     0.103 A 
ATOM      4  C   UNL d   1     -48.730  13.813  22.640  0.00  0.00     0.026 A 
ATOM      5  C   UNL d   1     -48.011  11.831  23.152  0.00  0.00     0.047 A 
ATOM      6  C   UNL d   1     -49.539  13.707  22.727  0.00  0.00     0.103 A 
ATOM      7  O   UNL d   1     -49.845  12.971  22.958  0.00  0.00    -0.307 OA
ATOM      8  C   UNL d   1     -49.633  11.629  23.324  0.00  0.00     0.070 A 
ATOM      9  C   UNL d   1     -48.295  11.098  23.380  0.00  0.00     0.234 A 
ATOM     10  C   UNL d   1     -49.110  10.988  23.469  0.00  0.00     0.236 A 
ATOM     11  C   UNL d   1     -48.447  14.549  22.410  0.00  0.00     0.047 A 
ATOM     12  C   UNL d   1     -50.067  14.341  22.584  0.00  0.00     0.070 A 
ATOM     13  C   UNL d   1     -48.963  15.192  22.264  0.00  0.00     0.234 A 
ATOM     14  C   UNL d   1     -49.776  15.075  22.355  0.00  0.00     0.236 A 
ATOM     15  O   UNL d   1     -49.386  10.252  23.698  0.00  0.00    -0.283 OA
ATOM     16  O   UNL d   1     -47.770  10.485  23.517  0.00  0.00    -0.283 OA
ATOM     17  O   UNL d   1     -48.674  15.922  22.036  0.00  0.00    -0.283 OA
ATOM     18  O   UNL d   1     -50.302  15.694  22.217  0.00  0.00    -0.283 OA
ENDROOT
BRANCH   2  19
ATOM     19  C   UNL d   1     -47.419  13.288  22.695  0.00  0.00     0.039 A 
ATOM     20  C   UNL d   1     -47.061  13.148  21.954  0.00  0.00     0.196 A 
ATOM     21  O   UNL d   1     -47.500  12.907  21.316  0.00  0.00    -0.287 OA
ATOM     22  C   UNL d   1     -46.246  13.254  21.865  0.00  0.00     0.042 A 
ATOM     23  C   UNL d   1     -45.781  13.503  22.518  0.00  0.00     0.003 A 
ATOM     24  C   UNL d   1     -46.147  13.639  23.246  0.00  0.00     0.000 A 
ATOM     25  C   UNL d   1     -46.963  13.529  23.324  0.00  0.00     0.003 A 
ENDBRANCH   2  19
TORSDOF 1
ENDMDL
