MODEL 1
REMARK VINA RESULT:      26.1      0.000      0.000
REMARK  3 active torsions:
REMARK  status: ('A' for Active; 'I' for Inactive)
REMARK    1  A    between atoms: N_7  and  C_2 
REMARK    2  A    between atoms: C_10  and  N_7 
REMARK    3  A    between atoms: C_12  and  C_10 
ROOT
ATOM      1  C   UNL d   1      13.421  12.550  -3.822  0.00  0.00     0.184 A 
ATOM      2  C   UNL d   1      13.676  13.192  -3.417  0.00  0.00     0.108 A 
ATOM      3  C   UNL d   1      13.041  12.646  -4.570  0.00  0.00     0.321 A 
ATOM      4  O   UNL d   1      12.932  13.381  -4.880  0.00  0.00    -0.272 OA
ATOM      5  C   UNL d   1      13.567  13.950  -3.730  0.00  0.00     0.042 A 
ATOM      6  C   UNL d   1      13.192  14.045  -4.467  0.00  0.00     0.105 A 
ATOM      7  O   UNL d   1      12.771  11.974  -5.001  0.00  0.00    -0.257 OA
ATOM      8  N   UNL d   1      13.541  11.779  -3.487  0.00  0.00    -0.141 N 
ATOM      9  C   UNL d   1      13.828  14.602  -3.312  0.00  0.00     0.004 A 
ATOM     10  C   UNL d   1      13.084  14.791  -4.775  0.00  0.00     0.025 A 
ATOM     11  C   UNL d   1      13.725  15.358  -3.614  0.00  0.00     0.000 A 
ATOM     12  C   UNL d   1      13.344  15.454  -4.362  0.00  0.00     0.002 A 
ENDROOT
BRANCH   2  13
ATOM     13  N   UNL d   1      14.048  13.098  -2.685  0.00  0.00    -0.242 NA
BRANCH  13  14
ATOM     14  C   UNL d   1      13.862  12.442  -2.241  0.00  0.00     0.099 C 
BRANCH  14  15
ATOM     15  C   UNL d   1      14.222  12.360  -1.482  0.00  0.00     0.019 A 
ATOM     16  C   UNL d   1      14.901  12.766  -1.322  0.00  0.00     0.002 A 
ATOM     17  C   UNL d   1      15.253  12.685  -0.580  0.00  0.00     0.000 A 
ATOM     18  C   UNL d   1      14.918  12.200  -0.014  0.00  0.00     0.000 A 
ATOM     19  C   UNL d   1      14.219  11.786  -0.187  0.00  0.00     0.000 A 
ATOM     20  C   UNL d   1      13.869  11.869  -0.931  0.00  0.00     0.002 A 
ENDBRANCH  14  15
ENDBRANCH  13  14
ENDBRANCH   2  13
TORSDOF 3
ENDMDL
MODEL 2
REMARK VINA RESULT:      28.2      0.861      1.986
REMARK  3 active torsions:
REMARK  status: ('A' for Active; 'I' for Inactive)
REMARK    1  A    between atoms: N_7  and  C_2 
REMARK    2  A    between atoms: C_10  and  N_7 
REMARK    3  A    between atoms: C_12  and  C_10 
ROOT
ATOM      1  C   UNL d   1      13.709  14.298  -3.549  0.00  0.00     0.184 A 
ATOM      2  C   UNL d   1      13.543  13.524  -3.425  0.00  0.00     0.108 A 
ATOM      3  C   UNL d   1      13.619  14.630  -4.321  0.00  0.00     0.321 A 
ATOM      4  O   UNL d   1      13.368  14.173  -4.934  0.00  0.00    -0.272 OA
ATOM      5  C   UNL d   1      13.284  13.049  -4.051  0.00  0.00     0.042 A 
ATOM      6  C   UNL d   1      13.196  13.376  -4.811  0.00  0.00     0.105 A 
ATOM      7  O   UNL d   1      13.793  15.443  -4.458  0.00  0.00    -0.257 OA
ATOM      8  N   UNL d   1      13.974  14.771  -2.897  0.00  0.00    -0.141 N 
ATOM      9  C   UNL d   1      13.116  12.261  -3.918  0.00  0.00     0.004 A 
ATOM     10  C   UNL d   1      12.940  12.910  -5.427  0.00  0.00     0.025 A 
ATOM     11  C   UNL d   1      12.858  11.782  -4.532  0.00  0.00     0.000 A 
ATOM     12  C   UNL d   1      12.769  12.114  -5.304  0.00  0.00     0.002 A 
ENDROOT
BRANCH   2  13
ATOM     13  N   UNL d   1      13.631  13.199  -2.670  0.00  0.00    -0.242 NA
BRANCH  13  14
ATOM     14  C   UNL d   1      14.364  12.921  -2.455  0.00  0.00     0.099 C 
BRANCH  14  15
ATOM     15  C   UNL d   1      14.483  12.691  -1.651  0.00  0.00     0.019 A 
ATOM     16  C   UNL d   1      14.138  12.012  -1.381  0.00  0.00     0.002 A 
ATOM     17  C   UNL d   1      14.254  11.787  -0.595  0.00  0.00     0.000 A 
ATOM     18  C   UNL d   1      14.712  12.245  -0.097  0.00  0.00     0.000 A 
ATOM     19  C   UNL d   1      15.063  12.941  -0.383  0.00  0.00     0.000 A 
ATOM     20  C   UNL d   1      14.945  13.164  -1.170  0.00  0.00     0.002 A 
ENDBRANCH  14  15
ENDBRANCH  13  14
ENDBRANCH   2  13
TORSDOF 3
ENDMDL
MODEL 3
REMARK VINA RESULT:      28.6      1.919      4.021
REMARK  3 active torsions:
REMARK  status: ('A' for Active; 'I' for Inactive)
REMARK    1  A    between atoms: N_7  and  C_2 
REMARK    2  A    between atoms: C_10  and  N_7 
REMARK    3  A    between atoms: C_12  and  C_10 
ROOT
ATOM      1  C   UNL d   1      14.682  14.356  -1.993  0.00  0.00     0.184 A 
ATOM      2  C   UNL d   1      14.530  13.573  -2.064  0.00  0.00     0.108 A 
ATOM      3  C   UNL d   1      14.902  14.677  -1.243  0.00  0.00     0.321 A 
ATOM      4  O   UNL d   1      14.960  14.200  -0.597  0.00  0.00    -0.272 OA
ATOM      5  C   UNL d   1      14.588  13.077  -1.404  0.00  0.00     0.042 A 
ATOM      6  C   UNL d   1      14.805  13.393  -0.665  0.00  0.00     0.105 A 
ATOM      7  O   UNL d   1      15.062  15.500  -1.162  0.00  0.00    -0.257 OA
ATOM      8  N   UNL d   1      14.617  14.851  -2.679  0.00  0.00    -0.141 N 
ATOM      9  C   UNL d   1      14.433  12.279  -1.482  0.00  0.00     0.004 A 
ATOM     10  C   UNL d   1      14.863  12.906  -0.015  0.00  0.00     0.025 A 
ATOM     11  C   UNL d   1      14.488  11.779  -0.834  0.00  0.00     0.000 A 
ATOM     12  C   UNL d   1      14.708  12.100  -0.084  0.00  0.00     0.002 A 
ENDROOT
BRANCH   2  13
ATOM     13  N   UNL d   1      14.315  13.259  -2.797  0.00  0.00    -0.242 NA
BRANCH  13  14
ATOM     14  C   UNL d   1      13.523  13.152  -2.951  0.00  0.00     0.099 C 
BRANCH  14  15
ATOM     15  C   UNL d   1      13.302  12.853  -3.710  0.00  0.00     0.019 A 
ATOM     16  C   UNL d   1      13.054  12.087  -3.774  0.00  0.00     0.002 A 
ATOM     17  C   UNL d   1      12.838  11.795  -4.515  0.00  0.00     0.000 A 
ATOM     18  C   UNL d   1      12.874  12.275  -5.175  0.00  0.00     0.000 A 
ATOM     19  C   UNL d   1      13.130  13.061  -5.100  0.00  0.00     0.000 A 
ATOM     20  C   UNL d   1      13.346  13.351  -4.357  0.00  0.00     0.002 A 
ENDBRANCH  14  15
ENDBRANCH  13  14
ENDBRANCH   2  13
TORSDOF 3
ENDMDL
