MODEL 1
REMARK VINA RESULT:      -5.3      0.000      0.000
REMARK  7 active torsions:
REMARK  status: ('A' for Active; 'I' for Inactive)
REMARK    1  A    between atoms: C_2  and  S_1 
REMARK    2  A    between atoms: N_3  and  S_1 
REMARK    3  A    between atoms: C_15  and  N_3 
REMARK    4  A    between atoms: C_4  and  C_9 
REMARK       I    between atoms: N_5  and  C_4 
REMARK    5  A    between atoms: C_16  and  N_5 
REMARK    6  A    between atoms: C_18  and  C_15 
REMARK    7  A    between atoms: C_17  and  C_16 
ROOT
ATOM      1  C   UNL d   1     -42.382  13.485  21.181  0.00  0.00     0.058 A 
ATOM      2  C   UNL d   1     -42.575  12.679  21.304  0.00  0.00     0.005 A 
ATOM      3  C   UNL d   1     -42.963  14.060  21.284  0.00  0.00     0.005 A 
ATOM      4  C   UNL d   1     -43.913  13.048  21.625  0.00  0.00     0.020 A 
ATOM      5  C   UNL d   1     -43.335  12.472  21.523  0.00  0.00     0.002 A 
ATOM      6  C   UNL d   1     -43.728  13.846  21.506  0.00  0.00     0.002 A 
ENDROOT
BRANCH   4   7
ATOM      7  C   UNL d   1     -44.685  12.830  21.849  0.00  0.00     0.112 C 
BRANCH   7   8
ATOM      8  N   UNL d   1     -45.160  13.358  22.273  0.00  0.00    -0.157 NA
BRANCH   8   9
ATOM      9  S   UNL d   1     -45.900  13.112  22.566  0.00  0.00     0.285 S 
ATOM     10  O   UNL d   1     -46.155  12.954  21.788  0.00  0.00    -0.198 OA
ATOM     11  O   UNL d   1     -45.638  13.273  23.338  0.00  0.00    -0.198 OA
BRANCH   9  12
ATOM     12  C   UNL d   1     -46.636  12.868  22.863  0.00  0.00     0.106 A 
ATOM     13  C   UNL d   1     -47.312  13.312  22.718  0.00  0.00     0.024 A 
ATOM     14  C   UNL d   1     -48.042  13.067  23.014  0.00  0.00     0.059 A 
ATOM     15 CL   UNL d   1     -48.725  13.521  22.865  0.00  0.00    -0.082 Cl
ATOM     16  C   UNL d   1     -48.095  12.376  23.455  0.00  0.00     0.011 A 
ATOM     17  C   UNL d   1     -47.418  11.932  23.600  0.00  0.00     0.002 A 
ATOM     18  C   UNL d   1     -46.689  12.177  23.304  0.00  0.00     0.013 A 
ENDBRANCH   9  12
ENDBRANCH   8   9
ENDBRANCH   7   8
ENDBRANCH   4   7
BRANCH   1  19
ATOM     19  C   UNL d   1     -41.611  13.707  20.958  0.00  0.00     0.279 C 
ATOM     20  N   UNL d   1     -41.471  13.992  20.199  0.00  0.00    -0.205 NA
ATOM     21  O   UNL d   1     -40.981  13.640  21.501  0.00  0.00    -0.265 OA
BRANCH  20  22
ATOM     22  C   UNL d   1     -40.704  14.213  19.972  0.00  0.00     0.121 C 
BRANCH  22  23
ATOM     23  C   UNL d   1     -40.576  14.508  19.210  0.00  0.00     0.101 A 
ATOM     24  N   UNL d   1     -40.534  13.982  18.576  0.00  0.00    -0.242 NA
ATOM     25  C   UNL d   1     -40.406  14.282  17.820  0.00  0.00     0.099 A 
ATOM     26  C   UNL d   1     -40.322  15.090  17.694  0.00  0.00     0.021 A 
ATOM     27  C   UNL d   1     -40.367  15.610  18.342  0.00  0.00     0.003 A 
ATOM     28  C   UNL d   1     -40.495  15.312  19.101  0.00  0.00     0.021 A 
ENDBRANCH  22  23
ENDBRANCH  20  22
ENDBRANCH   1  19
TORSDOF 7
ENDMDL
MODEL 2
REMARK VINA RESULT:      -5.3      1.531      2.463
REMARK  7 active torsions:
REMARK  status: ('A' for Active; 'I' for Inactive)
REMARK    1  A    between atoms: C_2  and  S_1 
REMARK    2  A    between atoms: N_3  and  S_1 
REMARK    3  A    between atoms: C_15  and  N_3 
REMARK    4  A    between atoms: C_4  and  C_9 
REMARK       I    between atoms: N_5  and  C_4 
REMARK    5  A    between atoms: C_16  and  N_5 
REMARK    6  A    between atoms: C_18  and  C_15 
REMARK    7  A    between atoms: C_17  and  C_16 
ROOT
ATOM      1  C   UNL d   1     -44.285  12.698  22.048  0.00  0.00     0.058 A 
ATOM      2  C   UNL d   1     -44.688  13.376  21.765  0.00  0.00     0.005 A 
ATOM      3  C   UNL d   1     -44.676  12.178  22.556  0.00  0.00     0.005 A 
ATOM      4  C   UNL d   1     -45.847  12.995  22.500  0.00  0.00     0.020 A 
ATOM      5  C   UNL d   1     -45.461  13.515  21.994  0.00  0.00     0.002 A 
ATOM      6  C   UNL d   1     -45.455  12.323  22.783  0.00  0.00     0.002 A 
ENDROOT
BRANCH   4   7
ATOM      7  C   UNL d   1     -46.635  13.142  22.729  0.00  0.00     0.112 C 
BRANCH   7   8
ATOM      8  N   UNL d   1     -47.244  13.103  22.172  0.00  0.00    -0.157 NA
BRANCH   8   9
ATOM      9  S   UNL d   1     -48.038  13.059  22.423  0.00  0.00     0.285 S 
ATOM     10  O   UNL d   1     -47.867  13.578  23.051  0.00  0.00    -0.198 OA
ATOM     11  O   UNL d   1     -48.199  12.541  21.793  0.00  0.00    -0.198 OA
BRANCH   9  12
ATOM     12  C   UNL d   1     -48.829  13.012  22.669  0.00  0.00     0.106 A 
ATOM     13  C   UNL d   1     -49.108  12.340  23.052  0.00  0.00     0.024 A 
ATOM     14  C   UNL d   1     -49.895  12.297  23.295  0.00  0.00     0.059 A 
ATOM     15 CL   UNL d   1     -50.173  11.613  23.683  0.00  0.00    -0.082 Cl
ATOM     16  C   UNL d   1     -50.403  12.927  23.155  0.00  0.00     0.011 A 
ATOM     17  C   UNL d   1     -50.124  13.599  22.772  0.00  0.00     0.002 A 
ATOM     18  C   UNL d   1     -49.337  13.641  22.529  0.00  0.00     0.013 A 
ENDBRANCH   9  12
ENDBRANCH   8   9
ENDBRANCH   7   8
ENDBRANCH   4   7
BRANCH   1  19
ATOM     19  C   UNL d   1     -43.498  12.547  21.821  0.00  0.00     0.279 C 
ATOM     20  N   UNL d   1     -43.057  13.137  21.457  0.00  0.00    -0.205 NA
ATOM     21  O   UNL d   1     -43.157  11.799  21.964  0.00  0.00    -0.265 OA
BRANCH  20  22
ATOM     22  C   UNL d   1     -42.273  12.992  21.229  0.00  0.00     0.121 C 
BRANCH  22  23
ATOM     23  C   UNL d   1     -41.830  13.601  20.887  0.00  0.00     0.101 A 
ATOM     24  N   UNL d   1     -41.723  13.612  20.070  0.00  0.00    -0.242 NA
ATOM     25  C   UNL d   1     -41.280  14.221  19.736  0.00  0.00     0.099 A 
ATOM     26  C   UNL d   1     -40.949  14.810  20.205  0.00  0.00     0.021 A 
ATOM     27  C   UNL d   1     -41.065  14.787  21.028  0.00  0.00     0.003 A 
ATOM     28  C   UNL d   1     -41.508  14.177  21.366  0.00  0.00     0.021 A 
ENDBRANCH  22  23
ENDBRANCH  20  22
ENDBRANCH   1  19
TORSDOF 7
ENDMDL
MODEL 3
REMARK VINA RESULT:      -5.2      1.601      2.475
REMARK  7 active torsions:
REMARK  status: ('A' for Active; 'I' for Inactive)
REMARK    1  A    between atoms: C_2  and  S_1 
REMARK    2  A    between atoms: N_3  and  S_1 
REMARK    3  A    between atoms: C_15  and  N_3 
REMARK    4  A    between atoms: C_4  and  C_9 
REMARK       I    between atoms: N_5  and  C_4 
REMARK    5  A    between atoms: C_16  and  N_5 
REMARK    6  A    between atoms: C_18  and  C_15 
REMARK    7  A    between atoms: C_17  and  C_16 
ROOT
ATOM      1  C   UNL d   1     -44.395  12.766  22.072  0.00  0.00     0.058 A 
ATOM      2  C   UNL d   1     -44.838  12.255  22.568  0.00  0.00     0.005 A 
ATOM      3  C   UNL d   1     -44.729  13.477  21.823  0.00  0.00     0.005 A 
ATOM      4  C   UNL d   1     -45.924  13.176  22.547  0.00  0.00     0.020 A 
ATOM      5  C   UNL d   1     -45.593  12.467  22.798  0.00  0.00     0.002 A 
ATOM      6  C   UNL d   1     -45.492  13.685  22.057  0.00  0.00     0.002 A 
ENDROOT
BRANCH   4   7
ATOM      7  C   UNL d   1     -46.695  13.385  22.785  0.00  0.00     0.112 C 
BRANCH   7   8
ATOM      8  N   UNL d   1     -47.350  13.097  22.372  0.00  0.00    -0.157 NA
BRANCH   8   9
ATOM      9  S   UNL d   1     -48.112  13.388  22.541  0.00  0.00     0.285 S 
ATOM     10  O   UNL d   1     -48.241  13.521  21.729  0.00  0.00    -0.198 OA
ATOM     11  O   UNL d   1     -47.975  13.252  23.350  0.00  0.00    -0.198 OA
BRANCH   9  12
ATOM     12  C   UNL d   1     -48.871  13.677  22.715  0.00  0.00     0.106 A 
ATOM     13  C   UNL d   1     -48.993  14.480  22.842  0.00  0.00     0.024 A 
ATOM     14  C   UNL d   1     -49.748  14.763  23.014  0.00  0.00     0.059 A 
ATOM     15 CL   UNL d   1     -49.867  15.578  23.142  0.00  0.00    -0.082 Cl
ATOM     16  C   UNL d   1     -50.381  14.242  23.059  0.00  0.00     0.011 A 
ATOM     17  C   UNL d   1     -50.260  13.439  22.931  0.00  0.00     0.002 A 
ATOM     18  C   UNL d   1     -49.505  13.156  22.760  0.00  0.00     0.013 A 
ENDBRANCH   9  12
ENDBRANCH   8   9
ENDBRANCH   7   8
ENDBRANCH   4   7
BRANCH   1  19
ATOM     19  C   UNL d   1     -43.624  12.560  21.833  0.00  0.00     0.279 C 
ATOM     20  N   UNL d   1     -43.145  13.122  21.470  0.00  0.00    -0.205 NA
ATOM     21  O   UNL d   1     -43.338  11.787  21.960  0.00  0.00    -0.265 OA
BRANCH  20  22
ATOM     22  C   UNL d   1     -42.377  12.921  21.230  0.00  0.00     0.121 C 
BRANCH  22  23
ATOM     23  C   UNL d   1     -41.887  13.505  20.907  0.00  0.00     0.101 A 
ATOM     24  N   UNL d   1     -41.819  13.566  20.087  0.00  0.00    -0.242 NA
ATOM     25  C   UNL d   1     -41.330  14.149  19.773  0.00  0.00     0.099 A 
ATOM     26  C   UNL d   1     -40.915  14.664  20.263  0.00  0.00     0.021 A 
ATOM     27  C   UNL d   1     -40.993  14.591  21.087  0.00  0.00     0.003 A 
ATOM     28  C   UNL d   1     -41.483  14.007  21.406  0.00  0.00     0.021 A 
ENDBRANCH  22  23
ENDBRANCH  20  22
ENDBRANCH   1  19
TORSDOF 7
ENDMDL
MODEL 4
REMARK VINA RESULT:      -4.4      2.308      6.509
REMARK  7 active torsions:
REMARK  status: ('A' for Active; 'I' for Inactive)
REMARK    1  A    between atoms: C_2  and  S_1 
REMARK    2  A    between atoms: N_3  and  S_1 
REMARK    3  A    between atoms: C_15  and  N_3 
REMARK    4  A    between atoms: C_4  and  C_9 
REMARK       I    between atoms: N_5  and  C_4 
REMARK    5  A    between atoms: C_16  and  N_5 
REMARK    6  A    between atoms: C_18  and  C_15 
REMARK    7  A    between atoms: C_17  and  C_16 
ROOT
ATOM      1  C   UNL d   1     -45.087  12.763  22.342  0.00  0.00     0.058 A 
ATOM      2  C   UNL d   1     -44.474  12.193  22.396  0.00  0.00     0.005 A 
ATOM      3  C   UNL d   1     -44.958  13.455  21.913  0.00  0.00     0.005 A 
ATOM      4  C   UNL d   1     -43.633  13.020  21.598  0.00  0.00     0.020 A 
ATOM      5  C   UNL d   1     -43.759  12.329  22.024  0.00  0.00     0.002 A 
ATOM      6  C   UNL d   1     -44.234  13.587  21.541  0.00  0.00     0.002 A 
ENDROOT
BRANCH   4   7
ATOM      7  C   UNL d   1     -42.902  13.153  21.222  0.00  0.00     0.112 C 
BRANCH   7   8
ATOM      8  N   UNL d   1     -42.402  13.756  21.485  0.00  0.00    -0.157 NA
BRANCH   8   9
ATOM      9  S   UNL d   1     -41.714  13.947  21.055  0.00  0.00     0.285 S 
ATOM     10  O   UNL d   1     -41.510  13.139  21.025  0.00  0.00    -0.198 OA
ATOM     11  O   UNL d   1     -41.925  14.750  21.089  0.00  0.00    -0.198 OA
BRANCH   9  12
ATOM     12  C   UNL d   1     -41.029  14.141  20.627  0.00  0.00     0.106 A 
ATOM     13  C   UNL d   1     -41.052  14.199  19.807  0.00  0.00     0.024 A 
ATOM     14  C   UNL d   1     -40.370  14.392  19.386  0.00  0.00     0.059 A 
ATOM     15 CL   UNL d   1     -40.398  14.450  18.554  0.00  0.00    -0.082 Cl
ATOM     16  C   UNL d   1     -39.665  14.527  19.784  0.00  0.00     0.011 A 
ATOM     17  C   UNL d   1     -39.642  14.468  20.604  0.00  0.00     0.002 A 
ATOM     18  C   UNL d   1     -40.324  14.276  21.025  0.00  0.00     0.013 A 
ENDBRANCH   9  12
ENDBRANCH   8   9
ENDBRANCH   7   8
ENDBRANCH   4   7
BRANCH   1  19
ATOM     19  C   UNL d   1     -45.820  12.634  22.716  0.00  0.00     0.279 C 
ATOM     20  N   UNL d   1     -46.510  12.919  22.373  0.00  0.00    -0.205 NA
ATOM     21  O   UNL d   1     -45.853  12.218  23.438  0.00  0.00    -0.265 OA
BRANCH  20  22
ATOM     22  C   UNL d   1     -47.242  12.793  22.742  0.00  0.00     0.121 C 
BRANCH  22  23
ATOM     23  C   UNL d   1     -47.934  13.059  22.373  0.00  0.00     0.101 A 
ATOM     24  N   UNL d   1     -48.277  12.599  21.781  0.00  0.00    -0.242 NA
ATOM     25  C   UNL d   1     -48.965  12.869  21.418  0.00  0.00     0.099 A 
ATOM     26  C   UNL d   1     -49.307  13.583  21.639  0.00  0.00     0.021 A 
ATOM     27  C   UNL d   1     -48.951  14.038  22.238  0.00  0.00     0.003 A 
ATOM     28  C   UNL d   1     -48.261  13.769  22.603  0.00  0.00     0.021 A 
ENDBRANCH  22  23
ENDBRANCH  20  22
ENDBRANCH   1  19
TORSDOF 7
ENDMDL
