MODEL 1
REMARK VINA RESULT:     105.0      0.000      0.000
REMARK  8 active torsions:
REMARK  status: ('A' for Active; 'I' for Inactive)
REMARK    1  A    between atoms: N_7  and  N_1 
REMARK    2  A    between atoms: S_9  and  C_2 
REMARK       I    between atoms: C_8  and  N_7 
REMARK    3  A    between atoms: C_16  and  C_8 
REMARK    4  A    between atoms: C_15  and  S_9 
REMARK    5  A    between atoms: C_10  and  C_15 
REMARK       I    between atoms: N_12  and  C_10 
REMARK    6  A    between atoms: C_17  and  N_12 
REMARK    7  A    between atoms: C_19  and  C_16 
REMARK    8  A    between atoms: C_20  and  C_17 
ROOT
ATOM      1  N   UNL d   1      61.092  47.706  50.643  0.00  0.00    -0.168 N 
ATOM      2  C   UNL d   1      61.092  48.442  50.307  0.00  0.00     0.199 A 
ATOM      3  C   UNL d   1      61.250  47.617  51.450  0.00  0.00     0.283 A 
ATOM      4  N   UNL d   1      61.253  49.125  50.769  0.00  0.00    -0.221 NA
ATOM      5  C   UNL d   1      61.411  48.295  51.916  0.00  0.00     0.076 A 
ATOM      6  C   UNL d   1      61.412  49.046  51.574  0.00  0.00     0.088 A 
ATOM      7  O   UNL d   1      61.251  46.869  51.798  0.00  0.00    -0.265 OA
ATOM      8  C   UNL d   1      61.569  48.200  52.725  0.00  0.00     0.006 A 
ATOM      9  C   UNL d   1      61.570  49.702  52.036  0.00  0.00     0.019 A 
ATOM     10  C   UNL d   1      61.727  48.871  53.180  0.00  0.00     0.000 A 
ATOM     11  C   UNL d   1      61.728  49.622  52.838  0.00  0.00     0.002 A 
ENDROOT
BRANCH   2  12
ATOM     12  S   UNL d   1      60.936  48.529  49.513  0.00  0.00    -0.043 SA
BRANCH  12  13
ATOM     13  C   UNL d   1      60.159  48.600  49.249  0.00  0.00     0.101 C 
BRANCH  13  14
ATOM     14  C   UNL d   1      59.660  49.152  49.588  0.00  0.00     0.286 C 
ATOM     15  N   UNL d   1      58.860  49.154  49.402  0.00  0.00    -0.206 NA
ATOM     16  O   UNL d   1      59.960  49.707  50.119  0.00  0.00    -0.265 OA
BRANCH  15  17
ATOM     17  C   UNL d   1      58.361  49.706  49.742  0.00  0.00     0.102 C 
BRANCH  17  18
ATOM     18  C   UNL d   1      57.589  49.502  49.931  0.00  0.00     0.019 A 
ATOM     19  C   UNL d   1      57.289  49.658  50.684  0.00  0.00     0.002 A 
ATOM     20  C   UNL d   1      56.518  49.453  50.874  0.00  0.00     0.000 A 
ATOM     21  C   UNL d   1      56.039  49.090  50.310  0.00  0.00     0.000 A 
ATOM     22  C   UNL d   1      56.340  48.934  49.556  0.00  0.00     0.000 A 
ATOM     23  C   UNL d   1      57.110  49.139  49.368  0.00  0.00     0.002 A 
ENDBRANCH  17  18
ENDBRANCH  15  17
ENDBRANCH  13  14
ENDBRANCH  12  13
ENDBRANCH   2  12
BRANCH   1  24
ATOM     24  N   UNL d   1      60.935  47.044  50.190  0.00  0.00    -0.119 NA
ATOM     25  C   UNL d   1      61.548  46.655  49.817  0.00  0.00     0.296 C 
ATOM     26  O   UNL d   1      62.325  46.921  49.892  0.00  0.00    -0.264 OA
BRANCH  25  27
ATOM     27  C   UNL d   1      61.387  45.985  49.358  0.00  0.00     0.064 C 
BRANCH  27  28
ATOM     28  C   UNL d   1      61.532  45.247  49.661  0.00  0.00     0.005 A 
ATOM     29  C   UNL d   1      60.899  44.782  49.915  0.00  0.00     0.000 A 
ATOM     30  C   UNL d   1      61.047  44.031  50.224  0.00  0.00     0.000 A 
ATOM     31  C   UNL d   1      61.808  43.752  50.277  0.00  0.00     0.000 A 
ATOM     32  C   UNL d   1      62.438  44.227  50.019  0.00  0.00     0.000 A 
ATOM     33  C   UNL d   1      62.293  44.968  49.715  0.00  0.00     0.000 A 
ENDBRANCH  27  28
ENDBRANCH  25  27
ENDBRANCH   1  24
TORSDOF 8
ENDMDL
MODEL 2
REMARK VINA RESULT:     107.0      1.258      4.758
REMARK  8 active torsions:
REMARK  status: ('A' for Active; 'I' for Inactive)
REMARK    1  A    between atoms: N_7  and  N_1 
REMARK    2  A    between atoms: S_9  and  C_2 
REMARK       I    between atoms: C_8  and  N_7 
REMARK    3  A    between atoms: C_16  and  C_8 
REMARK    4  A    between atoms: C_15  and  S_9 
REMARK    5  A    between atoms: C_10  and  C_15 
REMARK       I    between atoms: N_12  and  C_10 
REMARK    6  A    between atoms: C_17  and  N_12 
REMARK    7  A    between atoms: C_19  and  C_16 
REMARK    8  A    between atoms: C_20  and  C_17 
ROOT
ATOM      1  N   UNL d   1      59.376  49.704  51.345  0.00  0.00    -0.168 N 
ATOM      2  C   UNL d   1      59.626  49.705  50.575  0.00  0.00     0.199 A 
ATOM      3  C   UNL d   1      58.567  49.703  51.519  0.00  0.00     0.283 A 
ATOM      4  N   UNL d   1      59.072  49.705  49.943  0.00  0.00    -0.221 NA
ATOM      5  C   UNL d   1      58.010  49.703  50.893  0.00  0.00     0.076 A 
ATOM      6  C   UNL d   1      58.264  49.704  50.108  0.00  0.00     0.088 A 
ATOM      7  O   UNL d   1      58.307  49.701  52.302  0.00  0.00    -0.265 OA
ATOM      8  C   UNL d   1      57.200  49.702  51.074  0.00  0.00     0.006 A 
ATOM      9  C   UNL d   1      57.713  49.704  49.503  0.00  0.00     0.019 A 
ATOM     10  C   UNL d   1      56.654  49.702  50.454  0.00  0.00     0.000 A 
ATOM     11  C   UNL d   1      56.909  49.704  49.669  0.00  0.00     0.002 A 
ENDROOT
BRANCH   2  12
ATOM     12  S   UNL d   1      60.422  49.706  50.403  0.00  0.00    -0.043 SA
BRANCH  12  13
ATOM     13  C   UNL d   1      60.724  49.183  49.842  0.00  0.00     0.101 C 
BRANCH  13  14
ATOM     14  C   UNL d   1      60.690  48.377  49.974  0.00  0.00     0.286 C 
ATOM     15  N   UNL d   1      61.266  48.009  50.428  0.00  0.00    -0.206 NA
ATOM     16  O   UNL d   1      60.076  47.932  49.649  0.00  0.00    -0.265 OA
BRANCH  15  17
ATOM     17  C   UNL d   1      61.232  47.202  50.560  0.00  0.00     0.102 C 
BRANCH  17  18
ATOM     18  C   UNL d   1      61.495  46.679  49.985  0.00  0.00     0.019 A 
ATOM     19  C   UNL d   1      62.244  46.770  49.650  0.00  0.00     0.002 A 
ATOM     20  C   UNL d   1      62.508  46.248  49.075  0.00  0.00     0.000 A 
ATOM     21  C   UNL d   1      62.023  45.629  48.829  0.00  0.00     0.000 A 
ATOM     22  C   UNL d   1      61.272  45.539  49.165  0.00  0.00     0.000 A 
ATOM     23  C   UNL d   1      61.010  46.060  49.739  0.00  0.00     0.002 A 
ENDBRANCH  17  18
ENDBRANCH  15  17
ENDBRANCH  13  14
ENDBRANCH  12  13
ENDBRANCH   2  12
BRANCH   1  24
ATOM     24  N   UNL d   1      59.918  49.703  51.956  0.00  0.00    -0.119 NA
ATOM     25  C   UNL d   1      59.656  49.704  52.729  0.00  0.00     0.296 C 
ATOM     26  O   UNL d   1      58.849  49.704  52.901  0.00  0.00    -0.264 OA
BRANCH  25  27
ATOM     27  C   UNL d   1      60.208  49.703  53.346  0.00  0.00     0.064 C 
BRANCH  27  28
ATOM     28  C   UNL d   1      61.000  49.656  53.177  0.00  0.00     0.005 A 
ATOM     29  C   UNL d   1      61.539  49.555  53.792  0.00  0.00     0.000 A 
ATOM     30  C   UNL d   1      62.345  49.507  53.621  0.00  0.00     0.000 A 
ATOM     31  C   UNL d   1      62.604  49.559  52.852  0.00  0.00     0.000 A 
ATOM     32  C   UNL d   1      62.054  49.661  52.239  0.00  0.00     0.000 A 
ATOM     33  C   UNL d   1      61.259  49.708  52.409  0.00  0.00     0.000 A 
ENDBRANCH  27  28
ENDBRANCH  25  27
ENDBRANCH   1  24
TORSDOF 8
ENDMDL
