MODEL 1
REMARK VINA RESULT:     178.7      0.000      0.000
REMARK  4 active torsions:
REMARK  status: ('A' for Active; 'I' for Inactive)
REMARK    1  A    between atoms: N_5  and  S_1 
REMARK    2  A    between atoms: C_8  and  S_1 
REMARK    3  A    between atoms: C_2  and  C_11 
REMARK       I    between atoms: C_12  and  N_13 
REMARK    4  A    between atoms: N_13  and  C_21 
ROOT
ATOM      1  N   UNL d   1     -55.836-101.424 -41.283  0.00  0.00    -0.229 N 
ATOM      2  C   UNL d   1     -56.170-101.152 -43.054  0.00  0.00     0.039 A 
ATOM      3  C   UNL d   1     -55.420-100.740 -41.729  0.00  0.00     0.092 A 
ATOM      4  C   UNL d   1     -56.418-101.970 -41.724  0.00  0.00     0.092 A 
ATOM      5  C   UNL d   1     -56.587-101.834 -42.616  0.00  0.00     0.023 A 
ATOM      6  C   UNL d   1     -55.588-100.606 -42.612  0.00  0.00     0.023 A 
ENDROOT
BRANCH   1   7
ATOM      7  S   UNL d   1     -55.682-101.545 -40.479  0.00  0.00     0.271 S 
ATOM      8  O   UNL d   1     -54.940-101.863 -40.664  0.00  0.00    -0.200 OA
ATOM      9  O   UNL d   1     -56.425-101.226 -40.297  0.00  0.00    -0.200 OA
BRANCH   7  10
ATOM     10  C   UNL d   1     -55.543-101.659 -39.673  0.00  0.00     0.104 A 
ATOM     11  C   UNL d   1     -54.849-101.415 -39.327  0.00  0.00     0.015 A 
ATOM     12  C   UNL d   1     -54.711-101.529 -38.526  0.00  0.00     0.033 A 
ATOM     13  C   UNL d   1     -55.297-101.903 -38.061  0.00  0.00     0.135 A 
ATOM     14  C   UNL d   1     -56.008-102.156 -38.406  0.00  0.00     0.033 A 
ATOM     15  C   UNL d   1     -56.130-102.033 -39.216  0.00  0.00     0.015 A 
BRANCH  13  16
ATOM     16  N   UNL d   1     -55.169-102.023 -37.256  0.00  0.00    -0.365 NA
ATOM     17  C   UNL d   1     -55.041-102.136 -36.444  0.00  0.00     0.328 C 
ATOM     18  O   UNL d   1     -55.137-101.332 -36.307  0.00  0.00    -0.251 OA
ATOM     19  C   UNL d   1     -54.912-102.262 -35.644  0.00  0.00     0.082 C 
ENDBRANCH  13  16
ENDBRANCH   7  10
ENDBRANCH   1   7
BRANCH   2  20
ATOM     20  C   UNL d   1     -56.339-101.016 -43.944  0.00  0.00     0.163 A 
ATOM     21  N   UNL d   1     -56.219-100.366 -44.314  0.00  0.00    -0.225 NA
ATOM     22  C   UNL d   1     -56.424-100.471 -45.035  0.00  0.00     0.101 A 
ATOM     23  C   UNL d   1     -56.412 -99.991 -45.629  0.00  0.00     0.021 A 
ATOM     24  C   UNL d   1     -56.670-101.181 -45.111  0.00  0.00     0.101 A 
ATOM     25  C   UNL d   1     -56.655-100.247 -46.302  0.00  0.00     0.002 A 
ATOM     26  C   UNL d   1     -56.903-100.960 -46.382  0.00  0.00     0.002 A 
ATOM     27  C   UNL d   1     -56.908-101.417 -45.791  0.00  0.00     0.021 A 
ATOM     28  N   UNL d   1     -56.618-101.520 -44.437  0.00  0.00    -0.225 NA
ENDBRANCH   2  20
TORSDOF 4
ENDMDL
