MODEL 1
REMARK VINA RESULT:       1.6      0.000      0.000
REMARK  6 active torsions:
REMARK  status: ('A' for Active; 'I' for Inactive)
REMARK    1  A    between atoms: N_3  and  S_1 
REMARK    2  A    between atoms: C_5  and  S_1 
REMARK    3  A    between atoms: S_2  and  N_4 
REMARK    4  A    between atoms: C_6  and  S_2 
REMARK    5  A    between atoms: O_25  and  C_15 
REMARK    6  A    between atoms: O_26  and  C_16 
ROOT
ATOM      1  N   UNL d   1      31.960  18.468 -23.031  0.00  0.00    -0.228 N 
ATOM      2  N   UNL d   1      32.372  19.874 -22.269  0.00  0.00    -0.226 N 
ATOM      3  C   UNL d   1      32.702  18.547 -22.667  0.00  0.00     0.093 A 
ATOM      4  C   UNL d   1      32.907  19.242 -22.290  0.00  0.00     0.110 A 
ATOM      5  C   UNL d   1      31.427  19.095 -23.011  0.00  0.00     0.111 A 
ATOM      6  C   UNL d   1      31.632  19.803 -22.628  0.00  0.00     0.111 A 
ATOM      7  C   UNL d   1      33.239  17.914 -22.688  0.00  0.00     0.021 C 
ENDROOT
BRANCH   1   8
ATOM      8  S   UNL d   1      31.763  17.769 -23.406  0.00  0.00     0.273 S 
ATOM      9  O   UNL d   1      31.979  17.047 -23.083  0.00  0.00    -0.200 OA
ATOM     10  O   UNL d   1      31.341  17.789 -24.120  0.00  0.00    -0.200 OA
BRANCH   8  11
ATOM     11  C   UNL d   1      31.553  17.078 -23.804  0.00  0.00     0.126 A 
ATOM     12  C   UNL d   1      30.763  16.835 -23.806  0.00  0.00     0.106 A 
ATOM     13  C   UNL d   1      30.542  16.152 -24.197  0.00  0.00     0.025 A 
ATOM     14  C   UNL d   1      31.116  15.689 -24.600  0.00  0.00     0.002 A 
ATOM     15  C   UNL d   1      31.906  15.936 -24.596  0.00  0.00     0.001 A 
ATOM     16  C   UNL d   1      32.122  16.627 -24.199  0.00  0.00     0.015 A 
ATOM     17  C   UNL d   1      32.474  15.492 -24.985  0.00  0.00     0.000 C 
BRANCH  12  18
ATOM     18  O   UNL d   1      30.196  17.279 -23.417  0.00  0.00    -0.327 OA
ATOM     19  C   UNL d   1      29.406  17.039 -23.439  0.00  0.00     0.181 C 
ENDBRANCH  12  18
ENDBRANCH   8  11
ENDBRANCH   1   8
BRANCH   2  20
ATOM     20  S   UNL d   1      32.579  20.576 -21.888  0.00  0.00     0.273 S 
ATOM     21  O   UNL d   1      32.128  20.850 -21.253  0.00  0.00    -0.200 OA
ATOM     22  O   UNL d   1      33.235  21.005 -22.139  0.00  0.00    -0.200 OA
BRANCH  20  23
ATOM     23  C   UNL d   1      32.764  21.274 -21.489  0.00  0.00     0.126 A 
ATOM     24  C   UNL d   1      33.039  21.240 -20.713  0.00  0.00     0.106 A 
ATOM     25  C   UNL d   1      33.220  21.934 -20.321  0.00  0.00     0.025 A 
ATOM     26  C   UNL d   1      33.130  22.661 -20.697  0.00  0.00     0.002 A 
ATOM     27  C   UNL d   1      32.855  22.689 -21.473  0.00  0.00     0.001 A 
ATOM     28  C   UNL d   1      32.671  21.988 -21.869  0.00  0.00     0.015 A 
ATOM     29  C   UNL d   1      32.761  23.417 -21.858  0.00  0.00     0.000 C 
BRANCH  24  30
ATOM     30  O   UNL d   1      33.129  20.520 -20.337  0.00  0.00    -0.327 OA
ATOM     31  C   UNL d   1      33.241  20.488 -19.524  0.00  0.00     0.181 C 
ENDBRANCH  24  30
ENDBRANCH  20  23
ENDBRANCH   2  20
TORSDOF 6
ENDMDL
MODEL 2
REMARK VINA RESULT:       2.8      1.792      5.723
REMARK  6 active torsions:
REMARK  status: ('A' for Active; 'I' for Inactive)
REMARK    1  A    between atoms: N_3  and  S_1 
REMARK    2  A    between atoms: C_5  and  S_1 
REMARK    3  A    between atoms: S_2  and  N_4 
REMARK    4  A    between atoms: C_6  and  S_2 
REMARK    5  A    between atoms: O_25  and  C_15 
REMARK    6  A    between atoms: O_26  and  C_16 
ROOT
ATOM      1  N   UNL d   1      32.668  21.129 -21.250  0.00  0.00    -0.228 N 
ATOM      2  N   UNL d   1      32.839  19.840 -22.267  0.00  0.00    -0.226 N 
ATOM      3  C   UNL d   1      32.997  21.231 -22.005  0.00  0.00     0.093 A 
ATOM      4  C   UNL d   1      33.082  20.594 -22.510  0.00  0.00     0.110 A 
ATOM      5  C   UNL d   1      32.426  20.380 -21.007  0.00  0.00     0.111 A 
ATOM      6  C   UNL d   1      32.511  19.730 -21.518  0.00  0.00     0.111 A 
ATOM      7  C   UNL d   1      33.241  21.986 -22.248  0.00  0.00     0.021 C 
ENDROOT
BRANCH   1   8
ATOM      8  S   UNL d   1      32.587  21.772 -20.751  0.00  0.00     0.273 S 
ATOM      9  O   UNL d   1      32.029  22.352 -20.907  0.00  0.00    -0.200 OA
ATOM     10  O   UNL d   1      33.072  21.838 -20.081  0.00  0.00    -0.200 OA
BRANCH   8  11
ATOM     11  C   UNL d   1      32.524  22.410 -20.233  0.00  0.00     0.126 A 
ATOM     12  C   UNL d   1      32.066  23.063 -20.447  0.00  0.00     0.106 A 
ATOM     13  C   UNL d   1      31.996  23.702 -19.942  0.00  0.00     0.025 A 
ATOM     14  C   UNL d   1      32.389  23.701 -19.200  0.00  0.00     0.002 A 
ATOM     15  C   UNL d   1      32.847  23.044 -18.988  0.00  0.00     0.001 A 
ATOM     16  C   UNL d   1      32.913  22.403 -19.503  0.00  0.00     0.015 A 
ATOM     17  C   UNL d   1      33.234  23.033 -18.267  0.00  0.00     0.000 C 
BRANCH  12  18
ATOM     18  O   UNL d   1      31.679  23.075 -21.169  0.00  0.00    -0.327 OA
ATOM     19  C   UNL d   1      31.161  23.693 -21.342  0.00  0.00     0.181 C 
ENDBRANCH  12  18
ENDBRANCH   8  11
ENDBRANCH   1   8
BRANCH   2  20
ATOM     20  S   UNL d   1      32.925  19.196 -22.777  0.00  0.00     0.273 S 
ATOM     21  O   UNL d   1      33.103  19.322 -23.574  0.00  0.00    -0.200 OA
ATOM     22  O   UNL d   1      32.834  18.429 -22.494  0.00  0.00    -0.200 OA
BRANCH  20  23
ATOM     23  C   UNL d   1      33.017  18.572 -23.309  0.00  0.00     0.126 A 
ATOM     24  C   UNL d   1      33.063  18.727 -24.117  0.00  0.00     0.106 A 
ATOM     25  C   UNL d   1      33.153  18.106 -24.640  0.00  0.00     0.025 A 
ATOM     26  C   UNL d   1      33.198  17.332 -24.364  0.00  0.00     0.002 A 
ATOM     27  C   UNL d   1      33.151  17.183 -23.555  0.00  0.00     0.001 A 
ATOM     28  C   UNL d   1      33.060  17.810 -23.026  0.00  0.00     0.015 A 
ATOM     29  C   UNL d   1      33.195  16.406 -23.269  0.00  0.00     0.000 C 
BRANCH  24  30
ATOM     30  O   UNL d   1      33.019  19.496 -24.394  0.00  0.00    -0.327 OA
ATOM     31  C   UNL d   1      32.625  19.661 -25.094  0.00  0.00     0.181 C 
ENDBRANCH  24  30
ENDBRANCH  20  23
ENDBRANCH   2  20
TORSDOF 6
ENDMDL
