MODEL 1
REMARK VINA RESULT:       4.0      0.000      0.000
REMARK  7 active torsions:
REMARK  status: ('A' for Active; 'I' for Inactive)
REMARK    1  A    between atoms: N_3  and  S_1 
REMARK    2  A    between atoms: C_6  and  S_1 
REMARK    3  A    between atoms: N_2  and  C_5 
REMARK    4  A    between atoms: C_4  and  N_3 
REMARK    5  A    between atoms: C_5  and  C_4 
REMARK    6  A    between atoms: C_10  and  C_5 
REMARK    7  A    between atoms: O_26  and  C_20 
ROOT
ATOM      1  C   UNL d   1     -41.429-121.832 -51.353  0.00  0.00     0.084 C 
ENDROOT
BRANCH   1   2
ATOM      2  N   UNL d   1     -41.796-122.135 -50.679  0.00  0.00    -0.300 N 
ATOM      3  C   UNL d   1     -41.344-122.355 -50.036  0.00  0.00     0.100 A 
ATOM      4  C   UNL d   1     -41.711-122.659 -49.362  0.00  0.00     0.100 A 
ATOM      5  N   UNL d   1     -42.532-122.738 -49.341  0.00  0.00    -0.299 N 
ATOM      6  C   UNL d   1     -42.985-122.515 -49.993  0.00  0.00     0.100 A 
ATOM      7  C   UNL d   1     -42.899-123.043 -48.663  0.00  0.00     0.100 C 
ATOM      8  C   UNL d   1     -42.617-122.215 -50.658  0.00  0.00     0.100 A 
ENDBRANCH   1   2
BRANCH   1   9
ATOM      9  C   UNL d   1     -41.139-122.344 -51.931  0.00  0.00     0.130 C 
BRANCH   9  10
ATOM     10  N   UNL d   1     -41.567-122.468 -52.626  0.00  0.00    -0.155 NA
BRANCH  10  11
ATOM     11  S   UNL d   1     -41.429-123.143 -53.081  0.00  0.00     0.285 S 
ATOM     12  O   UNL d   1     -41.162-123.539 -52.405  0.00  0.00    -0.198 OA
ATOM     13  O   UNL d   1     -41.292-123.817 -53.535  0.00  0.00    -0.198 OA
BRANCH  11  14
ATOM     14  C   UNL d   1     -41.702-122.733 -53.758  0.00  0.00     0.105 A 
ATOM     15  C   UNL d   1     -42.499-122.620 -53.872  0.00  0.00     0.015 A 
ATOM     16  C   UNL d   1     -42.768-122.213 -54.547  0.00  0.00     0.025 A 
ATOM     17  C   UNL d   1     -42.223-121.926 -55.094  0.00  0.00     0.094 A 
ATOM     18  C   UNL d   1     -41.408-122.047 -54.968  0.00  0.00     0.025 A 
ATOM     19  C   UNL d   1     -41.157-122.446 -54.305  0.00  0.00     0.015 A 
BRANCH  17  20
ATOM     20  O   UNL d   1     -42.482-121.516 -55.773  0.00  0.00    -0.328 OA
ATOM     21  C   UNL d   1     -42.270-121.778 -56.524  0.00  0.00     0.181 C 
ENDBRANCH  17  20
ENDBRANCH  11  14
ENDBRANCH  10  11
ENDBRANCH   9  10
ENDBRANCH   1   9
BRANCH   1  22
ATOM     22  C   UNL d   1     -41.352-121.007 -51.450  0.00  0.00     0.018 A 
ATOM     23  C   UNL d   1     -41.419-120.508 -50.798  0.00  0.00     0.004 A 
ATOM     24  C   UNL d   1     -41.343-119.693 -50.893  0.00  0.00     0.030 A 
ATOM     25  C   UNL d   1     -41.200-119.377 -51.641  0.00  0.00     0.140 A 
ATOM     26  C   UNL d   1     -41.133-119.877 -52.295  0.00  0.00     0.030 A 
ATOM     27  F   UNL d   1     -41.124-118.562 -51.737  0.00  0.00    -0.204 F 
ATOM     28  C   UNL d   1     -41.209-120.692 -52.199  0.00  0.00     0.004 A 
ENDBRANCH   1  22
TORSDOF 7
ENDMDL
