MODEL 1
REMARK VINA RESULT:      25.3      0.000      0.000
REMARK  3 active torsions:
REMARK  status: ('A' for Active; 'I' for Inactive)
REMARK    1  A    between atoms: N_2  and  N_1 
REMARK    2  A    between atoms: C_3  and  N_1 
REMARK    3  A    between atoms: C_4  and  N_2 
ROOT
ATOM      1  N   UNL d   1     -51.531  25.602  33.306  0.00  0.00    -0.148 NA
ENDROOT
BRANCH   1   2
ATOM      2  N   UNL d   1     -50.965  25.615  33.897  0.00  0.00    -0.148 NA
BRANCH   2   3
ATOM      3  C   UNL d   1     -50.253  26.054  33.767  0.00  0.00     0.103 A 
ATOM      4  C   UNL d   1     -50.237  26.863  33.910  0.00  0.00     0.021 A 
ATOM      5  C   UNL d   1     -49.545  27.295  33.784  0.00  0.00     0.002 A 
ATOM      6  C   UNL d   1     -48.860  26.907  33.512  0.00  0.00     0.000 A 
ATOM      7  C   UNL d   1     -48.882  26.098  33.372  0.00  0.00     0.002 A 
ATOM      8  C   UNL d   1     -49.567  25.667  33.496  0.00  0.00     0.021 A 
ENDBRANCH   2   3
ENDBRANCH   1   2
BRANCH   1   9
ATOM      9  C   UNL d   1     -52.094  24.997  33.316  0.00  0.00     0.103 A 
ATOM     10  C   UNL d   1     -52.896  25.176  33.330  0.00  0.00     0.022 A 
ATOM     11  C   UNL d   1     -53.453  24.557  33.340  0.00  0.00     0.022 A 
ATOM     12  C   UNL d   1     -53.215  23.796  33.336  0.00  0.00     0.103 A 
ATOM     13  C   UNL d   1     -52.406  23.605  33.322  0.00  0.00     0.022 A 
ATOM     14  N   UNL d   1     -53.789  23.188  33.346  0.00  0.00    -0.148 N 
ATOM     15  C   UNL d   1     -51.847  24.205  33.311  0.00  0.00     0.022 A 
ENDBRANCH   1   9
TORSDOF 3
ENDMDL
