MODEL 1
REMARK VINA RESULT:      45.7      0.000      0.000
REMARK  7 active torsions:
REMARK  status: ('A' for Active; 'I' for Inactive)
REMARK    1  A    between atoms: C_4  and  C_10 
REMARK    2  A    between atoms: O_17  and  C_4 
REMARK    3  A    between atoms: O_19  and  C_5 
REMARK    4  A    between atoms: O_20  and  C_7 
REMARK    5  A    between atoms: C_12  and  C_8 
REMARK    6  A    between atoms: O_15  and  C_12 
REMARK    7  A    between atoms: C_16  and  O_15 
ROOT
ATOM      1  C   UNL d   1      13.832  12.972  -2.828  0.00  0.00     0.022 A 
ATOM      2  C   UNL d   1      14.320  13.373  -2.302  0.00  0.00     0.028 A 
ATOM      3  C   UNL d   1      13.614  12.177  -2.685  0.00  0.00     0.005 A 
ATOM      4  C   UNL d   1      14.590  12.979  -1.632  0.00  0.00     0.116 A 
ATOM      5  C   UNL d   1      13.886  11.789  -2.017  0.00  0.00     0.026 A 
ATOM      6  C   UNL d   1      14.373  12.185  -1.490  0.00  0.00     0.116 A 
ATOM      7  C   UNL d   1      13.564  13.365  -3.494  0.00  0.00     0.106 A 
ATOM      8  N   UNL d   1      13.076  12.965  -4.021  0.00  0.00    -0.242 NA
ATOM      9  C   UNL d   1      12.858  12.170  -3.878  0.00  0.00     0.099 A 
ATOM     10  C   UNL d   1      13.130  11.781  -3.209  0.00  0.00     0.021 A 
ENDROOT
BRANCH   7  11
ATOM     11  C   UNL d   1      13.781  14.161  -3.637  0.00  0.00     0.142 C 
BRANCH  11  12
ATOM     12  O   UNL d   1      13.766  14.463  -4.399  0.00  0.00    -0.304 OA
BRANCH  12  13
ATOM     13  C   UNL d   1      14.037  15.234  -4.549  0.00  0.00     0.100 A 
ATOM     14  C   UNL d   1      13.903  15.595  -5.279  0.00  0.00     0.025 A 
ATOM     15  C   UNL d   1      14.174  16.365  -5.429  0.00  0.00     0.007 A 
ATOM     16  C   UNL d   1      14.585  16.789  -4.853  0.00  0.00     0.063 A 
ATOM     17  C   UNL d   1      14.719  16.428  -4.124  0.00  0.00     0.007 A 
ATOM     18  C   UNL d   1      14.448  15.658  -3.973  0.00  0.00     0.025 A 
BRANCH  16  19
ATOM     19  C   UNL d   1      14.855  17.561  -5.009  0.00  0.00     0.296 C 
ATOM     20  O   UNL d   1      15.589  17.814  -4.747  0.00  0.00    -0.259 OA
BRANCH  19  21
ATOM     21  O   UNL d   1      14.377  18.092  -5.437  0.00  0.00    -0.296 OA
ATOM     22  C   UNL d   1      14.656  18.864  -5.618  0.00  0.00     0.185 C 
ENDBRANCH  19  21
ENDBRANCH  16  19
ENDBRANCH  12  13
ENDBRANCH  11  12
ENDBRANCH   7  11
BRANCH   4  23
ATOM     23  O   UNL d   1      15.086  13.380  -1.093  0.00  0.00    -0.326 OA
ATOM     24  C   UNL d   1      14.852  14.104  -0.785  0.00  0.00     0.181 C 
ENDBRANCH   4  23
BRANCH   6  25
ATOM     25  O   UNL d   1      14.649  11.782  -0.806  0.00  0.00    -0.326 OA
ATOM     26  C   UNL d   1      14.303  11.958  -0.077  0.00  0.00     0.181 C 
ENDBRANCH   6  25
TORSDOF 7
ENDMDL
