MODEL 1
REMARK VINA RESULT:      -7.6      0.000      0.000
REMARK  5 active torsions:
REMARK  status: ('A' for Active; 'I' for Inactive)
REMARK    1  A    between atoms: N_5  and  C_1 
REMARK       I    between atoms: C_9  and  N_5 
REMARK    2  A    between atoms: C_17  and  C_9 
REMARK    3  A    between atoms: C_12  and  C_10 
REMARK    4  A    between atoms: C_11  and  S_13 
REMARK    5  A    between atoms: S_13  and  C_17 
ROOT
ATOM      1  N   UNL d   1     -48.841  13.537  23.027  0.00  0.00    -0.148 NA
ATOM      2  N   UNL d   1     -48.113  13.158  22.950  0.00  0.00    -0.141 NA
ATOM      3  C   UNL d   1     -48.892  14.360  22.936  0.00  0.00     0.104 A 
ATOM      4  C   UNL d   1     -47.435  13.586  22.784  0.00  0.00     0.133 A 
ATOM      5  C   UNL d   1     -48.209  14.795  22.768  0.00  0.00     0.023 A 
ATOM      6  C   UNL d   1     -47.484  14.413  22.693  0.00  0.00     0.029 A 
ENDROOT
BRANCH   4   7
ATOM      7  S   UNL d   1     -46.706  13.206  22.708  0.00  0.00    -0.061 SA
BRANCH   7   8
ATOM      8  C   UNL d   1     -46.571  12.488  23.082  0.00  0.00     0.099 C 
BRANCH   8   9
ATOM      9  C   UNL d   1     -45.817  12.149  23.055  0.00  0.00     0.288 C 
ATOM     10  N   UNL d   1     -45.694  11.399  23.371  0.00  0.00    -0.181 NA
ATOM     11  O   UNL d   1     -45.193  12.559  22.714  0.00  0.00    -0.265 OA
BRANCH  10  12
ATOM     12  C   UNL d   1     -44.950  11.061  23.346  0.00  0.00     0.219 A 
ATOM     13  S   UNL d   1     -44.745  10.310  23.629  0.00  0.00    -0.026 SA
ATOM     14  C   UNL d   1     -43.949  10.198  23.493  0.00  0.00     0.135 A 
ATOM     15  C   UNL d   1     -43.513   9.523  23.688  0.00  0.00     0.030 C 
ATOM     16  N   UNL d   1     -43.655  10.873  23.126  0.00  0.00    -0.139 NA
ATOM     17  N   UNL d   1     -44.273  11.409  23.035  0.00  0.00    -0.121 NA
ENDBRANCH  10  12
ENDBRANCH   8   9
ENDBRANCH   7   8
ENDBRANCH   4   7
BRANCH   3  18
ATOM     18  C   UNL d   1     -49.621  14.740  23.012  0.00  0.00     0.039 A 
ATOM     19  C   UNL d   1     -50.279  14.425  22.653  0.00  0.00     0.101 A 
ATOM     20  N   UNL d   1     -51.004  14.798  22.726  0.00  0.00    -0.242 NA
ATOM     21  C   UNL d   1     -51.064  15.500  23.168  0.00  0.00     0.099 A 
ATOM     22  C   UNL d   1     -50.400  15.813  23.528  0.00  0.00     0.021 A 
ATOM     23  C   UNL d   1     -49.666  15.440  23.457  0.00  0.00     0.005 A 
ENDBRANCH   3  18
TORSDOF 5
ENDMDL
MODEL 2
REMARK VINA RESULT:      -7.2      1.597      1.735
REMARK  5 active torsions:
REMARK  status: ('A' for Active; 'I' for Inactive)
REMARK    1  A    between atoms: N_5  and  C_1 
REMARK       I    between atoms: C_9  and  N_5 
REMARK    2  A    between atoms: C_17  and  C_9 
REMARK    3  A    between atoms: C_12  and  C_10 
REMARK    4  A    between atoms: C_11  and  S_13 
REMARK    5  A    between atoms: S_13  and  C_17 
ROOT
ATOM      1  N   UNL d   1     -48.717  13.694  23.057  0.00  0.00    -0.148 NA
ATOM      2  N   UNL d   1     -47.962  13.362  23.074  0.00  0.00    -0.141 NA
ATOM      3  C   UNL d   1     -48.809  14.510  22.946  0.00  0.00     0.104 A 
ATOM      4  C   UNL d   1     -47.298  13.832  22.982  0.00  0.00     0.133 A 
ATOM      5  C   UNL d   1     -48.140  14.987  22.851  0.00  0.00     0.023 A 
ATOM      6  C   UNL d   1     -47.389  14.653  22.869  0.00  0.00     0.029 A 
ENDROOT
BRANCH   4   7
ATOM      7  S   UNL d   1     -46.543  13.500  22.999  0.00  0.00    -0.061 SA
BRANCH   7   8
ATOM      8  C   UNL d   1     -46.200  13.213  22.310  0.00  0.00     0.099 C 
BRANCH   8   9
ATOM      9  C   UNL d   1     -45.412  12.961  22.321  0.00  0.00     0.288 C 
ATOM     10  N   UNL d   1     -44.940  13.065  21.655  0.00  0.00    -0.181 NA
ATOM     11  O   UNL d   1     -45.101  12.608  22.994  0.00  0.00    -0.265 OA
BRANCH  10  12
ATOM     12  C   UNL d   1     -44.161  12.817  21.662  0.00  0.00     0.219 A 
ATOM     13  S   UNL d   1     -43.516  13.224  21.337  0.00  0.00    -0.026 SA
ATOM     14  C   UNL d   1     -42.846  12.779  21.468  0.00  0.00     0.135 A 
ATOM     15  C   UNL d   1     -42.077  12.977  21.236  0.00  0.00     0.030 C 
ATOM     16  N   UNL d   1     -43.066  12.097  21.874  0.00  0.00    -0.139 NA
ATOM     17  N   UNL d   1     -43.880  12.119  21.994  0.00  0.00    -0.121 NA
ENDBRANCH  10  12
ENDBRANCH   8   9
ENDBRANCH   7   8
ENDBRANCH   4   7
BRANCH   3  18
ATOM     18  C   UNL d   1     -49.564  14.842  22.928  0.00  0.00     0.039 A 
ATOM     19  C   UNL d   1     -50.065  14.673  22.309  0.00  0.00     0.101 A 
ATOM     20  N   UNL d   1     -50.815  15.001  22.288  0.00  0.00    -0.242 NA
ATOM     21  C   UNL d   1     -51.063  15.506  22.901  0.00  0.00     0.099 A 
ATOM     22  C   UNL d   1     -50.556  15.673  23.521  0.00  0.00     0.021 A 
ATOM     23  C   UNL d   1     -49.799  15.345  23.547  0.00  0.00     0.005 A 
ENDBRANCH   3  18
TORSDOF 5
ENDMDL
MODEL 3
REMARK VINA RESULT:      -5.2      5.022      7.280
REMARK  5 active torsions:
REMARK  status: ('A' for Active; 'I' for Inactive)
REMARK    1  A    between atoms: N_5  and  C_1 
REMARK       I    between atoms: C_9  and  N_5 
REMARK    2  A    between atoms: C_17  and  C_9 
REMARK    3  A    between atoms: C_12  and  C_10 
REMARK    4  A    between atoms: C_11  and  S_13 
REMARK    5  A    between atoms: S_13  and  C_17 
ROOT
ATOM      1  N   UNL d   1     -41.285  13.830  19.612  0.00  0.00    -0.148 NA
ATOM      2  N   UNL d   1     -41.836  13.420  20.068  0.00  0.00    -0.141 NA
ATOM      3  C   UNL d   1     -40.798  14.402  19.964  0.00  0.00     0.104 A 
ATOM      4  C   UNL d   1     -41.909  13.570  20.870  0.00  0.00     0.133 A 
ATOM      5  C   UNL d   1     -40.870  14.557  20.773  0.00  0.00     0.023 A 
ATOM      6  C   UNL d   1     -41.420  14.145  21.225  0.00  0.00     0.029 A 
ENDROOT
BRANCH   4   7
ATOM      7  S   UNL d   1     -42.460  13.160  21.326  0.00  0.00    -0.061 SA
BRANCH   7   8
ATOM      8  C   UNL d   1     -43.256  13.173  21.126  0.00  0.00     0.099 C 
BRANCH   8   9
ATOM      9  C   UNL d   1     -43.814  12.867  21.655  0.00  0.00     0.288 C 
ATOM     10  N   UNL d   1     -44.519  13.270  21.784  0.00  0.00    -0.181 NA
ATOM     11  O   UNL d   1     -43.666  12.162  22.050  0.00  0.00    -0.265 OA
BRANCH  10  12
ATOM     12  C   UNL d   1     -45.074  12.971  22.306  0.00  0.00     0.219 A 
ATOM     13  S   UNL d   1     -45.846  13.253  22.412  0.00  0.00    -0.026 SA
ATOM     14  C   UNL d   1     -46.204  12.795  22.984  0.00  0.00     0.135 A 
ATOM     15  C   UNL d   1     -46.977  12.883  23.264  0.00  0.00     0.030 C 
ATOM     16  N   UNL d   1     -45.661  12.229  23.236  0.00  0.00    -0.139 NA
ATOM     17  N   UNL d   1     -44.961  12.337  22.817  0.00  0.00    -0.121 NA
ENDBRANCH  10  12
ENDBRANCH   8   9
ENDBRANCH   7   8
ENDBRANCH   4   7
BRANCH   3  18
ATOM     18  C   UNL d   1     -40.247  14.813  19.508  0.00  0.00     0.039 A 
ATOM     19  C   UNL d   1     -39.477  14.550  19.472  0.00  0.00     0.101 A 
ATOM     20  N   UNL d   1     -38.927  14.955  19.021  0.00  0.00    -0.242 NA
ATOM     21  C   UNL d   1     -39.157  15.634  18.599  0.00  0.00     0.099 A 
ATOM     22  C   UNL d   1     -39.932  15.894  18.638  0.00  0.00     0.021 A 
ATOM     23  C   UNL d   1     -40.490  15.489  19.092  0.00  0.00     0.005 A 
ENDBRANCH   3  18
TORSDOF 5
ENDMDL
MODEL 4
REMARK VINA RESULT:      -5.0      2.086      6.046
REMARK  5 active torsions:
REMARK  status: ('A' for Active; 'I' for Inactive)
REMARK    1  A    between atoms: N_5  and  C_1 
REMARK       I    between atoms: C_9  and  N_5 
REMARK    2  A    between atoms: C_17  and  C_9 
REMARK    3  A    between atoms: C_12  and  C_10 
REMARK    4  A    between atoms: C_11  and  S_13 
REMARK    5  A    between atoms: S_13  and  C_17 
ROOT
ATOM      1  N   UNL d   1     -45.017  13.663  22.164  0.00  0.00    -0.148 NA
ATOM      2  N   UNL d   1     -45.798  13.775  22.403  0.00  0.00    -0.141 NA
ATOM      3  C   UNL d   1     -44.713  12.895  22.081  0.00  0.00     0.104 A 
ATOM      4  C   UNL d   1     -46.282  13.133  22.562  0.00  0.00     0.133 A 
ATOM      5  C   UNL d   1     -45.200  12.246  22.240  0.00  0.00     0.023 A 
ATOM      6  C   UNL d   1     -45.979  12.361  22.479  0.00  0.00     0.029 A 
ENDROOT
BRANCH   4   7
ATOM      7  S   UNL d   1     -47.063  13.246  22.801  0.00  0.00    -0.061 SA
BRANCH   7   8
ATOM      8  C   UNL d   1     -47.358  14.003  22.913  0.00  0.00     0.099 C 
BRANCH   8   9
ATOM      9  C   UNL d   1     -48.172  14.114  23.012  0.00  0.00     0.288 C 
ATOM     10  N   UNL d   1     -48.511  14.841  22.831  0.00  0.00    -0.181 NA
ATOM     11  O   UNL d   1     -48.641  13.500  23.289  0.00  0.00    -0.265 OA
BRANCH  10  12
ATOM     12  C   UNL d   1     -49.315  14.954  22.927  0.00  0.00     0.219 A 
ATOM     13  S   UNL d   1     -49.674  15.543  23.388  0.00  0.00    -0.026 SA
ATOM     14  C   UNL d   1     -50.482  15.452  23.327  0.00  0.00     0.135 A 
ATOM     15  C   UNL d   1     -51.053  15.922  23.697  0.00  0.00     0.030 C 
ATOM     16  N   UNL d   1     -50.631  14.812  22.831  0.00  0.00    -0.139 NA
ATOM     17  N   UNL d   1     -49.910  14.503  22.583  0.00  0.00    -0.121 NA
ENDBRANCH  10  12
ENDBRANCH   8   9
ENDBRANCH   7   8
ENDBRANCH   4   7
BRANCH   3  18
ATOM     18  C   UNL d   1     -43.932  12.783  21.841  0.00  0.00     0.039 A 
ATOM     19  C   UNL d   1     -43.509  12.150  22.130  0.00  0.00     0.101 A 
ATOM     20  N   UNL d   1     -42.734  12.035  21.895  0.00  0.00    -0.242 NA
ATOM     21  C   UNL d   1     -42.380  12.566  21.361  0.00  0.00     0.099 A 
ATOM     22  C   UNL d   1     -42.809  13.201  21.074  0.00  0.00     0.021 A 
ATOM     23  C   UNL d   1     -43.592  13.321  21.308  0.00  0.00     0.005 A 
ENDBRANCH   3  18
TORSDOF 5
ENDMDL
