MODEL 1
REMARK VINA RESULT:      -7.6      0.000      0.000
REMARK  3 active torsions:
REMARK  status: ('A' for Active; 'I' for Inactive)
REMARK       I    between atoms: C_3  and  N_1 
REMARK    1  A    between atoms: C_5  and  C_3 
REMARK    2  A    between atoms: C_9  and  C_4 
REMARK    3  A    between atoms: C_14  and  C_6 
ROOT
ATOM      1  N   UNL d   1     -48.106  13.655  22.821  0.00  0.00    -0.193 N 
ATOM      2  N   UNL d   1     -48.839  13.312  23.021  0.00  0.00    -0.162 NA
ATOM      3  C   UNL d   1     -48.005  14.457  22.678  0.00  0.00     0.303 C 
ATOM      4  C   UNL d   1     -48.714  12.497  23.121  0.00  0.00     0.109 A 
ATOM      5  C   UNL d   1     -47.548  13.041  22.803  0.00  0.00     0.088 A 
ATOM      6  C   UNL d   1     -47.916  12.330  22.986  0.00  0.00     0.041 A 
ATOM      7  O   UNL d   1     -47.248  14.772  22.478  0.00  0.00    -0.263 OA
ENDROOT
BRANCH   3   8
ATOM      8  C   UNL d   1     -48.615  14.971  22.722  0.00  0.00     0.158 A 
ATOM      9  O   UNL d   1     -49.127  15.064  23.374  0.00  0.00    -0.296 OA
ATOM     10  C   UNL d   1     -49.674  15.650  23.186  0.00  0.00     0.134 A 
ATOM     11 BR   UNL d   1     -50.300  15.921  23.695  0.00  0.00    -0.022 Br
ATOM     12  C   UNL d   1     -49.507  15.912  22.441  0.00  0.00     0.034 A 
ATOM     13  C   UNL d   1     -48.866  15.508  22.150  0.00  0.00     0.032 A 
ENDBRANCH   3   8
BRANCH   5  14
ATOM     14  C   UNL d   1     -47.164  13.093  22.718  0.00  0.00     0.018 A 
ATOM     15  C   UNL d   1     -46.601  13.343  23.267  0.00  0.00     0.002 A 
ATOM     16  C   UNL d   1     -45.831  13.427  23.018  0.00  0.00     0.000 A 
ATOM     17  C   UNL d   1     -45.589  13.278  22.258  0.00  0.00     0.000 A 
ATOM     18  C   UNL d   1     -46.152  13.027  21.709  0.00  0.00     0.000 A 
ATOM     19  C   UNL d   1     -44.820  13.362  22.010  0.00  0.00     0.000 C 
ATOM     20  C   UNL d   1     -46.939  12.935  21.938  0.00  0.00     0.002 A 
ENDBRANCH   5  14
BRANCH   4  21
ATOM     21  C   UNL d   1     -49.283  11.934  23.322  0.00  0.00     0.049 A 
ATOM     22  S   UNL d   1     -49.098  11.176  23.540  0.00  0.00    -0.085 SA
ATOM     23  C   UNL d   1     -49.834  10.796  23.695  0.00  0.00     0.035 A 
ATOM     24  C   UNL d   1     -50.450  11.329  23.568  0.00  0.00     0.007 A 
ATOM     25  C   UNL d   1     -50.086  12.032  23.336  0.00  0.00     0.009 A 
ENDBRANCH   4  21
TORSDOF 3
ENDMDL
MODEL 2
REMARK VINA RESULT:      -6.8      8.796      9.933
REMARK  3 active torsions:
REMARK  status: ('A' for Active; 'I' for Inactive)
REMARK       I    between atoms: C_3  and  N_1 
REMARK    1  A    between atoms: C_5  and  C_3 
REMARK    2  A    between atoms: C_9  and  C_4 
REMARK    3  A    between atoms: C_14  and  C_6 
ROOT
ATOM      1  N   UNL d   1     -39.835  14.719  18.570  0.00  0.00    -0.193 N 
ATOM      2  N   UNL d   1     -39.527  14.229  17.969  0.00  0.00    -0.162 NA
ATOM      3  C   UNL d   1     -40.356  15.337  18.428  0.00  0.00     0.303 C 
ATOM      4  C   UNL d   1     -39.025  13.676  18.331  0.00  0.00     0.109 A 
ATOM      5  C   UNL d   1     -39.512  14.454  19.287  0.00  0.00     0.088 A 
ATOM      6  C   UNL d   1     -39.016  13.815  19.146  0.00  0.00     0.041 A 
ATOM      7  O   UNL d   1     -40.648  15.814  19.060  0.00  0.00    -0.263 OA
ENDROOT
BRANCH   3   8
ATOM      8  C   UNL d   1     -40.609  15.512  17.691  0.00  0.00     0.158 A 
ATOM      9  O   UNL d   1     -41.379  15.383  17.396  0.00  0.00    -0.296 OA
ATOM     10  C   UNL d   1     -41.399  15.641  16.615  0.00  0.00     0.134 A 
ATOM     11 BR   UNL d   1     -42.078  15.613  16.104  0.00  0.00    -0.022 Br
ATOM     12  C   UNL d   1     -40.664  15.922  16.430  0.00  0.00     0.034 A 
ATOM     13  C   UNL d   1     -40.177  15.848  17.075  0.00  0.00     0.032 A 
ENDBRANCH   3   8
BRANCH   5  14
ATOM     14  C   UNL d   1     -39.591  14.617  19.639  0.00  0.00     0.018 A 
ATOM     15  C   UNL d   1     -40.291  14.490  20.058  0.00  0.00     0.002 A 
ATOM     16  C   UNL d   1     -40.383  14.861  20.777  0.00  0.00     0.000 A 
ATOM     17  C   UNL d   1     -39.822  15.349  21.102  0.00  0.00     0.000 A 
ATOM     18  C   UNL d   1     -39.123  15.476  20.684  0.00  0.00     0.000 A 
ATOM     19  C   UNL d   1     -39.915  15.719  21.820  0.00  0.00     0.000 C 
ATOM     20  C   UNL d   1     -39.006  15.111  19.953  0.00  0.00     0.002 A 
ENDBRANCH   5  14
BRANCH   4  21
ATOM     21  C   UNL d   1     -38.598  13.079  17.953  0.00  0.00     0.049 A 
ATOM     22  S   UNL d   1     -38.347  13.134  17.184  0.00  0.00    -0.085 SA
ATOM     23  C   UNL d   1     -37.940  12.414  17.024  0.00  0.00     0.035 A 
ATOM     24  C   UNL d   1     -37.951  11.937  17.698  0.00  0.00     0.007 A 
ATOM     25  C   UNL d   1     -38.365  12.370  18.264  0.00  0.00     0.009 A 
ENDBRANCH   4  21
TORSDOF 3
ENDMDL
MODEL 3
REMARK VINA RESULT:      -6.6      1.597      3.001
REMARK  3 active torsions:
REMARK  status: ('A' for Active; 'I' for Inactive)
REMARK       I    between atoms: C_3  and  N_1 
REMARK    1  A    between atoms: C_5  and  C_3 
REMARK    2  A    between atoms: C_9  and  C_4 
REMARK    3  A    between atoms: C_14  and  C_6 
ROOT
ATOM      1  N   UNL d   1     -48.377  13.237  22.974  0.00  0.00    -0.193 N 
ATOM      2  N   UNL d   1     -49.112  13.608  23.107  0.00  0.00    -0.162 NA
ATOM      3  C   UNL d   1     -48.255  12.430  23.061  0.00  0.00     0.303 C 
ATOM      4  C   UNL d   1     -49.012  14.420  22.963  0.00  0.00     0.109 A 
ATOM      5  C   UNL d   1     -47.843  13.832  22.751  0.00  0.00     0.088 A 
ATOM      6  C   UNL d   1     -48.227  14.557  22.742  0.00  0.00     0.041 A 
ATOM      7  O   UNL d   1     -47.497  12.087  22.918  0.00  0.00    -0.263 OA
ENDROOT
BRANCH   3   8
ATOM      8  C   UNL d   1     -48.843  11.938  23.283  0.00  0.00     0.158 A 
ATOM      9  O   UNL d   1     -49.655  12.131  23.309  0.00  0.00    -0.296 OA
ATOM     10  C   UNL d   1     -50.066  11.466  23.568  0.00  0.00     0.134 A 
ATOM     11 BR   UNL d   1     -50.908  11.419  23.675  0.00  0.00    -0.022 Br
ATOM     12  C   UNL d   1     -49.527  10.879  23.698  0.00  0.00     0.034 A 
ATOM     13  C   UNL d   1     -48.783  11.154  23.529  0.00  0.00     0.032 A 
ENDBRANCH   3   8
BRANCH   5  14
ATOM     14  C   UNL d   1     -47.462  13.766  22.664  0.00  0.00     0.018 A 
ATOM     15  C   UNL d   1     -47.198  13.506  21.927  0.00  0.00     0.002 A 
ATOM     16  C   UNL d   1     -46.398  13.391  21.822  0.00  0.00     0.000 A 
ATOM     17  C   UNL d   1     -45.849  13.520  22.405  0.00  0.00     0.000 A 
ATOM     18  C   UNL d   1     -46.114  13.780  23.142  0.00  0.00     0.000 A 
ATOM     19  C   UNL d   1     -45.052  13.405  22.300  0.00  0.00     0.000 C 
ATOM     20  C   UNL d   1     -46.919  13.903  23.272  0.00  0.00     0.002 A 
ENDBRANCH   5  14
BRANCH   4  21
ATOM     21  C   UNL d   1     -49.591  15.005  23.025  0.00  0.00     0.049 A 
ATOM     22  S   UNL d   1     -49.994  15.298  22.385  0.00  0.00    -0.085 SA
ATOM     23  C   UNL d   1     -50.524  15.876  22.694  0.00  0.00     0.035 A 
ATOM     24  C   UNL d   1     -50.433  15.922  23.512  0.00  0.00     0.007 A 
ATOM     25  C   UNL d   1     -49.847  15.372  23.698  0.00  0.00     0.009 A 
ENDBRANCH   4  21
TORSDOF 3
ENDMDL
MODEL 4
REMARK VINA RESULT:      -6.6      8.931     10.188
REMARK  3 active torsions:
REMARK  status: ('A' for Active; 'I' for Inactive)
REMARK       I    between atoms: C_3  and  N_1 
REMARK    1  A    between atoms: C_5  and  C_3 
REMARK    2  A    between atoms: C_9  and  C_4 
REMARK    3  A    between atoms: C_14  and  C_6 
ROOT
ATOM      1  N   UNL d   1     -39.662  14.713  18.599  0.00  0.00    -0.193 N 
ATOM      2  N   UNL d   1     -39.940  14.756  17.813  0.00  0.00    -0.162 NA
ATOM      3  C   UNL d   1     -39.063  14.206  18.840  0.00  0.00     0.303 C 
ATOM      4  C   UNL d   1     -40.542  15.328  17.793  0.00  0.00     0.109 A 
ATOM      5  C   UNL d   1     -40.101  15.261  19.041  0.00  0.00     0.088 A 
ATOM      6  C   UNL d   1     -40.640  15.640  18.553  0.00  0.00     0.041 A 
ATOM      7  O   UNL d   1     -38.805  14.188  19.643  0.00  0.00    -0.263 OA
ENDROOT
BRANCH   3   8
ATOM      8  C   UNL d   1     -38.701  13.711  18.328  0.00  0.00     0.158 A 
ATOM      9  O   UNL d   1     -38.799  12.883  18.298  0.00  0.00    -0.296 OA
ATOM     10  C   UNL d   1     -38.326  12.592  17.691  0.00  0.00     0.134 A 
ATOM     11 BR   UNL d   1     -38.258  11.774  17.468  0.00  0.00    -0.022 Br
ATOM     12  C   UNL d   1     -37.945  13.220  17.354  0.00  0.00     0.034 A 
ATOM     13  C   UNL d   1     -38.164  13.903  17.732  0.00  0.00     0.032 A 
ENDBRANCH   3   8
BRANCH   5  14
ATOM     14  C   UNL d   1     -40.050  15.323  19.429  0.00  0.00     0.018 A 
ATOM     15  C   UNL d   1     -39.439  15.779  19.746  0.00  0.00     0.002 A 
ATOM     16  C   UNL d   1     -39.399  15.861  20.555  0.00  0.00     0.000 A 
ATOM     17  C   UNL d   1     -39.929  15.518  21.065  0.00  0.00     0.000 A 
ATOM     18  C   UNL d   1     -40.540  15.063  20.748  0.00  0.00     0.000 A 
ATOM     19  C   UNL d   1     -39.888  15.601  21.872  0.00  0.00     0.000 C 
ATOM     20  C   UNL d   1     -40.601  14.965  19.932  0.00  0.00     0.002 A 
ENDBRANCH   5  14
BRANCH   4  21
ATOM     21  C   UNL d   1     -40.978  15.558  17.131  0.00  0.00     0.049 A 
ATOM     22  S   UNL d   1     -41.775  15.707  17.157  0.00  0.00    -0.085 SA
ATOM     23  C   UNL d   1     -41.993  15.922  16.371  0.00  0.00     0.035 A 
ATOM     24  C   UNL d   1     -41.326  15.899  15.886  0.00  0.00     0.007 A 
ATOM     25  C   UNL d   1     -40.706  15.670  16.379  0.00  0.00     0.009 A 
ENDBRANCH   4  21
TORSDOF 3
ENDMDL
MODEL 5
REMARK VINA RESULT:      -6.5      9.476     10.560
REMARK  3 active torsions:
REMARK  status: ('A' for Active; 'I' for Inactive)
REMARK       I    between atoms: C_3  and  N_1 
REMARK    1  A    between atoms: C_5  and  C_3 
REMARK    2  A    between atoms: C_9  and  C_4 
REMARK    3  A    between atoms: C_14  and  C_6 
ROOT
ATOM      1  N   UNL d   1     -39.464  14.325  18.116  0.00  0.00    -0.193 N 
ATOM      2  N   UNL d   1     -39.023  14.211  18.815  0.00  0.00    -0.162 NA
ATOM      3  C   UNL d   1     -39.395  13.845  17.453  0.00  0.00     0.303 C 
ATOM      4  C   UNL d   1     -39.248  14.804  19.350  0.00  0.00     0.109 A 
ATOM      5  C   UNL d   1     -39.950  14.986  18.241  0.00  0.00     0.088 A 
ATOM      6  C   UNL d   1     -39.822  15.283  18.995  0.00  0.00     0.041 A 
ATOM      7  O   UNL d   1     -39.857  13.988  16.762  0.00  0.00    -0.263 OA
ENDROOT
BRANCH   3   8
ATOM      8  C   UNL d   1     -38.890  13.226  17.435  0.00  0.00     0.158 A 
ATOM      9  O   UNL d   1     -38.846  12.617  18.004  0.00  0.00    -0.296 OA
ATOM     10  C   UNL d   1     -38.254  12.094  17.772  0.00  0.00     0.134 A 
ATOM     11 BR   UNL d   1     -38.023  11.393  18.194  0.00  0.00    -0.022 Br
ATOM     12  C   UNL d   1     -37.940  12.370  17.081  0.00  0.00     0.034 A 
ATOM     13  C   UNL d   1     -38.318  13.056  16.867  0.00  0.00     0.032 A 
ENDBRANCH   3   8
BRANCH   5  14
ATOM     14  C   UNL d   1     -40.202  15.129  17.971  0.00  0.00     0.018 A 
ATOM     15  C   UNL d   1     -39.993  15.673  17.388  0.00  0.00     0.002 A 
ATOM     16  C   UNL d   1     -40.567  15.922  16.867  0.00  0.00     0.000 A 
ATOM     17  C   UNL d   1     -41.336  15.661  16.893  0.00  0.00     0.000 A 
ATOM     18  C   UNL d   1     -41.545  15.117  17.477  0.00  0.00     0.000 A 
ATOM     19  C   UNL d   1     -41.908  15.909  16.374  0.00  0.00     0.000 C 
ATOM     20  C   UNL d   1     -40.980  14.850  18.015  0.00  0.00     0.002 A 
ENDBRANCH   5  14
BRANCH   4  21
ATOM     21  C   UNL d   1     -38.957  14.911  20.115  0.00  0.00     0.049 A 
ATOM     22  S   UNL d   1     -38.478  15.531  20.324  0.00  0.00    -0.085 SA
ATOM     23  C   UNL d   1     -38.313  15.427  21.144  0.00  0.00     0.035 A 
ATOM     24  C   UNL d   1     -38.695  14.748  21.416  0.00  0.00     0.007 A 
ATOM     25  C   UNL d   1     -39.089  14.442  20.761  0.00  0.00     0.009 A 
ENDBRANCH   4  21
TORSDOF 3
ENDMDL
MODEL 6
REMARK VINA RESULT:      -6.3      9.292     10.154
REMARK  3 active torsions:
REMARK  status: ('A' for Active; 'I' for Inactive)
REMARK       I    between atoms: C_3  and  N_1 
REMARK    1  A    between atoms: C_5  and  C_3 
REMARK    2  A    between atoms: C_9  and  C_4 
REMARK    3  A    between atoms: C_14  and  C_6 
ROOT
ATOM      1  N   UNL d   1     -39.557  14.652  18.558  0.00  0.00    -0.193 N 
ATOM      2  N   UNL d   1     -39.047  14.041  18.806  0.00  0.00    -0.162 NA
ATOM      3  C   UNL d   1     -39.714  15.321  19.008  0.00  0.00     0.303 C 
ATOM      4  C   UNL d   1     -39.033  13.469  18.204  0.00  0.00     0.109 A 
ATOM      5  C   UNL d   1     -39.845  14.439  17.809  0.00  0.00     0.088 A 
ATOM      6  C   UNL d   1     -39.527  13.716  17.588  0.00  0.00     0.041 A 
ATOM      7  O   UNL d   1     -40.237  15.921  18.727  0.00  0.00    -0.263 OA
ENDROOT
BRANCH   3   8
ATOM      8  C   UNL d   1     -39.382  15.431  19.726  0.00  0.00     0.158 A 
ATOM      9  O   UNL d   1     -39.637  15.083  20.440  0.00  0.00    -0.296 OA
ATOM     10  C   UNL d   1     -39.141  15.344  21.042  0.00  0.00     0.134 A 
ATOM     11 BR   UNL d   1     -39.204  15.125  21.862  0.00  0.00    -0.022 Br
ATOM     12  C   UNL d   1     -38.595  15.840  20.713  0.00  0.00     0.034 A 
ATOM     13  C   UNL d   1     -38.731  15.900  19.916  0.00  0.00     0.032 A 
ENDBRANCH   3   8
BRANCH   5  14
ATOM     14  C   UNL d   1     -40.097  14.660  17.598  0.00  0.00     0.018 A 
ATOM     15  C   UNL d   1     -39.869  15.309  17.142  0.00  0.00     0.002 A 
ATOM     16  C   UNL d   1     -40.445  15.716  16.735  0.00  0.00     0.000 A 
ATOM     17  C   UNL d   1     -41.232  15.515  16.756  0.00  0.00     0.000 A 
ATOM     18  C   UNL d   1     -41.459  14.867  17.212  0.00  0.00     0.000 A 
ATOM     19  C   UNL d   1     -41.806  15.922  16.349  0.00  0.00     0.000 C 
ATOM     20  C   UNL d   1     -40.893  14.439  17.633  0.00  0.00     0.002 A 
ENDBRANCH   5  14
BRANCH   4  21
ATOM     21  C   UNL d   1     -38.603  12.764  18.206  0.00  0.00     0.049 A 
ATOM     22  S   UNL d   1     -38.368  12.391  18.887  0.00  0.00    -0.085 SA
ATOM     23  C   UNL d   1     -37.950  11.703  18.638  0.00  0.00     0.035 A 
ATOM     24  C   UNL d   1     -37.940  11.672  17.813  0.00  0.00     0.007 A 
ATOM     25  C   UNL d   1     -38.351  12.341  17.565  0.00  0.00     0.009 A 
ENDBRANCH   4  21
TORSDOF 3
ENDMDL
MODEL 7
REMARK VINA RESULT:      -5.0      9.330     10.223
REMARK  3 active torsions:
REMARK  status: ('A' for Active; 'I' for Inactive)
REMARK       I    between atoms: C_3  and  N_1 
REMARK    1  A    between atoms: C_5  and  C_3 
REMARK    2  A    between atoms: C_9  and  C_4 
REMARK    3  A    between atoms: C_14  and  C_6 
ROOT
ATOM      1  N   UNL d   1     -39.299  14.267  18.421  0.00  0.00    -0.193 N 
ATOM      2  N   UNL d   1     -39.834  14.885  18.256  0.00  0.00    -0.162 NA
ATOM      3  C   UNL d   1     -38.836  14.237  19.099  0.00  0.00     0.303 C 
ATOM      4  C   UNL d   1     -40.193  14.715  17.527  0.00  0.00     0.109 A 
ATOM      5  C   UNL d   1     -39.344  13.732  17.788  0.00  0.00     0.088 A 
ATOM      6  C   UNL d   1     -39.890  14.002  17.238  0.00  0.00     0.041 A 
ATOM      7  O   UNL d   1     -38.304  13.596  19.235  0.00  0.00    -0.263 OA
ENDROOT
BRANCH   3   8
ATOM      8  C   UNL d   1     -38.868  14.811  19.654  0.00  0.00     0.158 A 
ATOM      9  O   UNL d   1     -39.409  14.844  20.289  0.00  0.00    -0.296 OA
ATOM     10  C   UNL d   1     -39.249  15.524  20.724  0.00  0.00     0.134 A 
ATOM     11 BR   UNL d   1     -39.669  15.773  21.420  0.00  0.00    -0.022 Br
ATOM     12  C   UNL d   1     -38.628  15.901  20.371  0.00  0.00     0.034 A 
ATOM     13  C   UNL d   1     -38.389  15.478  19.721  0.00  0.00     0.032 A 
ENDBRANCH   3   8
BRANCH   5  14
ATOM     14  C   UNL d   1     -39.130  13.399  17.764  0.00  0.00     0.018 A 
ATOM     15  C   UNL d   1     -38.393  13.352  17.396  0.00  0.00     0.002 A 
ATOM     16  C   UNL d   1     -38.012  12.632  17.387  0.00  0.00     0.000 A 
ATOM     17  C   UNL d   1     -38.320  11.960  17.721  0.00  0.00     0.000 A 
ATOM     18  C   UNL d   1     -39.057  12.007  18.089  0.00  0.00     0.000 A 
ATOM     19  C   UNL d   1     -37.940  11.242  17.711  0.00  0.00     0.000 C 
ATOM     20  C   UNL d   1     -39.462  12.726  18.111  0.00  0.00     0.002 A 
ENDBRANCH   5  14
BRANCH   4  21
ATOM     21  C   UNL d   1     -40.761  15.173  17.141  0.00  0.00     0.049 A 
ATOM     22  S   UNL d   1     -41.393  15.509  17.523  0.00  0.00    -0.085 SA
ATOM     23  C   UNL d   1     -41.826  15.922  16.930  0.00  0.00     0.035 A 
ATOM     24  C   UNL d   1     -41.450  15.829  16.201  0.00  0.00     0.007 A 
ATOM     25  C   UNL d   1     -40.790  15.359  16.355  0.00  0.00     0.009 A 
ENDBRANCH   4  21
TORSDOF 3
ENDMDL
MODEL 8
REMARK VINA RESULT:      -4.8      7.219      9.446
REMARK  3 active torsions:
REMARK  status: ('A' for Active; 'I' for Inactive)
REMARK       I    between atoms: C_3  and  N_1 
REMARK    1  A    between atoms: C_5  and  C_3 
REMARK    2  A    between atoms: C_9  and  C_4 
REMARK    3  A    between atoms: C_14  and  C_6 
ROOT
ATOM      1  N   UNL d   1     -39.510  14.433  20.538  0.00  0.00    -0.193 N 
ATOM      2  N   UNL d   1     -39.486  14.222  21.345  0.00  0.00    -0.162 NA
ATOM      3  C   UNL d   1     -40.207  14.533  20.115  0.00  0.00     0.303 C 
ATOM      4  C   UNL d   1     -38.688  14.176  21.567  0.00  0.00     0.109 A 
ATOM      5  C   UNL d   1     -38.723  14.512  20.286  0.00  0.00     0.088 A 
ATOM      6  C   UNL d   1     -38.216  14.355  20.912  0.00  0.00     0.041 A 
ATOM      7  O   UNL d   1     -40.194  14.747  19.299  0.00  0.00    -0.263 OA
ENDROOT
BRANCH   3   8
ATOM      8  C   UNL d   1     -40.921  14.433  20.457  0.00  0.00     0.158 A 
ATOM      9  O   UNL d   1     -41.337  13.711  20.513  0.00  0.00    -0.296 OA
ATOM     10  C   UNL d   1     -42.047  13.856  20.904  0.00  0.00     0.134 A 
ATOM     11 BR   UNL d   1     -42.640  13.273  21.081  0.00  0.00    -0.022 Br
ATOM     12  C   UNL d   1     -42.071  14.643  21.085  0.00  0.00     0.034 A 
ATOM     13  C   UNL d   1     -41.395  15.002  20.819  0.00  0.00     0.032 A 
ENDBRANCH   3   8
BRANCH   5  14
ATOM     14  C   UNL d   1     -38.618  14.610  19.916  0.00  0.00     0.018 A 
ATOM     15  C   UNL d   1     -38.591  15.386  19.637  0.00  0.00     0.002 A 
ATOM     16  C   UNL d   1     -38.365  15.511  18.865  0.00  0.00     0.000 A 
ATOM     17  C   UNL d   1     -38.166  14.910  18.356  0.00  0.00     0.000 A 
ATOM     18  C   UNL d   1     -38.193  14.135  18.635  0.00  0.00     0.000 A 
ATOM     19  C   UNL d   1     -37.941  15.036  17.586  0.00  0.00     0.000 C 
ATOM     20  C   UNL d   1     -38.418  13.983  19.414  0.00  0.00     0.002 A 
ENDBRANCH   5  14
BRANCH   4  21
ATOM     21  C   UNL d   1     -38.397  13.984  22.316  0.00  0.00     0.049 A 
ATOM     22  S   UNL d   1     -38.212  14.542  22.875  0.00  0.00    -0.085 SA
ATOM     23  C   UNL d   1     -37.940  14.111  23.546  0.00  0.00     0.035 A 
ATOM     24  C   UNL d   1     -37.965  13.303  23.382  0.00  0.00     0.007 A 
ATOM     25  C   UNL d   1     -38.252  13.246  22.611  0.00  0.00     0.009 A 
ENDBRANCH   4  21
TORSDOF 3
ENDMDL
