MODEL 1
REMARK VINA RESULT:      -9.8      0.000      0.000
REMARK  4 active torsions:
REMARK  status: ('A' for Active; 'I' for Inactive)
REMARK    1  A    between atoms: C_6  and  C_1 
REMARK    2  A    between atoms: C_7  and  N_2 
REMARK    3  A    between atoms: C_10  and  C_7 
REMARK    4  A    between atoms: C_11  and  C_10 
ROOT
ATOM      1  C   UNL d   1      53.388  32.035  53.690  0.00  0.00     0.148 A 
ATOM      2  N   UNL d   1      53.034  32.783  53.799  0.00  0.00    -0.289 N 
ATOM      3  N   UNL d   1      54.122  32.038  54.102  0.00  0.00    -0.227 NA
ATOM      4  C   UNL d   1      53.540  33.244  54.271  0.00  0.00     0.083 A 
ATOM      5  C   UNL d   1      54.205  32.789  54.457  0.00  0.00     0.099 A 
ATOM      6  C   UNL d   1      53.487  34.023  54.562  0.00  0.00     0.019 A 
ATOM      7  C   UNL d   1      54.821  33.093  54.926  0.00  0.00     0.021 A 
ATOM      8  C   UNL d   1      54.093  34.333  55.028  0.00  0.00     0.002 A 
ATOM      9  C   UNL d   1      54.755  33.872  55.209  0.00  0.00     0.002 A 
ENDROOT
BRANCH   2  10
ATOM     10  C   UNL d   1      52.301  33.024  53.488  0.00  0.00     0.082 C 
BRANCH  10  11
ATOM     11  C   UNL d   1      52.248  33.736  53.077  0.00  0.00     0.019 C 
BRANCH  11  12
ATOM     12  C   UNL d   1      51.532  33.952  52.738  0.00  0.00     0.002 A 
ATOM     13  C   UNL d   1      50.860  34.002  53.199  0.00  0.00     0.000 A 
ATOM     14  C   UNL d   1      50.146  34.217  52.860  0.00  0.00     0.000 A 
ATOM     15  C   UNL d   1      50.103  34.383  52.060  0.00  0.00     0.000 A 
ATOM     16  C   UNL d   1      50.780  34.333  51.591  0.00  0.00     0.000 A 
ATOM     17  C   UNL d   1      51.493  34.116  51.938  0.00  0.00     0.000 A 
ENDBRANCH  11  12
ENDBRANCH  10  11
ENDBRANCH   2  10
BRANCH   1  18
ATOM     18  C   UNL d   1      53.080  31.401  53.257  0.00  0.00     0.035 A 
ATOM     19  C   UNL d   1      53.038  30.955  52.564  0.00  0.00     0.003 A 
ATOM     20  C   UNL d   1      52.577  30.748  53.219  0.00  0.00     0.003 A 
ENDBRANCH   1  18
TORSDOF 4
ENDMDL
MODEL 2
REMARK VINA RESULT:      -9.7      0.699      2.503
REMARK  4 active torsions:
REMARK  status: ('A' for Active; 'I' for Inactive)
REMARK    1  A    between atoms: C_6  and  C_1 
REMARK    2  A    between atoms: C_7  and  N_2 
REMARK    3  A    between atoms: C_10  and  C_7 
REMARK    4  A    between atoms: C_11  and  C_10 
ROOT
ATOM      1  C   UNL d   1      53.800  32.220  54.130  0.00  0.00     0.148 A 
ATOM      2  N   UNL d   1      53.187  32.140  53.569  0.00  0.00    -0.289 N 
ATOM      3  N   UNL d   1      54.093  31.450  54.299  0.00  0.00    -0.227 NA
ATOM      4  C   UNL d   1      53.100  31.332  53.392  0.00  0.00     0.083 A 
ATOM      5  C   UNL d   1      53.653  30.909  53.838  0.00  0.00     0.099 A 
ATOM      6  C   UNL d   1      52.588  30.918  52.882  0.00  0.00     0.019 A 
ATOM      7  C   UNL d   1      53.709  30.081  53.787  0.00  0.00     0.021 A 
ATOM      8  C   UNL d   1      52.636  30.097  52.824  0.00  0.00     0.002 A 
ATOM      9  C   UNL d   1      53.192  29.681  53.273  0.00  0.00     0.002 A 
ENDROOT
BRANCH   2  10
ATOM     10  C   UNL d   1      52.741  32.763  53.244  0.00  0.00     0.082 C 
BRANCH  10  11
ATOM     11  C   UNL d   1      51.919  32.751  53.306  0.00  0.00     0.019 C 
BRANCH  11  12
ATOM     12  C   UNL d   1      51.483  33.366  52.983  0.00  0.00     0.002 A 
ATOM     13  C   UNL d   1      51.730  33.724  52.292  0.00  0.00     0.000 A 
ATOM     14  C   UNL d   1      51.294  34.338  51.970  0.00  0.00     0.000 A 
ATOM     15  C   UNL d   1      50.610  34.594  52.338  0.00  0.00     0.000 A 
ATOM     16  C   UNL d   1      50.357  34.235  53.037  0.00  0.00     0.000 A 
ATOM     17  C   UNL d   1      50.800  33.619  53.354  0.00  0.00     0.000 A 
ENDBRANCH  11  12
ENDBRANCH  10  11
ENDBRANCH   2  10
BRANCH   1  18
ATOM     18  C   UNL d   1      54.075  32.925  54.463  0.00  0.00     0.035 A 
ATOM     19  C   UNL d   1      54.532  33.611  54.421  0.00  0.00     0.003 A 
ATOM     20  C   UNL d   1      54.082  33.453  55.097  0.00  0.00     0.003 A 
ENDBRANCH   1  18
TORSDOF 4
ENDMDL
MODEL 3
REMARK VINA RESULT:      -9.7      0.901      3.573
REMARK  4 active torsions:
REMARK  status: ('A' for Active; 'I' for Inactive)
REMARK    1  A    between atoms: C_6  and  C_1 
REMARK    2  A    between atoms: C_7  and  N_2 
REMARK    3  A    between atoms: C_10  and  C_7 
REMARK    4  A    between atoms: C_11  and  C_10 
ROOT
ATOM      1  C   UNL d   1      53.625  33.727  54.317  0.00  0.00     0.148 A 
ATOM      2  N   UNL d   1      53.107  33.146  54.016  0.00  0.00    -0.289 N 
ATOM      3  N   UNL d   1      53.318  34.480  54.100  0.00  0.00    -0.227 NA
ATOM      4  C   UNL d   1      52.487  33.532  53.617  0.00  0.00     0.083 A 
ATOM      5  C   UNL d   1      52.616  34.347  53.668  0.00  0.00     0.099 A 
ATOM      6  C   UNL d   1      51.817  33.252  53.211  0.00  0.00     0.019 A 
ATOM      7  C   UNL d   1      52.090  34.891  53.323  0.00  0.00     0.021 A 
ATOM      8  C   UNL d   1      51.289  33.783  52.865  0.00  0.00     0.002 A 
ATOM      9  C   UNL d   1      51.425  34.597  52.920  0.00  0.00     0.002 A 
ENDROOT
BRANCH   2  10
ATOM     10  C   UNL d   1      53.196  32.323  54.101  0.00  0.00     0.082 C 
BRANCH  10  11
ATOM     11  C   UNL d   1      53.375  31.863  53.441  0.00  0.00     0.019 C 
BRANCH  11  12
ATOM     12  C   UNL d   1      53.292  31.048  53.485  0.00  0.00     0.002 A 
ATOM     13  C   UNL d   1      53.456  30.657  54.183  0.00  0.00     0.000 A 
ATOM     14  C   UNL d   1      53.372  29.843  54.227  0.00  0.00     0.000 A 
ATOM     15  C   UNL d   1      53.125  29.419  53.572  0.00  0.00     0.000 A 
ATOM     16  C   UNL d   1      52.958  29.811  52.865  0.00  0.00     0.000 A 
ATOM     17  C   UNL d   1      53.044  30.628  52.829  0.00  0.00     0.000 A 
ENDBRANCH  11  12
ENDBRANCH  10  11
ENDBRANCH   2  10
BRANCH   1  18
ATOM     18  C   UNL d   1      54.316  33.594  54.751  0.00  0.00     0.035 A 
ATOM     19  C   UNL d   1      54.697  33.364  55.447  0.00  0.00     0.003 A 
ATOM     20  C   UNL d   1      55.140  33.600  54.790  0.00  0.00     0.003 A 
ENDBRANCH   1  18
TORSDOF 4
ENDMDL
MODEL 4
REMARK VINA RESULT:      -9.5      0.984      3.829
REMARK  4 active torsions:
REMARK  status: ('A' for Active; 'I' for Inactive)
REMARK    1  A    between atoms: C_6  and  C_1 
REMARK    2  A    between atoms: C_7  and  N_2 
REMARK    3  A    between atoms: C_10  and  C_7 
REMARK    4  A    between atoms: C_11  and  C_10 
ROOT
ATOM      1  C   UNL d   1      52.350  32.276  52.984  0.00  0.00     0.148 A 
ATOM      2  N   UNL d   1      53.076  32.068  53.340  0.00  0.00    -0.289 N 
ATOM      3  N   UNL d   1      51.960  31.564  52.763  0.00  0.00    -0.227 NA
ATOM      4  C   UNL d   1      53.137  31.238  53.340  0.00  0.00     0.083 A 
ATOM      5  C   UNL d   1      52.455  30.929  52.987  0.00  0.00     0.099 A 
ATOM      6  C   UNL d   1      53.723  30.715  53.614  0.00  0.00     0.019 A 
ATOM      7  C   UNL d   1      52.345  30.110  52.901  0.00  0.00     0.021 A 
ATOM      8  C   UNL d   1      53.623  29.900  53.534  0.00  0.00     0.002 A 
ATOM      9  C   UNL d   1      52.939  29.600  53.180  0.00  0.00     0.002 A 
ENDROOT
BRANCH   2  10
ATOM     10  C   UNL d   1      53.639  32.599  53.642  0.00  0.00     0.082 C 
BRANCH  10  11
ATOM     11  C   UNL d   1      53.934  32.491  54.405  0.00  0.00     0.019 C 
BRANCH  11  12
ATOM     12  C   UNL d   1      54.455  33.042  54.717  0.00  0.00     0.002 A 
ATOM     13  C   UNL d   1      55.064  33.335  54.257  0.00  0.00     0.000 A 
ATOM     14  C   UNL d   1      55.584  33.886  54.569  0.00  0.00     0.000 A 
ATOM     15  C   UNL d   1      55.496  34.145  55.341  0.00  0.00     0.000 A 
ATOM     16  C   UNL d   1      54.882  33.851  55.807  0.00  0.00     0.000 A 
ATOM     17  C   UNL d   1      54.364  33.298  55.488  0.00  0.00     0.000 A 
ENDBRANCH  11  12
ENDBRANCH  10  11
ENDBRANCH   2  10
BRANCH   1  18
ATOM     18  C   UNL d   1      52.060  33.042  52.867  0.00  0.00     0.035 A 
ATOM     19  C   UNL d   1      52.057  33.755  52.452  0.00  0.00     0.003 A 
ATOM     20  C   UNL d   1      51.550  33.648  53.096  0.00  0.00     0.003 A 
ENDBRANCH   1  18
TORSDOF 4
ENDMDL
MODEL 5
REMARK VINA RESULT:      -9.3      0.777      3.132
REMARK  4 active torsions:
REMARK  status: ('A' for Active; 'I' for Inactive)
REMARK    1  A    between atoms: C_6  and  C_1 
REMARK    2  A    between atoms: C_7  and  N_2 
REMARK    3  A    between atoms: C_10  and  C_7 
REMARK    4  A    between atoms: C_11  and  C_10 
ROOT
ATOM      1  C   UNL d   1      52.582  33.743  53.792  0.00  0.00     0.148 A 
ATOM      2  N   UNL d   1      53.023  33.083  54.049  0.00  0.00    -0.289 N 
ATOM      3  N   UNL d   1      52.964  34.435  54.082  0.00  0.00    -0.227 NA
ATOM      4  C   UNL d   1      53.670  33.360  54.492  0.00  0.00     0.083 A 
ATOM      5  C   UNL d   1      53.635  34.186  54.513  0.00  0.00     0.099 A 
ATOM      6  C   UNL d   1      54.294  32.971  54.884  0.00  0.00     0.019 A 
ATOM      7  C   UNL d   1      54.208  34.634  54.915  0.00  0.00     0.021 A 
ATOM      8  C   UNL d   1      54.867  33.406  55.287  0.00  0.00     0.002 A 
ATOM      9  C   UNL d   1      54.825  34.232  55.302  0.00  0.00     0.002 A 
ENDROOT
BRANCH   2  10
ATOM     10  C   UNL d   1      52.844  32.287  53.889  0.00  0.00     0.082 C 
BRANCH  10  11
ATOM     11  C   UNL d   1      53.416  31.802  53.546  0.00  0.00     0.019 C 
BRANCH  11  12
ATOM     12  C   UNL d   1      53.254  31.006  53.435  0.00  0.00     0.002 A 
ATOM     13  C   UNL d   1      52.979  30.742  52.712  0.00  0.00     0.000 A 
ATOM     14  C   UNL d   1      52.818  29.946  52.601  0.00  0.00     0.000 A 
ATOM     15  C   UNL d   1      52.930  29.414  53.213  0.00  0.00     0.000 A 
ATOM     16  C   UNL d   1      53.207  29.678  53.944  0.00  0.00     0.000 A 
ATOM     17  C   UNL d   1      53.367  30.477  54.048  0.00  0.00     0.000 A 
ENDBRANCH  11  12
ENDBRANCH  10  11
ENDBRANCH   2  10
BRANCH   1  18
ATOM     18  C   UNL d   1      51.893  33.729  53.335  0.00  0.00     0.035 A 
ATOM     19  C   UNL d   1      51.086  33.575  53.255  0.00  0.00     0.003 A 
ATOM     20  C   UNL d   1      51.520  33.863  52.612  0.00  0.00     0.003 A 
ENDBRANCH   1  18
TORSDOF 4
ENDMDL
MODEL 6
REMARK VINA RESULT:      -8.5      0.818      3.507
REMARK  4 active torsions:
REMARK  status: ('A' for Active; 'I' for Inactive)
REMARK    1  A    between atoms: C_6  and  C_1 
REMARK    2  A    between atoms: C_7  and  N_2 
REMARK    3  A    between atoms: C_10  and  C_7 
REMARK    4  A    between atoms: C_11  and  C_10 
ROOT
ATOM      1  C   UNL d   1      52.381  31.916  52.982  0.00  0.00     0.148 A 
ATOM      2  N   UNL d   1      52.716  32.642  53.220  0.00  0.00    -0.289 N 
ATOM      3  N   UNL d   1      51.597  32.070  52.719  0.00  0.00    -0.227 NA
ATOM      4  C   UNL d   1      52.148  33.239  53.106  0.00  0.00     0.083 A 
ATOM      5  C   UNL d   1      51.464  32.891  52.800  0.00  0.00     0.099 A 
ATOM      6  C   UNL d   1      52.159  34.061  53.241  0.00  0.00     0.019 A 
ATOM      7  C   UNL d   1      50.789  33.342  52.624  0.00  0.00     0.021 A 
ATOM      8  C   UNL d   1      51.494  34.518  53.069  0.00  0.00     0.002 A 
ATOM      9  C   UNL d   1      50.814  34.161  52.763  0.00  0.00     0.002 A 
ENDROOT
BRANCH   2  10
ATOM     10  C   UNL d   1      53.485  32.748  53.519  0.00  0.00     0.082 C 
BRANCH  10  11
ATOM     11  C   UNL d   1      53.602  32.794  54.334  0.00  0.00     0.019 C 
BRANCH  11  12
ATOM     12  C   UNL d   1      54.281  33.152  54.622  0.00  0.00     0.002 A 
ATOM     13  C   UNL d   1      54.914  33.291  54.124  0.00  0.00     0.000 A 
ATOM     14  C   UNL d   1      55.592  33.649  54.413  0.00  0.00     0.000 A 
ATOM     15  C   UNL d   1      55.638  33.869  55.200  0.00  0.00     0.000 A 
ATOM     16  C   UNL d   1      55.001  33.730  55.706  0.00  0.00     0.000 A 
ATOM     17  C   UNL d   1      54.324  33.371  55.409  0.00  0.00     0.000 A 
ENDBRANCH  11  12
ENDBRANCH  10  11
ENDBRANCH   2  10
BRANCH   1  18
ATOM     18  C   UNL d   1      52.748  31.174  52.999  0.00  0.00     0.035 A 
ATOM     19  C   UNL d   1      53.283  30.628  52.687  0.00  0.00     0.003 A 
ATOM     20  C   UNL d   1      52.836  30.436  53.356  0.00  0.00     0.003 A 
ENDBRANCH   1  18
TORSDOF 4
ENDMDL
