MODEL 1
REMARK VINA RESULT:      -3.4      0.000      0.000
REMARK  6 active torsions:
REMARK  status: ('A' for Active; 'I' for Inactive)
REMARK    1  A    between atoms: C_9  and  N_1 
REMARK    2  A    between atoms: C_2  and  C_3 
REMARK    3  A    between atoms: C_4  and  C_6 
REMARK    4  A    between atoms: C_7  and  C_5 
REMARK       I    between atoms: C_6  and  N_8 
REMARK    5  A    between atoms: N_8  and  N_12 
REMARK    6  A    between atoms: N_12  and  C_17 
ROOT
ATOM      1  C   UNL d   1      59.348  -1.314  29.052  0.00  0.00     0.005 A 
ATOM      2  C   UNL d   1      58.536  -1.222  29.165  0.00  0.00     0.059 A 
ATOM      3  C   UNL d   1      59.646  -2.082  29.016  0.00  0.00     0.000 A 
ATOM      4  C   UNL d   1      58.048  -1.864  29.237  0.00  0.00     0.005 A 
ATOM      5  C   UNL d   1      59.147  -2.739  29.091  0.00  0.00     0.000 A 
ATOM      6  C   UNL d   1      58.359  -2.615  29.199  0.00  0.00     0.000 A 
ENDROOT
BRANCH   2   7
ATOM      7  C   UNL d   1      58.223  -0.442  29.203  0.00  0.00     0.297 C 
ATOM      8  N   UNL d   1      57.824  -0.212  29.886  0.00  0.00    -0.106 NA
ATOM      9  O   UNL d   1      58.316   0.080  28.563  0.00  0.00    -0.264 OA
BRANCH   8  10
ATOM     10  N   UNL d   1      57.731  -0.733  30.523  0.00  0.00    -0.145 NA
BRANCH  10  11
ATOM     11  C   UNL d   1      57.306  -0.502  31.180  0.00  0.00     0.103 A 
ATOM     12  C   UNL d   1      56.952  -1.064  31.653  0.00  0.00     0.023 A 
ATOM     13  C   UNL d   1      56.519  -0.838  32.322  0.00  0.00     0.025 A 
ATOM     14  C   UNL d   1      56.447  -0.045  32.505  0.00  0.00     0.127 A 
ATOM     15  C   UNL d   1      56.800   0.528  32.034  0.00  0.00     0.025 A 
ATOM     16  C   UNL d   1      57.234   0.301  31.366  0.00  0.00     0.023 A 
BRANCH  14  17
ATOM     17  N   UNL d   1      56.012   0.170  33.175  0.00  0.00    -0.114 N 
ATOM     18  O   UNL d   1      56.364   0.493  33.829  0.00  0.00    -0.532 OA
ATOM     19  O   UNL d   1      55.182   0.055  33.186  0.00  0.00    -0.532 OA
ENDBRANCH  14  17
ENDBRANCH  10  11
ENDBRANCH   8  10
ENDBRANCH   2   7
BRANCH   1  20
ATOM     20  C   UNL d   1      59.835  -0.673  28.980  0.00  0.00     0.006 A 
ATOM     21  C   UNL d   1      60.610  -0.717  29.232  0.00  0.00     0.064 A 
ATOM     22  C   UNL d   1      61.109  -0.062  29.158  0.00  0.00     0.006 A 
ATOM     23  C   UNL d   1      60.826   0.631  28.832  0.00  0.00     0.000 A 
ATOM     24  C   UNL d   1      60.082   0.682  28.587  0.00  0.00     0.000 A 
ATOM     25  C   UNL d   1      59.565   0.035  28.653  0.00  0.00     0.000 A 
BRANCH  21  26
ATOM     26  C   UNL d   1      60.908  -1.422  29.567  0.00  0.00     0.211 C 
ATOM     27  O   UNL d   1      61.133  -2.059  29.071  0.00  0.00    -0.644 OA
ATOM     28  O   UNL d   1      60.986  -1.502  30.387  0.00  0.00    -0.644 OA
ENDBRANCH  21  26
ENDBRANCH   1  20
TORSDOF 6
ENDMDL
MODEL 2
REMARK VINA RESULT:      -2.8      0.673      1.935
REMARK  6 active torsions:
REMARK  status: ('A' for Active; 'I' for Inactive)
REMARK    1  A    between atoms: C_9  and  N_1 
REMARK    2  A    between atoms: C_2  and  C_3 
REMARK    3  A    between atoms: C_4  and  C_6 
REMARK    4  A    between atoms: C_7  and  C_5 
REMARK       I    between atoms: C_6  and  N_8 
REMARK    5  A    between atoms: N_8  and  N_12 
REMARK    6  A    between atoms: N_12  and  C_17 
ROOT
ATOM      1  C   UNL d   1      59.543  -1.397  29.113  0.00  0.00     0.005 A 
ATOM      2  C   UNL d   1      59.036  -0.756  29.221  0.00  0.00     0.059 A 
ATOM      3  C   UNL d   1      60.354  -1.259  29.168  0.00  0.00     0.000 A 
ATOM      4  C   UNL d   1      59.324  -0.015  29.377  0.00  0.00     0.005 A 
ATOM      5  C   UNL d   1      60.649  -0.501  29.327  0.00  0.00     0.000 A 
ATOM      6  C   UNL d   1      60.128   0.103  29.428  0.00  0.00     0.000 A 
ENDROOT
BRANCH   2   7
ATOM      7  C   UNL d   1      58.207  -0.887  29.166  0.00  0.00     0.297 C 
ATOM      8  N   UNL d   1      57.742  -0.745  29.832  0.00  0.00    -0.106 NA
ATOM      9  O   UNL d   1      57.869  -1.154  28.456  0.00  0.00    -0.264 OA
BRANCH   8  10
ATOM     10  N   UNL d   1      58.079  -0.479  30.540  0.00  0.00    -0.145 NA
BRANCH  10  11
ATOM     11  C   UNL d   1      57.603  -0.319  31.183  0.00  0.00     0.103 A 
ATOM     12  C   UNL d   1      57.047  -0.864  31.424  0.00  0.00     0.023 A 
ATOM     13  C   UNL d   1      56.561  -0.709  32.076  0.00  0.00     0.025 A 
ATOM     14  C   UNL d   1      56.642  -0.003  32.479  0.00  0.00     0.127 A 
ATOM     15  C   UNL d   1      57.200   0.552  32.244  0.00  0.00     0.025 A 
ATOM     16  C   UNL d   1      57.686   0.397  31.592  0.00  0.00     0.023 A 
BRANCH  14  17
ATOM     17  N   UNL d   1      56.152   0.143  33.129  0.00  0.00    -0.114 N 
ATOM     18  O   UNL d   1      55.378  -0.095  33.143  0.00  0.00    -0.532 OA
ATOM     19  O   UNL d   1      56.456   0.547  33.797  0.00  0.00    -0.532 OA
ENDBRANCH  14  17
ENDBRANCH  10  11
ENDBRANCH   8  10
ENDBRANCH   2   7
BRANCH   1  20
ATOM     20  C   UNL d   1      59.255  -2.136  28.958  0.00  0.00     0.006 A 
ATOM     21  C   UNL d   1      59.696  -2.796  29.148  0.00  0.00     0.064 A 
ATOM     22  C   UNL d   1      59.401  -3.552  28.989  0.00  0.00     0.006 A 
ATOM     23  C   UNL d   1      58.669  -3.640  28.642  0.00  0.00     0.000 A 
ATOM     24  C   UNL d   1      58.237  -3.010  28.456  0.00  0.00     0.000 A 
ATOM     25  C   UNL d   1      58.515  -2.242  28.607  0.00  0.00     0.000 A 
BRANCH  21  26
ATOM     26  C   UNL d   1      60.448  -2.716  29.503  0.00  0.00     0.211 C 
ATOM     27  O   UNL d   1      61.133  -2.648  29.025  0.00  0.00    -0.644 OA
ATOM     28  O   UNL d   1      60.528  -2.703  30.326  0.00  0.00    -0.644 OA
ENDBRANCH  21  26
ENDBRANCH   1  20
TORSDOF 6
ENDMDL
MODEL 3
REMARK VINA RESULT:      -1.8      0.867      1.727
REMARK  6 active torsions:
REMARK  status: ('A' for Active; 'I' for Inactive)
REMARK    1  A    between atoms: C_9  and  N_1 
REMARK    2  A    between atoms: C_2  and  C_3 
REMARK    3  A    between atoms: C_4  and  C_6 
REMARK    4  A    between atoms: C_7  and  C_5 
REMARK       I    between atoms: C_6  and  N_8 
REMARK    5  A    between atoms: N_8  and  N_12 
REMARK    6  A    between atoms: N_12  and  C_17 
ROOT
ATOM      1  C   UNL d   1      59.246  -0.631  29.008  0.00  0.00     0.005 A 
ATOM      2  C   UNL d   1      58.467  -0.612  29.280  0.00  0.00     0.059 A 
ATOM      3  C   UNL d   1      59.524   0.026  28.594  0.00  0.00     0.000 A 
ATOM      4  C   UNL d   1      57.992   0.029  29.144  0.00  0.00     0.005 A 
ATOM      5  C   UNL d   1      59.037   0.681  28.455  0.00  0.00     0.000 A 
ATOM      6  C   UNL d   1      58.283   0.668  28.733  0.00  0.00     0.000 A 
ENDROOT
BRANCH   2   7
ATOM      7  C   UNL d   1      58.175  -1.277  29.704  0.00  0.00     0.297 C 
ATOM      8  N   UNL d   1      57.801  -1.149  30.427  0.00  0.00    -0.106 NA
ATOM      9  O   UNL d   1      58.264  -2.044  29.397  0.00  0.00    -0.264 OA
BRANCH   8  10
ATOM     10  N   UNL d   1      57.712  -0.384  30.733  0.00  0.00    -0.145 NA
BRANCH  10  11
ATOM     11  C   UNL d   1      57.304  -0.268  31.429  0.00  0.00     0.103 A 
ATOM     12  C   UNL d   1      56.798  -0.845  31.706  0.00  0.00     0.023 A 
ATOM     13  C   UNL d   1      56.380  -0.734  32.412  0.00  0.00     0.025 A 
ATOM     14  C   UNL d   1      56.478  -0.040  32.833  0.00  0.00     0.127 A 
ATOM     15  C   UNL d   1      56.985   0.546  32.562  0.00  0.00     0.025 A 
ATOM     16  C   UNL d   1      57.403   0.435  31.855  0.00  0.00     0.023 A 
BRANCH  14  17
ATOM     17  N   UNL d   1      56.056   0.061  33.536  0.00  0.00    -0.114 N 
ATOM     18  O   UNL d   1      55.252  -0.027  33.570  0.00  0.00    -0.532 OA
ATOM     19  O   UNL d   1      56.464   0.259  34.241  0.00  0.00    -0.532 OA
ENDBRANCH  14  17
ENDBRANCH  10  11
ENDBRANCH   8  10
ENDBRANCH   2   7
BRANCH   1  20
ATOM     20  C   UNL d   1      59.721  -1.271  29.144  0.00  0.00     0.006 A 
ATOM     21  C   UNL d   1      60.481  -1.165  29.420  0.00  0.00     0.064 A 
ATOM     22  C   UNL d   1      60.967  -1.820  29.558  0.00  0.00     0.006 A 
ATOM     23  C   UNL d   1      60.686  -2.573  29.420  0.00  0.00     0.000 A 
ATOM     24  C   UNL d   1      59.955  -2.684  29.154  0.00  0.00     0.000 A 
ATOM     25  C   UNL d   1      59.451  -2.039  29.009  0.00  0.00     0.000 A 
BRANCH  21  26
ATOM     26  C   UNL d   1      60.778  -0.398  29.564  0.00  0.00     0.211 C 
ATOM     27  O   UNL d   1      61.133   0.038  28.944  0.00  0.00    -0.644 OA
ATOM     28  O   UNL d   1      60.726  -0.059  30.317  0.00  0.00    -0.644 OA
ENDBRANCH  21  26
ENDBRANCH   1  20
TORSDOF 6
ENDMDL
