MODEL 1
REMARK VINA RESULT:      50.3      0.000      0.000
REMARK  6 active torsions:
REMARK  status: ('A' for Active; 'I' for Inactive)
REMARK    1  A    between atoms: C_7  and  C_4 
REMARK    2  A    between atoms: O_17  and  C_6 
REMARK    3  A    between atoms: C_8  and  C_7 
REMARK    4  A    between atoms: C_12  and  C_8 
REMARK    5  A    between atoms: O_21  and  C_11 
REMARK    6  A    between atoms: O_22  and  C_18 
ROOT
ATOM      1  C   UNL d   1     -51.732  24.758  33.308  0.00  0.00     0.090 A 
ATOM      2  C   UNL d   1     -51.016  24.354  33.309  0.00  0.00     0.302 A 
ATOM      3  O   UNL d   1     -50.470  24.927  33.308  0.00  0.00    -0.273 OA
ATOM      4  C   UNL d   1     -50.808  25.638  33.307  0.00  0.00     0.107 A 
ATOM      5  C   UNL d   1     -51.606  25.549  33.307  0.00  0.00     0.030 A 
ATOM      6  C   UNL d   1     -52.523  24.456  33.308  0.00  0.00     0.121 A 
ATOM      7  C   UNL d   1     -52.233  26.075  33.306  0.00  0.00     0.004 A 
ATOM      8  O   UNL d   1     -50.897  23.507  33.310  0.00  0.00    -0.259 OA
ATOM      9  C   UNL d   1     -53.152  24.997  33.307  0.00  0.00     0.117 A 
ATOM     10  C   UNL d   1     -53.005  25.781  33.306  0.00  0.00     0.026 A 
ENDROOT
BRANCH   4  11
ATOM     11  C   UNL d   1     -50.400  26.374  33.306  0.00  0.00     0.067 C 
BRANCH  11  12
ATOM     12  C   UNL d   1     -49.615  26.487  33.548  0.00  0.00     0.198 C 
ATOM     13  O   UNL d   1     -49.071  25.849  33.324  0.00  0.00    -0.286 OA
BRANCH  12  14
ATOM     14  C   UNL d   1     -49.354  27.090  33.938  0.00  0.00     0.039 A 
ATOM     15  C   UNL d   1     -48.901  27.619  33.557  0.00  0.00     0.005 A 
ATOM     16  C   UNL d   1     -48.613  28.279  33.983  0.00  0.00     0.024 A 
ATOM     17  C   UNL d   1     -48.764  28.440  34.803  0.00  0.00     0.094 A 
ATOM     18  C   UNL d   1     -49.249  27.853  35.169  0.00  0.00     0.024 A 
ATOM     19  C   UNL d   1     -49.501  27.246  34.738  0.00  0.00     0.005 A 
BRANCH  17  20
ATOM     20  O   UNL d   1     -48.474  29.090  35.200  0.00  0.00    -0.328 OA
ATOM     21  C   UNL d   1     -47.774  29.049  35.862  0.00  0.00     0.181 C 
ENDBRANCH  17  20
ENDBRANCH  12  14
ENDBRANCH  11  12
ENDBRANCH   4  11
BRANCH   6  22
ATOM     22  O   UNL d   1     -52.684  23.661  33.309  0.00  0.00    -0.326 OA
ATOM     23  C   UNL d   1     -53.290  23.381  33.733  0.00  0.00     0.181 C 
ENDBRANCH   6  22
BRANCH   9  24
ATOM     24  O   UNL d   1     -53.945  24.762  33.307  0.00  0.00    -0.326 OA
ATOM     25  C   UNL d   1     -54.533  25.286  33.479  0.00  0.00     0.181 C 
ENDBRANCH   9  24
TORSDOF 6
ENDMDL
