MODEL 1
REMARK VINA RESULT:      64.2      0.000      0.000
REMARK  5 active torsions:
REMARK  status: ('A' for Active; 'I' for Inactive)
REMARK    1  A    between atoms: C_6  and  S_1 
REMARK    2  A    between atoms: C_9  and  S_1 
REMARK    3  A    between atoms: C_2  and  S_11 
REMARK    4  A    between atoms: N_4  and  C_3 
REMARK    5  A    between atoms: S_11  and  C_10 
ROOT
ATOM      1  C   UNL d   1     -55.642-100.336 -44.273  0.00  0.00     0.133 A 
ATOM      2  C   UNL d   1     -56.326 -99.975 -44.561  0.00  0.00     0.035 A 
ATOM      3  C   UNL d   1     -56.765 -99.473 -44.073  0.00  0.00     0.094 A 
ATOM      4  C   UNL d   1     -55.397-100.192 -43.495  0.00  0.00     0.054 A 
ATOM      5  C   UNL d   1     -56.516 -99.333 -43.297  0.00  0.00     0.012 A 
ATOM      6  C   UNL d   1     -55.834 -99.692 -43.011  0.00  0.00     0.009 A 
ENDROOT
BRANCH   4   7
ATOM      7  S   UNL d   1     -54.712-100.552 -43.205  0.00  0.00    -0.047 SA
BRANCH   7   8
ATOM      8  C   UNL d   1     -54.743-100.994 -42.509  0.00  0.00     0.194 A 
ATOM      9  N   UNL d   1     -54.796-100.689 -41.748  0.00  0.00    -0.220 NA
ATOM     10  C   UNL d   1     -54.812-101.326 -41.221  0.00  0.00     0.101 A 
ATOM     11  C   UNL d   1     -54.860-101.360 -40.406  0.00  0.00     0.021 A 
ATOM     12  C   UNL d   1     -54.768-102.019 -41.668  0.00  0.00     0.101 A 
ATOM     13  C   UNL d   1     -54.864-102.087 -40.024  0.00  0.00     0.002 A 
ATOM     14  C   UNL d   1     -54.820-102.786 -40.467  0.00  0.00     0.002 A 
ATOM     15  C   UNL d   1     -54.772-102.750 -41.290  0.00  0.00     0.021 A 
ATOM     16  N   UNL d   1     -54.725-101.814 -42.460  0.00  0.00    -0.220 NA
ENDBRANCH   7   8
ENDBRANCH   4   7
BRANCH   1  17
ATOM     17  N   UNL d   1     -55.203-100.839 -44.760  0.00  0.00    -0.113 N 
ATOM     18  O   UNL d   1     -55.177-101.648 -44.600  0.00  0.00    -0.532 OA
ATOM     19  O   UNL d   1     -54.789-100.532 -45.404  0.00  0.00    -0.532 OA
ENDBRANCH   1  17
BRANCH   3  20
ATOM     20  S   UNL d   1     -57.444 -99.115 -44.359  0.00  0.00     0.278 S 
ATOM     21  O   UNL d   1     -57.030 -98.825 -45.005  0.00  0.00    -0.213 OA
ATOM     22  O   UNL d   1     -58.126 -98.755 -44.648  0.00  0.00    -0.213 OA
BRANCH  20  23
ATOM     23  C   UNL d   1     -57.869 -99.404 -43.711  0.00  0.00     0.503 C 
ATOM     24  F   UNL d   1     -58.255 -99.664 -43.122  0.00  0.00    -0.157 F 
ATOM     25  F   UNL d   1     -58.395 -98.981 -43.172  0.00  0.00    -0.157 F 
ATOM     26  F   UNL d   1     -57.903-100.207 -43.393  0.00  0.00    -0.157 F 
ENDBRANCH  20  23
ENDBRANCH   3  20
TORSDOF 5
ENDMDL
