MODEL 1
REMARK VINA RESULT:      -8.4      0.000      0.000
REMARK  6 active torsions:
REMARK  status: ('A' for Active; 'I' for Inactive)
REMARK       I    between atoms: C_3  and  N_1 
REMARK    1  A    between atoms: C_5  and  N_1 
REMARK    2  A    between atoms: C_2  and  C_3 
REMARK    3  A    between atoms: N_9  and  C_5 
REMARK    4  A    between atoms: C_13  and  N_9 
REMARK    5  A    between atoms: C_11  and  C_13 
REMARK    6  A    between atoms: C_15  and  C_11 
ROOT
ATOM      1  C   UNL d   1      53.591  33.021  54.202  0.00  0.00     0.224 C 
ATOM      2  S   UNL d   1      54.116  33.232  54.808  0.00  0.00    -0.037 SA
ENDROOT
BRANCH   1   3
ATOM      3  N   UNL d   1      53.324  32.243  54.143  0.00  0.00    -0.177 NA
ATOM      4  C   UNL d   1      53.810  31.667  53.791  0.00  0.00     0.304 C 
ATOM      5  O   UNL d   1      54.547  31.868  53.506  0.00  0.00    -0.263 OA
BRANCH   4   6
ATOM      6  C   UNL d   1      53.542  30.889  53.733  0.00  0.00     0.158 A 
ATOM      7  O   UNL d   1      53.615  30.304  54.310  0.00  0.00    -0.296 OA
ATOM      8  C   UNL d   1      53.278  29.617  54.030  0.00  0.00     0.134 A 
ATOM      9 BR   UNL d   1      53.229  28.899  54.425  0.00  0.00    -0.022 Br
ATOM     10  C   UNL d   1      52.991  29.769  53.273  0.00  0.00     0.034 A 
ATOM     11  C   UNL d   1      53.156  30.563  53.087  0.00  0.00     0.032 A 
ENDBRANCH   4   6
ENDBRANCH   1   3
BRANCH   1  12
ATOM     12  N   UNL d   1      53.343  33.592  53.663  0.00  0.00    -0.212 NA
BRANCH  12  13
ATOM     13  C   UNL d   1      52.591  33.904  53.726  0.00  0.00     0.143 C 
BRANCH  13  14
ATOM     14  C   UNL d   1      52.337  34.464  53.178  0.00  0.00     0.215 C 
ATOM     15  O   UNL d   1      52.831  35.072  52.933  0.00  0.00    -0.285 OA
BRANCH  14  16
ATOM     16  C   UNL d   1      51.571  34.422  52.864  0.00  0.00     0.041 A 
ATOM     17  C   UNL d   1      51.468  34.204  52.073  0.00  0.00     0.003 A 
ATOM     18  C   UNL d   1      50.710  34.160  51.752  0.00  0.00     0.000 A 
ATOM     19  C   UNL d   1      50.049  34.334  52.225  0.00  0.00     0.000 A 
ATOM     20  C   UNL d   1      50.152  34.552  53.016  0.00  0.00     0.000 A 
ATOM     21  C   UNL d   1      50.917  34.595  53.334  0.00  0.00     0.003 A 
ENDBRANCH  14  16
ENDBRANCH  13  14
ENDBRANCH  12  13
ENDBRANCH   1  12
TORSDOF 6
ENDMDL
MODEL 2
REMARK VINA RESULT:      -7.9      1.804      4.391
REMARK  6 active torsions:
REMARK  status: ('A' for Active; 'I' for Inactive)
REMARK       I    between atoms: C_3  and  N_1 
REMARK    1  A    between atoms: C_5  and  N_1 
REMARK    2  A    between atoms: C_2  and  C_3 
REMARK    3  A    between atoms: N_9  and  C_5 
REMARK    4  A    between atoms: C_13  and  N_9 
REMARK    5  A    between atoms: C_11  and  C_13 
REMARK    6  A    between atoms: C_15  and  C_11 
ROOT
ATOM      1  C   UNL d   1      52.897  33.690  53.977  0.00  0.00     0.224 C 
ATOM      2  S   UNL d   1      53.138  34.218  54.569  0.00  0.00    -0.037 SA
ENDROOT
BRANCH   1   3
ATOM      3  N   UNL d   1      52.137  33.749  53.660  0.00  0.00    -0.177 NA
ATOM      4  C   UNL d   1      51.957  34.369  53.137  0.00  0.00     0.304 C 
ATOM      5  O   UNL d   1      52.527  34.918  52.937  0.00  0.00    -0.263 OA
BRANCH   4   6
ATOM      6  C   UNL d   1      51.198  34.427  52.821  0.00  0.00     0.158 A 
ATOM      7  O   UNL d   1      50.548  34.791  53.176  0.00  0.00    -0.296 OA
ATOM      8  C   UNL d   1      49.906  34.725  52.678  0.00  0.00     0.134 A 
ATOM      9 BR   UNL d   1      49.149  35.011  52.816  0.00  0.00    -0.022 Br
ATOM     10  C   UNL d   1      50.152  34.318  52.006  0.00  0.00     0.034 A 
ATOM     11  C   UNL d   1      50.958  34.131  52.094  0.00  0.00     0.032 A 
ENDBRANCH   4   6
ENDBRANCH   1   3
BRANCH   1  12
ATOM     12  N   UNL d   1      53.419  33.112  53.712  0.00  0.00    -0.212 NA
BRANCH  12  13
ATOM     13  C   UNL d   1      53.339  32.345  53.978  0.00  0.00     0.143 C 
BRANCH  13  14
ATOM     14  C   UNL d   1      53.787  31.747  53.633  0.00  0.00     0.215 C 
ATOM     15  O   UNL d   1      54.540  31.895  53.341  0.00  0.00    -0.285 OA
BRANCH  14  16
ATOM     16  C   UNL d   1      53.482  30.978  53.575  0.00  0.00     0.041 A 
ATOM     17  C   UNL d   1      53.630  30.436  54.182  0.00  0.00     0.003 A 
ATOM     18  C   UNL d   1      53.330  29.669  54.132  0.00  0.00     0.000 A 
ATOM     19  C   UNL d   1      52.880  29.442  53.472  0.00  0.00     0.000 A 
ATOM     20  C   UNL d   1      52.733  29.984  52.865  0.00  0.00     0.000 A 
ATOM     21  C   UNL d   1      53.036  30.754  52.919  0.00  0.00     0.003 A 
ENDBRANCH  14  16
ENDBRANCH  13  14
ENDBRANCH  12  13
ENDBRANCH   1  12
TORSDOF 6
ENDMDL
MODEL 3
REMARK VINA RESULT:      -7.8      3.098      5.276
REMARK  6 active torsions:
REMARK  status: ('A' for Active; 'I' for Inactive)
REMARK       I    between atoms: C_3  and  N_1 
REMARK    1  A    between atoms: C_5  and  N_1 
REMARK    2  A    between atoms: C_2  and  C_3 
REMARK    3  A    between atoms: N_9  and  C_5 
REMARK    4  A    between atoms: C_13  and  N_9 
REMARK    5  A    between atoms: C_11  and  C_13 
REMARK    6  A    between atoms: C_15  and  C_11 
ROOT
ATOM      1  C   UNL d   1      50.746  34.150  53.015  0.00  0.00     0.224 C 
ATOM      2  S   UNL d   1      50.599  33.359  52.813  0.00  0.00    -0.037 SA
ENDROOT
BRANCH   1   3
ATOM      3  N   UNL d   1      50.115  34.651  53.194  0.00  0.00    -0.177 NA
ATOM      4  C   UNL d   1      49.549  34.823  52.610  0.00  0.00     0.304 C 
ATOM      5  O   UNL d   1      49.614  34.499  51.864  0.00  0.00    -0.263 OA
BRANCH   4   6
ATOM      6  C   UNL d   1      48.919  35.324  52.789  0.00  0.00     0.158 A 
ATOM      7  O   UNL d   1      48.829  35.767  53.480  0.00  0.00    -0.296 OA
ATOM      8  C   UNL d   1      48.131  36.186  53.434  0.00  0.00     0.134 A 
ATOM      9 BR   UNL d   1      47.829  36.695  54.002  0.00  0.00    -0.022 Br
ATOM     10  C   UNL d   1      47.779  36.007  52.711  0.00  0.00     0.034 A 
ATOM     11  C   UNL d   1      48.271  35.469  52.308  0.00  0.00     0.032 A 
ENDBRANCH   4   6
ENDBRANCH   1   3
BRANCH   1  12
ATOM     12  N   UNL d   1      51.521  34.426  53.035  0.00  0.00    -0.212 NA
BRANCH  12  13
ATOM     13  C   UNL d   1      52.085  34.013  53.456  0.00  0.00     0.143 C 
BRANCH  13  14
ATOM     14  C   UNL d   1      52.840  34.329  53.541  0.00  0.00     0.215 C 
ATOM     15  O   UNL d   1      53.037  35.053  53.209  0.00  0.00    -0.285 OA
BRANCH  14  16
ATOM     16  C   UNL d   1      53.419  33.916  53.967  0.00  0.00     0.041 A 
ATOM     17  C   UNL d   1      53.598  34.149  54.740  0.00  0.00     0.003 A 
ATOM     18  C   UNL d   1      54.173  33.743  55.171  0.00  0.00     0.000 A 
ATOM     19  C   UNL d   1      54.571  33.100  54.828  0.00  0.00     0.000 A 
ATOM     20  C   UNL d   1      54.392  32.867  54.055  0.00  0.00     0.000 A 
ATOM     21  C   UNL d   1      53.813  33.278  53.626  0.00  0.00     0.003 A 
ENDBRANCH  14  16
ENDBRANCH  13  14
ENDBRANCH  12  13
ENDBRANCH   1  12
TORSDOF 6
ENDMDL
MODEL 4
REMARK VINA RESULT:      -6.9      1.686      2.205
REMARK  6 active torsions:
REMARK  status: ('A' for Active; 'I' for Inactive)
REMARK       I    between atoms: C_3  and  N_1 
REMARK    1  A    between atoms: C_5  and  N_1 
REMARK    2  A    between atoms: C_2  and  C_3 
REMARK    3  A    between atoms: N_9  and  C_5 
REMARK    4  A    between atoms: C_13  and  N_9 
REMARK    5  A    between atoms: C_11  and  C_13 
REMARK    6  A    between atoms: C_15  and  C_11 
ROOT
ATOM      1  C   UNL d   1      51.811  33.863  53.126  0.00  0.00     0.224 C 
ATOM      2  S   UNL d   1      52.121  34.463  53.606  0.00  0.00    -0.037 SA
ENDROOT
BRANCH   1   3
ATOM      3  N   UNL d   1      52.026  33.078  53.261  0.00  0.00    -0.177 NA
ATOM      4  C   UNL d   1      52.809  32.836  53.121  0.00  0.00     0.304 C 
ATOM      5  O   UNL d   1      53.363  33.371  52.851  0.00  0.00    -0.263 OA
BRANCH   4   6
ATOM      6  C   UNL d   1      53.023  32.052  53.256  0.00  0.00     0.158 A 
ATOM      7  O   UNL d   1      52.637  31.384  52.964  0.00  0.00    -0.296 OA
ATOM      8  C   UNL d   1      53.028  30.719  53.228  0.00  0.00     0.134 A 
ATOM      9 BR   UNL d   1      52.829  29.939  53.067  0.00  0.00    -0.022 Br
ATOM     10  C   UNL d   1      53.663  30.969  53.689  0.00  0.00     0.034 A 
ATOM     11  C   UNL d   1      53.661  31.801  53.707  0.00  0.00     0.032 A 
ENDBRANCH   4   6
ENDBRANCH   1   3
BRANCH   1  12
ATOM     12  N   UNL d   1      51.290  34.057  52.519  0.00  0.00    -0.212 NA
BRANCH  12  13
ATOM     13  C   UNL d   1      50.564  34.382  52.699  0.00  0.00     0.143 C 
BRANCH  13  14
ATOM     14  C   UNL d   1      50.015  34.507  52.099  0.00  0.00     0.215 C 
ATOM     15  O   UNL d   1      50.157  34.248  51.333  0.00  0.00    -0.285 OA
BRANCH  14  16
ATOM     16  C   UNL d   1      49.303  34.900  52.261  0.00  0.00     0.041 A 
ATOM     17  C   UNL d   1      48.712  34.925  51.683  0.00  0.00     0.003 A 
ATOM     18  C   UNL d   1      48.000  35.314  51.836  0.00  0.00     0.000 A 
ATOM     19  C   UNL d   1      47.879  35.680  52.571  0.00  0.00     0.000 A 
ATOM     20  C   UNL d   1      48.470  35.656  53.149  0.00  0.00     0.000 A 
ATOM     21  C   UNL d   1      49.183  35.264  52.991  0.00  0.00     0.003 A 
ENDBRANCH  14  16
ENDBRANCH  13  14
ENDBRANCH  12  13
ENDBRANCH   1  12
TORSDOF 6
ENDMDL
MODEL 5
REMARK VINA RESULT:      -6.5      2.191      2.824
REMARK  6 active torsions:
REMARK  status: ('A' for Active; 'I' for Inactive)
REMARK       I    between atoms: C_3  and  N_1 
REMARK    1  A    between atoms: C_5  and  N_1 
REMARK    2  A    between atoms: C_2  and  C_3 
REMARK    3  A    between atoms: N_9  and  C_5 
REMARK    4  A    between atoms: C_13  and  N_9 
REMARK    5  A    between atoms: C_11  and  C_13 
REMARK    6  A    between atoms: C_15  and  C_11 
ROOT
ATOM      1  C   UNL d   1      51.403  33.200  53.154  0.00  0.00     0.224 C 
ATOM      2  S   UNL d   1      50.971  32.508  53.300  0.00  0.00    -0.037 SA
ENDROOT
BRANCH   1   3
ATOM      3  N   UNL d   1      52.128  33.317  53.530  0.00  0.00    -0.177 NA
ATOM      4  C   UNL d   1      52.784  32.854  53.313  0.00  0.00     0.304 C 
ATOM      5  O   UNL d   1      52.711  32.285  52.732  0.00  0.00    -0.263 OA
BRANCH   4   6
ATOM      6  C   UNL d   1      53.508  32.971  53.688  0.00  0.00     0.158 A 
ATOM      7  O   UNL d   1      53.621  33.294  54.439  0.00  0.00    -0.296 OA
ATOM      8  C   UNL d   1      54.420  33.312  54.599  0.00  0.00     0.134 A 
ATOM      9 BR   UNL d   1      54.775  33.590  55.285  0.00  0.00    -0.022 Br
ATOM     10  C   UNL d   1      54.813  32.999  53.947  0.00  0.00     0.034 A 
ATOM     11  C   UNL d   1      54.244  32.786  53.377  0.00  0.00     0.032 A 
ENDBRANCH   4   6
ENDBRANCH   1   3
BRANCH   1  12
ATOM     12  N   UNL d   1      51.104  33.763  52.634  0.00  0.00    -0.212 NA
BRANCH  12  13
ATOM     13  C   UNL d   1      50.369  34.090  52.775  0.00  0.00     0.143 C 
BRANCH  13  14
ATOM     14  C   UNL d   1      49.994  34.516  52.179  0.00  0.00     0.215 C 
ATOM     15  O   UNL d   1      50.300  34.541  51.417  0.00  0.00    -0.285 OA
BRANCH  14  16
ATOM     16  C   UNL d   1      49.294  34.930  52.340  0.00  0.00     0.041 A 
ATOM     17  C   UNL d   1      48.695  34.952  51.770  0.00  0.00     0.003 A 
ATOM     18  C   UNL d   1      47.995  35.362  51.922  0.00  0.00     0.000 A 
ATOM     19  C   UNL d   1      47.893  35.751  52.649  0.00  0.00     0.000 A 
ATOM     20  C   UNL d   1      48.492  35.729  53.219  0.00  0.00     0.000 A 
ATOM     21  C   UNL d   1      49.193  35.316  53.061  0.00  0.00     0.003 A 
ENDBRANCH  14  16
ENDBRANCH  13  14
ENDBRANCH  12  13
ENDBRANCH   1  12
TORSDOF 6
ENDMDL
MODEL 6
REMARK VINA RESULT:      -6.5      3.021      4.134
REMARK  6 active torsions:
REMARK  status: ('A' for Active; 'I' for Inactive)
REMARK       I    between atoms: C_3  and  N_1 
REMARK    1  A    between atoms: C_5  and  N_1 
REMARK    2  A    between atoms: C_2  and  C_3 
REMARK    3  A    between atoms: N_9  and  C_5 
REMARK    4  A    between atoms: C_13  and  N_9 
REMARK    5  A    between atoms: C_11  and  C_13 
REMARK    6  A    between atoms: C_15  and  C_11 
ROOT
ATOM      1  C   UNL d   1      49.932  34.562  52.638  0.00  0.00     0.224 C 
ATOM      2  S   UNL d   1      49.671  34.342  51.882  0.00  0.00    -0.037 SA
ENDROOT
BRANCH   1   3
ATOM      3  N   UNL d   1      50.530  34.130  53.007  0.00  0.00    -0.177 NA
ATOM      4  C   UNL d   1      51.293  34.118  52.676  0.00  0.00     0.304 C 
ATOM      5  O   UNL d   1      51.450  34.530  51.989  0.00  0.00    -0.263 OA
BRANCH   4   6
ATOM      6  C   UNL d   1      51.890  33.686  53.045  0.00  0.00     0.158 A 
ATOM      7  O   UNL d   1      52.129  32.920  52.852  0.00  0.00    -0.296 OA
ATOM      8  C   UNL d   1      52.734  32.701  53.352  0.00  0.00     0.134 A 
ATOM      9 BR   UNL d   1      53.133  31.983  53.351  0.00  0.00    -0.022 Br
ATOM     10  C   UNL d   1      52.878  33.331  53.862  0.00  0.00     0.034 A 
ATOM     11  C   UNL d   1      52.352  33.947  53.671  0.00  0.00     0.032 A 
ENDBRANCH   4   6
ENDBRANCH   1   3
BRANCH   1  12
ATOM     12  N   UNL d   1      49.590  35.210  53.012  0.00  0.00    -0.212 NA
BRANCH  12  13
ATOM     13  C   UNL d   1      48.789  35.344  52.934  0.00  0.00     0.143 C 
BRANCH  13  14
ATOM     14  C   UNL d   1      48.438  35.962  53.350  0.00  0.00     0.215 C 
ATOM     15  O   UNL d   1      48.879  36.442  53.849  0.00  0.00    -0.285 OA
BRANCH  14  16
ATOM     16  C   UNL d   1      47.626  36.110  53.270  0.00  0.00     0.041 A 
ATOM     17  C   UNL d   1      47.125  35.987  53.917  0.00  0.00     0.003 A 
ATOM     18  C   UNL d   1      46.316  36.132  53.846  0.00  0.00     0.000 A 
ATOM     19  C   UNL d   1      46.005  36.401  53.124  0.00  0.00     0.000 A 
ATOM     20  C   UNL d   1      46.506  36.523  52.478  0.00  0.00     0.000 A 
ATOM     21  C   UNL d   1      47.318  36.376  52.553  0.00  0.00     0.003 A 
ENDBRANCH  14  16
ENDBRANCH  13  14
ENDBRANCH  12  13
ENDBRANCH   1  12
TORSDOF 6
ENDMDL
