MODEL 1
REMARK VINA RESULT:      51.6      0.000      0.000
REMARK  3 active torsions:
REMARK  status: ('A' for Active; 'I' for Inactive)
REMARK    1  A    between atoms: C_4  and  C_1 
REMARK    2  A    between atoms: C_9  and  N_2 
REMARK    3  A    between atoms: C_8  and  C_13 
ROOT
ATOM      1  N   UNL d   1     -55.206-100.706 -43.471  0.00  0.00    -0.273 N 
ATOM      2  C   UNL d   1     -54.997-101.488 -42.393  0.00  0.00     0.056 A 
ATOM      3  C   UNL d   1     -54.924-101.445 -43.736  0.00  0.00     0.265 A 
ATOM      4  C   UNL d   1     -55.249-100.737 -42.650  0.00  0.00     0.086 A 
ATOM      5  C   UNL d   1     -54.796-101.922 -43.075  0.00  0.00     0.066 A 
ATOM      6  O   UNL d   1     -54.796-101.653 -44.528  0.00  0.00    -0.267 OA
ENDROOT
BRANCH   1   7
ATOM      7  C   UNL d   1     -55.392-100.095 -43.970  0.00  0.00     0.067 A 
ATOM      8  C   UNL d   1     -56.170 -99.851 -44.044  0.00  0.00     0.021 A 
ATOM      9  C   UNL d   1     -56.376 -99.226 -44.552  0.00  0.00     0.073 A 
ATOM     10  C   UNL d   1     -55.775 -98.842 -44.993  0.00  0.00     0.004 A 
ATOM     11  C   UNL d   1     -54.997 -99.087 -44.918  0.00  0.00     0.001 A 
ATOM     12  C   UNL d   1     -54.802 -99.714 -44.407  0.00  0.00     0.018 A 
BRANCH   9  13
ATOM     13  C   UNL d   1     -57.152 -98.995 -44.614  0.00  0.00     0.419 C 
ATOM     14  F   UNL d   1     -57.951 -98.756 -44.685  0.00  0.00    -0.166 F 
ATOM     15  F   UNL d   1     -57.277 -99.176 -43.824  0.00  0.00    -0.166 F 
ATOM     16  F   UNL d   1     -57.042 -98.809 -45.414  0.00  0.00    -0.166 F 
ENDBRANCH   9  13
ENDBRANCH   1   7
BRANCH   2  17
ATOM     17  C   UNL d   1     -54.972-101.705 -41.604  0.00  0.00     0.142 A 
ATOM     18  N   UNL d   1     -54.786-102.407 -41.275  0.00  0.00    -0.227 NA
ATOM     19  C   UNL d   1     -54.844-102.339 -40.449  0.00  0.00     0.099 A 
ATOM     20  C   UNL d   1     -54.717-102.879 -39.848  0.00  0.00     0.021 A 
ATOM     21  C   UNL d   1     -55.072-101.571 -40.282  0.00  0.00     0.076 A 
ATOM     22  C   UNL d   1     -54.824-102.634 -39.060  0.00  0.00     0.002 A 
ATOM     23  C   UNL d   1     -55.052-101.866 -38.893  0.00  0.00     0.002 A 
ATOM     24  C   UNL d   1     -55.179-101.321 -39.511  0.00  0.00     0.019 A 
ATOM     25  N   UNL d   1     -55.152-101.174 -41.008  0.00  0.00    -0.338 N 
ATOM     26  H   UNL d   1     -55.376-100.373 -41.114  0.00  0.00     0.167 HD
ENDBRANCH   2  17
TORSDOF 3
ENDMDL
