MODEL 1
REMARK VINA RESULT:     112.0      0.000      0.000
REMARK  5 active torsions:
REMARK  status: ('A' for Active; 'I' for Inactive)
REMARK    1  A    between atoms: C_7  and  N_1 
REMARK    2  A    between atoms: C_2  and  C_6 
REMARK    3  A    between atoms: C_5  and  C_3 
REMARK    4  A    between atoms: N_8  and  C_5 
REMARK    5  A    between atoms: C_19  and  N_9 
ROOT
ATOM      1  C   UNL d   1      61.207  47.870  50.764  0.00  0.00     0.102 A 
ATOM      2  C   UNL d   1      61.330  46.816  49.944  0.00  0.00     0.126 A 
ATOM      3  O   UNL d   1      60.813  47.210  50.451  0.00  0.00    -0.305 OA
ATOM      4  C   UNL d   1      61.975  47.878  50.442  0.00  0.00     0.027 A 
ATOM      5  C   UNL d   1      62.044  47.231  49.942  0.00  0.00     0.029 A 
ENDROOT
BRANCH   2   6
ATOM      6  C   UNL d   1      61.163  46.099  49.493  0.00  0.00     0.143 C 
ATOM      7  S   UNL d   1      60.675  46.140  48.829  0.00  0.00    -0.057 SA
BRANCH   6   8
ATOM      8  N   UNL d   1      61.508  45.370  49.747  0.00  0.00    -0.291 N 
ATOM      9  C   UNL d   1      62.244  45.124  49.481  0.00  0.00     0.100 A 
ATOM     10  C   UNL d   1      62.552  44.416  49.744  0.00  0.00     0.100 A 
ATOM     11  N   UNL d   1      62.156  43.939  50.263  0.00  0.00    -0.301 N 
ATOM     12  C   UNL d   1      61.398  44.172  50.549  0.00  0.00     0.100 A 
ATOM     13  C   UNL d   1      61.074  44.894  50.287  0.00  0.00     0.100 A 
BRANCH  11  14
ATOM     14  C   UNL d   1      62.490  43.222  50.516  0.00  0.00     0.064 A 
ATOM     15  C   UNL d   1      62.562  42.583  50.008  0.00  0.00     0.018 A 
ATOM     16  C   UNL d   1      62.895  41.877  50.271  0.00  0.00     0.002 A 
ATOM     17  C   UNL d   1      63.157  41.818  51.057  0.00  0.00     0.000 A 
ATOM     18  C   UNL d   1      63.085  42.457  51.564  0.00  0.00     0.002 A 
ATOM     19  C   UNL d   1      62.750  43.157  51.287  0.00  0.00     0.018 A 
ENDBRANCH  11  14
ENDBRANCH   6   8
ENDBRANCH   2   6
BRANCH   1  20
ATOM     20  C   UNL d   1      60.968  48.461  51.296  0.00  0.00     0.045 A 
ATOM     21  C   UNL d   1      60.543  49.120  51.023  0.00  0.00     0.129 A 
ATOM     22  C   UNL d   1      60.306  49.707  51.552  0.00  0.00     0.024 A 
ATOM     23  C   UNL d   1      60.487  49.647  52.365  0.00  0.00     0.002 A 
ATOM     24  C   UNL d   1      60.911  48.986  52.625  0.00  0.00     0.000 A 
ATOM     25  C   UNL d   1      61.149  48.399  52.096  0.00  0.00     0.004 A 
BRANCH  21  26
ATOM     26  N   UNL d   1      60.357  49.195  50.234  0.00  0.00    -0.114 N 
ATOM     27  O   UNL d   1      60.889  49.464  49.646  0.00  0.00    -0.532 OA
ATOM     28  O   UNL d   1      59.618  49.014  49.916  0.00  0.00    -0.532 OA
ENDBRANCH  21  26
ENDBRANCH   1  20
TORSDOF 5
ENDMDL
