MODEL 1
REMARK VINA RESULT:      -5.0      0.000      0.000
REMARK  4 active torsions:
REMARK  status: ('A' for Active; 'I' for Inactive)
REMARK    1  A    between atoms: C_16  and  C_4 
REMARK    2  A    between atoms: C_8  and  S_14 
REMARK    3  A    between atoms: C_18  and  C_9 
REMARK    4  A    between atoms: S_14  and  C_16 
ROOT
ATOM      1  N   UNL d   1      57.348  -0.734  31.217  0.00  0.00    -0.218 NA
ATOM      2  C   UNL d   1      57.738  -0.701  30.482  0.00  0.00     0.215 A 
ATOM      3  C   UNL d   1      56.985  -0.088  31.528  0.00  0.00     0.104 A 
ATOM      4  N   UNL d   1      57.753   0.012  30.060  0.00  0.00    -0.121 NA
ATOM      5  N   UNL d   1      57.380   0.681  30.377  0.00  0.00    -0.143 NA
ATOM      6  C   UNL d   1      57.003   0.638  31.095  0.00  0.00     0.141 A 
ENDROOT
BRANCH   2   7
ATOM      7  S   UNL d   1      58.103  -1.363  30.176  0.00  0.00    -0.045 SA
BRANCH   7   8
ATOM      8  C   UNL d   1      58.662  -1.275  29.587  0.00  0.00     0.060 C 
BRANCH   8   9
ATOM      9  C   UNL d   1      59.116  -1.942  29.327  0.00  0.00     0.124 A 
ATOM     10  N   UNL d   1      58.839  -2.650  29.083  0.00  0.00    -0.059 NA
ATOM     11  C   UNL d   1      59.480  -3.123  28.886  0.00  0.00     0.735 A 
ATOM     12  N   UNL d   1      60.159  -2.675  29.019  0.00  0.00    -0.136 N 
ATOM     13  N   UNL d   1      59.547  -3.900  28.603  0.00  0.00    -0.059 NA
ATOM     14  C   UNL d   1      59.927  -1.940  29.294  0.00  0.00     0.118 A 
ATOM     15  C   UNL d   1      60.901  -2.996  28.873  0.00  0.00     0.100 A 
ATOM     16  C   UNL d   1      60.968  -3.772  28.590  0.00  0.00     0.041 A 
ATOM     17  C   UNL d   1      60.293  -4.224  28.455  0.00  0.00     0.119 A 
ENDBRANCH   8   9
ENDBRANCH   7   8
ENDBRANCH   2   7
BRANCH   3  18
ATOM     18  C   UNL d   1      56.595  -0.127  32.267  0.00  0.00     0.019 A 
ATOM     19  C   UNL d   1      56.851   0.366  32.870  0.00  0.00     0.002 A 
ATOM     20  C   UNL d   1      56.461   0.327  33.609  0.00  0.00     0.000 A 
ATOM     21  C   UNL d   1      55.834  -0.198  33.719  0.00  0.00     0.000 A 
ATOM     22  C   UNL d   1      55.595  -0.688  33.087  0.00  0.00     0.000 A 
ATOM     23  C   UNL d   1      55.983  -0.641  32.370  0.00  0.00     0.002 A 
ENDBRANCH   3  18
TORSDOF 4
ENDMDL
MODEL 2
REMARK VINA RESULT:      -3.2      1.774      2.850
REMARK  4 active torsions:
REMARK  status: ('A' for Active; 'I' for Inactive)
REMARK    1  A    between atoms: C_16  and  C_4 
REMARK    2  A    between atoms: C_8  and  S_14 
REMARK    3  A    between atoms: C_18  and  C_9 
REMARK    4  A    between atoms: S_14  and  C_16 
ROOT
ATOM      1  N   UNL d   1      56.259   0.331  32.963  0.00  0.00    -0.218 NA
ATOM      2  C   UNL d   1      57.003   0.288  32.594  0.00  0.00     0.215 A 
ATOM      3  C   UNL d   1      56.188   0.516  33.742  0.00  0.00     0.104 A 
ATOM      4  N   UNL d   1      57.688   0.438  33.037  0.00  0.00    -0.121 NA
ATOM      5  N   UNL d   1      57.619   0.629  33.841  0.00  0.00    -0.143 NA
ATOM      6  C   UNL d   1      56.887   0.669  34.191  0.00  0.00     0.141 A 
ENDROOT
BRANCH   2   7
ATOM      7  S   UNL d   1      57.063   0.099  31.802  0.00  0.00    -0.045 SA
BRANCH   7   8
ATOM      8  C   UNL d   1      57.497   0.584  31.308  0.00  0.00     0.060 C 
BRANCH   8   9
ATOM      9  C   UNL d   1      57.899   0.257  30.638  0.00  0.00     0.124 A 
ATOM     10  N   UNL d   1      57.798  -0.467  30.317  0.00  0.00    -0.059 NA
ATOM     11  C   UNL d   1      58.306  -0.539  29.677  0.00  0.00     0.735 A 
ATOM     12  N   UNL d   1      58.722   0.170  29.619  0.00  0.00    -0.136 N 
ATOM     13  N   UNL d   1      58.452  -1.149  29.135  0.00  0.00    -0.059 NA
ATOM     14  C   UNL d   1      58.466   0.663  30.219  0.00  0.00     0.118 A 
ATOM     15  C   UNL d   1      59.280   0.273  29.026  0.00  0.00     0.100 A 
ATOM     16  C   UNL d   1      59.427  -0.337  28.484  0.00  0.00     0.041 A 
ATOM     17  C   UNL d   1      59.014  -1.047  28.537  0.00  0.00     0.119 A 
ENDBRANCH   8   9
ENDBRANCH   7   8
ENDBRANCH   2   7
BRANCH   3  18
ATOM     18  C   UNL d   1      55.436   0.559  34.108  0.00  0.00     0.019 A 
ATOM     19  C   UNL d   1      55.403   0.635  34.924  0.00  0.00     0.002 A 
ATOM     20  C   UNL d   1      54.652   0.678  35.290  0.00  0.00     0.000 A 
ATOM     21  C   UNL d   1      53.966   0.642  34.832  0.00  0.00     0.000 A 
ATOM     22  C   UNL d   1      54.030   0.564  34.004  0.00  0.00     0.000 A 
ATOM     23  C   UNL d   1      54.769   0.524  33.658  0.00  0.00     0.002 A 
ENDBRANCH   3  18
TORSDOF 4
ENDMDL
MODEL 3
REMARK VINA RESULT:      -2.7      8.702      9.593
REMARK  4 active torsions:
REMARK  status: ('A' for Active; 'I' for Inactive)
REMARK    1  A    between atoms: C_16  and  C_4 
REMARK    2  A    between atoms: C_8  and  S_14 
REMARK    3  A    between atoms: C_18  and  C_9 
REMARK    4  A    between atoms: S_14  and  C_16 
ROOT
ATOM      1  N   UNL d   1      58.422  -9.799  31.047  0.00  0.00    -0.218 NA
ATOM      2  C   UNL d   1      59.102  -9.812  31.527  0.00  0.00     0.215 A 
ATOM      3  C   UNL d   1      58.474  -9.793  30.245  0.00  0.00     0.104 A 
ATOM      4  N   UNL d   1      59.851  -9.818  31.171  0.00  0.00    -0.121 NA
ATOM      5  N   UNL d   1      59.910  -9.811  30.344  0.00  0.00    -0.143 NA
ATOM      6  C   UNL d   1      59.239  -9.799  29.886  0.00  0.00     0.141 A 
ENDROOT
BRANCH   2   7
ATOM      7  S   UNL d   1      59.037  -9.818  32.340  0.00  0.00    -0.045 SA
BRANCH   7   8
ATOM      8  C   UNL d   1      59.713  -9.774  32.795  0.00  0.00     0.060 C 
BRANCH   8   9
ATOM      9  C   UNL d   1      59.660  -9.586  33.620  0.00  0.00     0.124 A 
ATOM     10  N   UNL d   1      59.088  -9.806  34.131  0.00  0.00    -0.059 NA
ATOM     11  C   UNL d   1      59.267  -9.495  34.869  0.00  0.00     0.735 A 
ATOM     12  N   UNL d   1      59.972  -9.076  34.788  0.00  0.00    -0.136 N 
ATOM     13  N   UNL d   1      58.891  -9.532  35.607  0.00  0.00    -0.059 NA
ATOM     14  C   UNL d   1      60.213  -9.135  34.008  0.00  0.00     0.118 A 
ATOM     15  C   UNL d   1      60.302  -8.695  35.435  0.00  0.00     0.100 A 
ATOM     16  C   UNL d   1      59.926  -8.731  36.173  0.00  0.00     0.041 A 
ATOM     17  C   UNL d   1      59.222  -9.148  36.260  0.00  0.00     0.119 A 
ENDBRANCH   8   9
ENDBRANCH   7   8
ENDBRANCH   2   7
BRANCH   3  18
ATOM     18  C   UNL d   1      57.786  -9.781  29.768  0.00  0.00     0.019 A 
ATOM     19  C   UNL d   1      57.876  -9.818  28.954  0.00  0.00     0.002 A 
ATOM     20  C   UNL d   1      57.188  -9.806  28.477  0.00  0.00     0.000 A 
ATOM     21  C   UNL d   1      56.442  -9.757  28.828  0.00  0.00     0.000 A 
ATOM     22  C   UNL d   1      56.382  -9.720  29.659  0.00  0.00     0.000 A 
ATOM     23  C   UNL d   1      57.061  -9.733  30.114  0.00  0.00     0.002 A 
ENDBRANCH   3  18
TORSDOF 4
ENDMDL
MODEL 4
REMARK VINA RESULT:      -2.4      1.388      2.025
REMARK  4 active torsions:
REMARK  status: ('A' for Active; 'I' for Inactive)
REMARK    1  A    between atoms: C_16  and  C_4 
REMARK    2  A    between atoms: C_8  and  S_14 
REMARK    3  A    between atoms: C_18  and  C_9 
REMARK    4  A    between atoms: S_14  and  C_16 
ROOT
ATOM      1  N   UNL d   1      57.136   0.197  32.023  0.00  0.00    -0.218 NA
ATOM      2  C   UNL d   1      57.895   0.424  31.770  0.00  0.00     0.215 A 
ATOM      3  C   UNL d   1      56.933   0.210  32.801  0.00  0.00     0.104 A 
ATOM      4  N   UNL d   1      58.456   0.668  32.330  0.00  0.00    -0.121 NA
ATOM      5  N   UNL d   1      58.251   0.682  33.133  0.00  0.00    -0.143 NA
ATOM      6  C   UNL d   1      57.507   0.459  33.369  0.00  0.00     0.141 A 
ENDROOT
BRANCH   2   7
ATOM      7  S   UNL d   1      58.090   0.408  30.978  0.00  0.00    -0.045 SA
BRANCH   7   8
ATOM      8  C   UNL d   1      58.087  -0.306  30.580  0.00  0.00     0.060 C 
BRANCH   8   9
ATOM      9  C   UNL d   1      58.731  -0.511  30.070  0.00  0.00     0.124 A 
ATOM     10  N   UNL d   1      59.305  -0.028  29.795  0.00  0.00    -0.059 NA
ATOM     11  C   UNL d   1      59.808  -0.470  29.321  0.00  0.00     0.735 A 
ATOM     12  N   UNL d   1      59.520  -1.242  29.316  0.00  0.00    -0.136 N 
ATOM     13  N   UNL d   1      60.491  -0.282  28.889  0.00  0.00    -0.059 NA
ATOM     14  C   UNL d   1      58.849  -1.263  29.784  0.00  0.00     0.118 A 
ATOM     15  C   UNL d   1      59.906  -1.824  28.887  0.00  0.00     0.100 A 
ATOM     16  C   UNL d   1      60.588  -1.637  28.455  0.00  0.00     0.041 A 
ATOM     17  C   UNL d   1      60.881  -0.868  28.455  0.00  0.00     0.119 A 
ENDBRANCH   8   9
ENDBRANCH   7   8
ENDBRANCH   2   7
BRANCH   3  18
ATOM     18  C   UNL d   1      56.167  -0.020  33.050  0.00  0.00     0.019 A 
ATOM     19  C   UNL d   1      55.631   0.567  33.253  0.00  0.00     0.002 A 
ATOM     20  C   UNL d   1      54.866   0.338  33.502  0.00  0.00     0.000 A 
ATOM     21  C   UNL d   1      54.664  -0.461  33.539  0.00  0.00     0.000 A 
ATOM     22  C   UNL d   1      55.230  -1.036  33.326  0.00  0.00     0.000 A 
ATOM     23  C   UNL d   1      55.974  -0.801  33.085  0.00  0.00     0.002 A 
ENDBRANCH   3  18
TORSDOF 4
ENDMDL
