MODEL 1
REMARK VINA RESULT:      42.6      0.000      0.000
REMARK  5 active torsions:
REMARK  status: ('A' for Active; 'I' for Inactive)
REMARK    1  A    between atoms: C_12  and  C_3 
REMARK    2  A    between atoms: C_14  and  N_5 
REMARK    3  A    between atoms: C_11  and  C_6 
REMARK    4  A    between atoms: O_25  and  C_12 
REMARK    5  A    between atoms: C_24  and  C_14 
ROOT
ATOM      1  C   UNL d   1      46.046 -17.385  43.705  0.00  0.00     0.080 A 
ATOM      2  C   UNL d   1      45.942 -16.674  43.293  0.00  0.00     0.267 A 
ATOM      3  C   UNL d   1      46.170 -18.815  43.714  0.00  0.00     0.106 A 
ATOM      4  C   UNL d   1      46.132 -17.380  44.533  0.00  0.00     0.108 A 
ATOM      5  N   UNL d   1      45.923 -15.954  43.709  0.00  0.00    -0.271 N 
ATOM      6  C   UNL d   1      46.066 -18.104  43.302  0.00  0.00     0.015 A 
ATOM      7  C   UNL d   1      46.254 -18.806  44.533  0.00  0.00     0.208 A 
ATOM      8  O   UNL d   1      46.236 -18.086  44.954  0.00  0.00    -0.288 OA
ATOM      9  C   UNL d   1      46.112 -16.664  44.944  0.00  0.00     0.043 A 
ATOM     10  C   UNL d   1      46.009 -15.949  44.536  0.00  0.00     0.069 A 
ATOM     11  O   UNL d   1      45.858 -16.679  42.473  0.00  0.00    -0.267 OA
ATOM     12  N   UNL d   1      46.359 -19.515  44.950  0.00  0.00    -0.121 N 
ATOM     13  C   UNL d   1      45.990 -15.238  44.948  0.00  0.00     0.019 C 
ENDROOT
BRANCH   6  14
ATOM     14  C   UNL d   1      45.982 -18.114  42.483  0.00  0.00     0.001 A 
ATOM     15  C   UNL d   1      45.226 -18.125  42.151  0.00  0.00     0.012 A 
ATOM     16  C   UNL d   1      45.141 -18.135  41.331  0.00  0.00     0.068 A 
ATOM     17 CL   UNL d   1      44.390 -18.146  40.998  0.00  0.00    -0.082 Cl
ATOM     18  C   UNL d   1      45.804 -18.134  40.844  0.00  0.00     0.068 A 
ATOM     19  C   UNL d   1      46.565 -18.123  41.189  0.00  0.00     0.012 A 
ATOM     20 CL   UNL d   1      45.723 -18.144  40.025  0.00  0.00    -0.082 Cl
ATOM     21  C   UNL d   1      46.646 -18.113  42.009  0.00  0.00     0.001 A 
ENDBRANCH   6  14
BRANCH   3  22
ATOM     22  C   UNL d   1      46.190 -19.526  43.311  0.00  0.00     0.299 C 
ATOM     23  O   UNL d   1      46.637 -19.600  42.623  0.00  0.00    -0.259 OA
BRANCH  22  24
ATOM     24  O   UNL d   1      45.763 -20.172  43.587  0.00  0.00    -0.296 OA
ATOM     25  C   UNL d   1      45.000 -20.323  43.304  0.00  0.00     0.185 C 
ENDBRANCH  22  24
ENDBRANCH   3  22
BRANCH   5  26
ATOM     26  C   UNL d   1      45.821 -15.249  43.310  0.00  0.00     0.108 C 
BRANCH  26  27
ATOM     27  C   UNL d   1      45.444 -14.616  43.674  0.00  0.00     0.118 A 
ATOM     28  O   UNL d   1      44.742 -14.646  44.088  0.00  0.00    -0.304 OA
ATOM     29  C   UNL d   1      44.567 -13.891  44.359  0.00  0.00     0.123 A 
ATOM     30  C   UNL d   1      45.167 -13.381  44.111  0.00  0.00     0.029 A 
ATOM     31  C   UNL d   1      45.711 -13.836  43.685  0.00  0.00     0.028 A 
ENDBRANCH  26  27
ENDBRANCH   5  26
TORSDOF 5
ENDMDL
