MODEL 1
REMARK VINA RESULT:      -7.0      0.000      0.000
REMARK  7 active torsions:
REMARK  status: ('A' for Active; 'I' for Inactive)
REMARK    1  A    between atoms: C_6  and  C_1 
REMARK    2  A    between atoms: C_7  and  C_3 
REMARK    3  A    between atoms: O_14  and  C_6 
REMARK    4  A    between atoms: C_8  and  C_7 
REMARK    5  A    between atoms: S_10  and  C_8 
REMARK    6  A    between atoms: C_13  and  S_10 
REMARK    7  A    between atoms: C_22  and  O_14 
ROOT
ATOM      1  C   UNL d   1      53.283  30.615  53.403  0.00  0.00     0.083 A 
ATOM      2  C   UNL d   1      53.325  31.419  53.575  0.00  0.00     0.028 A 
ATOM      3  C   UNL d   1      52.918  31.803  53.017  0.00  0.00     0.121 A 
ATOM      4  N   UNL d   1      52.612  31.248  52.483  0.00  0.00    -0.242 NA
ATOM      5  C   UNL d   1      52.850  30.543  52.745  0.00  0.00     0.087 A 
ATOM      6  C   UNL d   1      53.725  31.720  54.217  0.00  0.00     0.002 C 
ATOM      7  C   UNL d   1      52.681  29.780  52.388  0.00  0.00     0.021 C 
ENDROOT
BRANCH   3   8
ATOM      8  C   UNL d   1      52.865  32.636  53.051  0.00  0.00     0.220 C 
ATOM      9  O   UNL d   1      53.532  33.090  53.099  0.00  0.00    -0.284 OA
BRANCH   8  10
ATOM     10  C   UNL d   1      52.118  32.996  53.035  0.00  0.00     0.079 C 
BRANCH  10  11
ATOM     11  S   UNL d   1      52.042  33.773  52.815  0.00  0.00    -0.083 SA
BRANCH  11  12
ATOM     12  C   UNL d   1      51.272  34.090  52.708  0.00  0.00     0.030 A 
ATOM     13  C   UNL d   1      50.945  34.141  51.947  0.00  0.00     0.007 A 
ATOM     14  C   UNL d   1      50.208  34.448  51.867  0.00  0.00     0.012 A 
ATOM     15  C   UNL d   1      49.760  34.715  52.508  0.00  0.00     0.058 A 
ATOM     16  C   UNL d   1      50.090  34.658  53.230  0.00  0.00     0.012 A 
ATOM     17 CL   UNL d   1      48.992  35.037  52.444  0.00  0.00    -0.082 Cl
ATOM     18  C   UNL d   1      50.834  34.354  53.355  0.00  0.00     0.007 A 
ENDBRANCH  11  12
ENDBRANCH  10  11
ENDBRANCH   8  10
ENDBRANCH   3   8
BRANCH   1  19
ATOM     19  C   UNL d   1      53.638  29.996  53.853  0.00  0.00     0.302 C 
ATOM     20  O   UNL d   1      54.430  29.769  53.691  0.00  0.00    -0.259 OA
BRANCH  19  21
ATOM     21  O   UNL d   1      53.224  29.598  54.459  0.00  0.00    -0.271 OA
BRANCH  21  22
ATOM     22  C   UNL d   1      53.587  28.940  54.806  0.00  0.00     0.126 C 
ATOM     23  C   UNL d   1      53.249  28.579  55.489  0.00  0.00     0.029 C 
ENDBRANCH  21  22
ENDBRANCH  19  21
ENDBRANCH   1  19
TORSDOF 7
ENDMDL
MODEL 2
REMARK VINA RESULT:      -6.4      2.471      3.359
REMARK  7 active torsions:
REMARK  status: ('A' for Active; 'I' for Inactive)
REMARK    1  A    between atoms: C_6  and  C_1 
REMARK    2  A    between atoms: C_7  and  C_3 
REMARK    3  A    between atoms: O_14  and  C_6 
REMARK    4  A    between atoms: C_8  and  C_7 
REMARK    5  A    between atoms: S_10  and  C_8 
REMARK    6  A    between atoms: C_13  and  S_10 
REMARK    7  A    between atoms: C_22  and  O_14 
ROOT
ATOM      1  C   UNL d   1      52.688  34.068  53.550  0.00  0.00     0.083 A 
ATOM      2  C   UNL d   1      52.038  33.780  53.135  0.00  0.00     0.028 A 
ATOM      3  C   UNL d   1      51.556  34.391  52.998  0.00  0.00     0.121 A 
ATOM      4  N   UNL d   1      51.894  35.074  53.323  0.00  0.00    -0.242 NA
ATOM      5  C   UNL d   1      52.574  34.845  53.648  0.00  0.00     0.087 A 
ATOM      6  C   UNL d   1      51.950  32.999  52.926  0.00  0.00     0.002 C 
ATOM      7  C   UNL d   1      53.140  35.343  54.060  0.00  0.00     0.021 C 
ENDROOT
BRANCH   3   8
ATOM      8  C   UNL d   1      50.843  34.262  52.582  0.00  0.00     0.220 C 
ATOM      9  O   UNL d   1      50.812  33.738  51.967  0.00  0.00    -0.284 OA
BRANCH   8  10
ATOM     10  C   UNL d   1      50.161  34.679  52.806  0.00  0.00     0.079 C 
BRANCH  10  11
ATOM     11  S   UNL d   1      49.472  34.593  52.386  0.00  0.00    -0.083 SA
BRANCH  11  12
ATOM     12  C   UNL d   1      48.840  35.127  52.532  0.00  0.00     0.030 A 
ATOM     13  C   UNL d   1      48.321  35.334  51.919  0.00  0.00     0.007 A 
ATOM     14  C   UNL d   1      47.724  35.845  52.079  0.00  0.00     0.012 A 
ATOM     15  C   UNL d   1      47.603  36.175  52.827  0.00  0.00     0.058 A 
ATOM     16  C   UNL d   1      48.111  35.964  53.402  0.00  0.00     0.012 A 
ATOM     17 CL   UNL d   1      46.988  36.708  53.012  0.00  0.00    -0.082 Cl
ATOM     18  C   UNL d   1      48.729  35.449  53.283  0.00  0.00     0.007 A 
ENDBRANCH  11  12
ENDBRANCH  10  11
ENDBRANCH   8  10
ENDBRANCH   3   8
BRANCH   1  19
ATOM     19  C   UNL d   1      53.346  33.610  53.815  0.00  0.00     0.302 C 
ATOM     20  O   UNL d   1      53.945  33.390  53.269  0.00  0.00    -0.259 OA
BRANCH  19  21
ATOM     21  O   UNL d   1      53.421  33.365  54.610  0.00  0.00    -0.271 OA
BRANCH  21  22
ATOM     22  C   UNL d   1      54.050  32.862  54.801  0.00  0.00     0.126 C 
ATOM     23  C   UNL d   1      54.406  32.899  55.564  0.00  0.00     0.029 C 
ENDBRANCH  21  22
ENDBRANCH  19  21
ENDBRANCH   1  19
TORSDOF 7
ENDMDL
MODEL 3
REMARK VINA RESULT:      -6.3      3.482      6.338
REMARK  7 active torsions:
REMARK  status: ('A' for Active; 'I' for Inactive)
REMARK    1  A    between atoms: C_6  and  C_1 
REMARK    2  A    between atoms: C_7  and  C_3 
REMARK    3  A    between atoms: O_14  and  C_6 
REMARK    4  A    between atoms: C_8  and  C_7 
REMARK    5  A    between atoms: S_10  and  C_8 
REMARK    6  A    between atoms: C_13  and  S_10 
REMARK    7  A    between atoms: C_22  and  O_14 
ROOT
ATOM      1  C   UNL d   1      48.010  35.691  52.543  0.00  0.00     0.083 A 
ATOM      2  C   UNL d   1      48.549  35.199  52.162  0.00  0.00     0.028 A 
ATOM      3  C   UNL d   1      49.162  35.095  52.650  0.00  0.00     0.121 A 
ATOM      4  N   UNL d   1      49.019  35.519  53.348  0.00  0.00    -0.242 NA
ATOM      5  C   UNL d   1      48.318  35.866  53.250  0.00  0.00     0.087 A 
ATOM      6  C   UNL d   1      48.431  34.897  51.415  0.00  0.00     0.002 C 
ATOM      7  C   UNL d   1      47.914  36.372  53.813  0.00  0.00     0.021 C 
ENDROOT
BRANCH   3   8
ATOM      8  C   UNL d   1      49.800  34.615  52.406  0.00  0.00     0.220 C 
ATOM      9  O   UNL d   1      49.785  34.237  51.692  0.00  0.00    -0.284 OA
BRANCH   8  10
ATOM     10  C   UNL d   1      50.456  34.527  52.907  0.00  0.00     0.079 C 
BRANCH  10  11
ATOM     11  S   UNL d   1      51.133  34.172  52.637  0.00  0.00    -0.083 SA
BRANCH  11  12
ATOM     12  C   UNL d   1      51.803  34.139  53.143  0.00  0.00     0.030 A 
ATOM     13  C   UNL d   1      52.303  34.797  53.214  0.00  0.00     0.007 A 
ATOM     14  C   UNL d   1      52.938  34.746  53.702  0.00  0.00     0.012 A 
ATOM     15  C   UNL d   1      53.115  34.067  54.138  0.00  0.00     0.058 A 
ATOM     16  C   UNL d   1      52.624  33.445  54.058  0.00  0.00     0.012 A 
ATOM     17 CL   UNL d   1      53.770  33.994  54.651  0.00  0.00    -0.082 Cl
ATOM     18  C   UNL d   1      51.970  33.456  53.574  0.00  0.00     0.007 A 
ENDBRANCH  11  12
ENDBRANCH  10  11
ENDBRANCH   8  10
ENDBRANCH   3   8
BRANCH   1  19
ATOM     19  C   UNL d   1      47.272  35.951  52.227  0.00  0.00     0.302 C 
ATOM     20  O   UNL d   1      47.236  36.670  51.795  0.00  0.00    -0.259 OA
BRANCH  19  21
ATOM     21  O   UNL d   1      46.569  35.512  52.331  0.00  0.00    -0.271 OA
BRANCH  21  22
ATOM     22  C   UNL d   1      45.872  35.816  52.003  0.00  0.00     0.126 C 
ATOM     23  C   UNL d   1      45.146  35.396  52.083  0.00  0.00     0.029 C 
ENDBRANCH  21  22
ENDBRANCH  19  21
ENDBRANCH   1  19
TORSDOF 7
ENDMDL
MODEL 4
REMARK VINA RESULT:      -5.9      2.741      5.081
REMARK  7 active torsions:
REMARK  status: ('A' for Active; 'I' for Inactive)
REMARK    1  A    between atoms: C_6  and  C_1 
REMARK    2  A    between atoms: C_7  and  C_3 
REMARK    3  A    between atoms: O_14  and  C_6 
REMARK    4  A    between atoms: C_8  and  C_7 
REMARK    5  A    between atoms: S_10  and  C_8 
REMARK    6  A    between atoms: C_13  and  S_10 
REMARK    7  A    between atoms: C_22  and  O_14 
ROOT
ATOM      1  C   UNL d   1      50.505  34.087  52.358  0.00  0.00     0.083 A 
ATOM      2  C   UNL d   1      50.845  33.569  52.901  0.00  0.00     0.028 A 
ATOM      3  C   UNL d   1      51.567  33.388  52.636  0.00  0.00     0.121 A 
ATOM      4  N   UNL d   1      51.695  33.789  51.922  0.00  0.00    -0.242 NA
ATOM      5  C   UNL d   1      51.037  34.200  51.783  0.00  0.00     0.087 A 
ATOM      6  C   UNL d   1      50.467  33.316  53.576  0.00  0.00     0.002 C 
ATOM      7  C   UNL d   1      50.883  34.711  51.111  0.00  0.00     0.021 C 
ENDROOT
BRANCH   3   8
ATOM      8  C   UNL d   1      52.045  32.867  53.080  0.00  0.00     0.220 C 
ATOM      9  O   UNL d   1      51.867  32.080  53.125  0.00  0.00    -0.284 OA
BRANCH   8  10
ATOM     10  C   UNL d   1      52.709  33.166  53.478  0.00  0.00     0.079 C 
BRANCH  10  11
ATOM     11  S   UNL d   1      53.272  32.661  53.770  0.00  0.00    -0.083 SA
BRANCH  11  12
ATOM     12  C   UNL d   1      53.907  32.979  54.219  0.00  0.00     0.030 A 
ATOM     13  C   UNL d   1      53.872  32.979  55.048  0.00  0.00     0.007 A 
ATOM     14  C   UNL d   1      54.488  33.287  55.459  0.00  0.00     0.012 A 
ATOM     15  C   UNL d   1      55.157  33.604  55.092  0.00  0.00     0.058 A 
ATOM     16  C   UNL d   1      55.174  33.596  54.296  0.00  0.00     0.012 A 
ATOM     17 CL   UNL d   1      55.808  33.929  55.502  0.00  0.00    -0.082 Cl
ATOM     18  C   UNL d   1      54.570  33.293  53.843  0.00  0.00     0.007 A 
ENDBRANCH  11  12
ENDBRANCH  10  11
ENDBRANCH   8  10
ENDBRANCH   3   8
BRANCH   1  19
ATOM     19  C   UNL d   1      49.734  34.426  52.416  0.00  0.00     0.302 C 
ATOM     20  O   UNL d   1      49.120  34.146  51.917  0.00  0.00    -0.259 OA
BRANCH  19  21
ATOM     21  O   UNL d   1      49.560  35.036  52.959  0.00  0.00    -0.271 OA
BRANCH  21  22
ATOM     22  C   UNL d   1      48.804  35.372  52.933  0.00  0.00     0.126 C 
ATOM     23  C   UNL d   1      48.572  35.939  53.512  0.00  0.00     0.029 C 
ENDBRANCH  21  22
ENDBRANCH  19  21
ENDBRANCH   1  19
TORSDOF 7
ENDMDL
MODEL 5
REMARK VINA RESULT:      -5.9      2.393      5.235
REMARK  7 active torsions:
REMARK  status: ('A' for Active; 'I' for Inactive)
REMARK    1  A    between atoms: C_6  and  C_1 
REMARK    2  A    between atoms: C_7  and  C_3 
REMARK    3  A    between atoms: O_14  and  C_6 
REMARK    4  A    between atoms: C_8  and  C_7 
REMARK    5  A    between atoms: S_10  and  C_8 
REMARK    6  A    between atoms: C_13  and  S_10 
REMARK    7  A    between atoms: C_22  and  O_14 
ROOT
ATOM      1  C   UNL d   1      50.113  34.490  52.359  0.00  0.00     0.083 A 
ATOM      2  C   UNL d   1      50.702  34.288  52.898  0.00  0.00     0.028 A 
ATOM      3  C   UNL d   1      51.337  34.066  52.484  0.00  0.00     0.121 A 
ATOM      4  N   UNL d   1      51.161  34.125  51.677  0.00  0.00    -0.242 NA
ATOM      5  C   UNL d   1      50.416  34.383  51.636  0.00  0.00     0.087 A 
ATOM      6  C   UNL d   1      50.601  34.324  53.705  0.00  0.00     0.002 C 
ATOM      7  C   UNL d   1      49.965  34.537  50.922  0.00  0.00     0.021 C 
ENDROOT
BRANCH   3   8
ATOM      8  C   UNL d   1      52.026  33.829  52.892  0.00  0.00     0.220 C 
ATOM      9  O   UNL d   1      52.539  34.377  53.192  0.00  0.00    -0.284 OA
BRANCH   8  10
ATOM     10  C   UNL d   1      52.183  33.019  52.987  0.00  0.00     0.079 C 
BRANCH  10  11
ATOM     11  S   UNL d   1      52.947  32.753  53.039  0.00  0.00    -0.083 SA
BRANCH  11  12
ATOM     12  C   UNL d   1      53.083  31.947  53.230  0.00  0.00     0.030 A 
ATOM     13  C   UNL d   1      53.607  31.746  53.841  0.00  0.00     0.007 A 
ATOM     14  C   UNL d   1      53.722  30.970  54.008  0.00  0.00     0.012 A 
ATOM     15  C   UNL d   1      53.343  30.361  53.598  0.00  0.00     0.058 A 
ATOM     16  C   UNL d   1      52.843  30.572  53.015  0.00  0.00     0.012 A 
ATOM     17 CL   UNL d   1      53.450  29.549  53.757  0.00  0.00    -0.082 Cl
ATOM     18  C   UNL d   1      52.698  31.347  52.814  0.00  0.00     0.007 A 
ENDBRANCH  11  12
ENDBRANCH  10  11
ENDBRANCH   8  10
ENDBRANCH   3   8
BRANCH   1  19
ATOM     19  C   UNL d   1      49.337  34.759  52.554  0.00  0.00     0.302 C 
ATOM     20  O   UNL d   1      48.670  34.316  52.302  0.00  0.00    -0.259 OA
BRANCH  19  21
ATOM     21  O   UNL d   1      49.210  35.457  52.994  0.00  0.00    -0.271 OA
BRANCH  21  22
ATOM     22  C   UNL d   1      48.429  35.712  53.098  0.00  0.00     0.126 C 
ATOM     23  C   UNL d   1      48.266  36.414  53.534  0.00  0.00     0.029 C 
ENDBRANCH  21  22
ENDBRANCH  19  21
ENDBRANCH   1  19
TORSDOF 7
ENDMDL
MODEL 6
REMARK VINA RESULT:      -5.7      2.407      4.948
REMARK  7 active torsions:
REMARK  status: ('A' for Active; 'I' for Inactive)
REMARK    1  A    between atoms: C_6  and  C_1 
REMARK    2  A    between atoms: C_7  and  C_3 
REMARK    3  A    between atoms: O_14  and  C_6 
REMARK    4  A    between atoms: C_8  and  C_7 
REMARK    5  A    between atoms: S_10  and  C_8 
REMARK    6  A    between atoms: C_13  and  S_10 
REMARK    7  A    between atoms: C_22  and  O_14 
ROOT
ATOM      1  C   UNL d   1      52.257  33.720  53.233  0.00  0.00     0.083 A 
ATOM      2  C   UNL d   1      52.761  33.092  53.059  0.00  0.00     0.028 A 
ATOM      3  C   UNL d   1      52.312  32.451  52.949  0.00  0.00     0.121 A 
ATOM      4  N   UNL d   1      51.517  32.664  53.051  0.00  0.00    -0.242 NA
ATOM      5  C   UNL d   1      51.520  33.434  53.222  0.00  0.00     0.087 A 
ATOM      6  C   UNL d   1      53.570  33.165  53.018  0.00  0.00     0.002 C 
ATOM      7  C   UNL d   1      50.834  33.926  53.379  0.00  0.00     0.021 C 
ENDROOT
BRANCH   3   8
ATOM      8  C   UNL d   1      52.678  31.724  52.762  0.00  0.00     0.220 C 
ATOM      9  O   UNL d   1      53.013  31.604  52.037  0.00  0.00    -0.284 OA
BRANCH   8  10
ATOM     10  C   UNL d   1      52.695  31.120  53.332  0.00  0.00     0.079 C 
BRANCH  10  11
ATOM     11  S   UNL d   1      52.885  30.361  53.119  0.00  0.00    -0.083 SA
BRANCH  11  12
ATOM     12  C   UNL d   1      53.047  29.800  53.722  0.00  0.00     0.030 A 
ATOM     13  C   UNL d   1      52.433  29.516  54.203  0.00  0.00     0.007 A 
ATOM     14  C   UNL d   1      52.609  28.981  54.773  0.00  0.00     0.012 A 
ATOM     15  C   UNL d   1      53.375  28.699  54.903  0.00  0.00     0.058 A 
ATOM     16  C   UNL d   1      53.951  28.982  54.432  0.00  0.00     0.012 A 
ATOM     17 CL   UNL d   1      53.578  28.142  55.491  0.00  0.00    -0.082 Cl
ATOM     18  C   UNL d   1      53.815  29.525  53.843  0.00  0.00     0.007 A 
ENDBRANCH  11  12
ENDBRANCH  10  11
ENDBRANCH   8  10
ENDBRANCH   3   8
BRANCH   1  19
ATOM     19  C   UNL d   1      52.496  34.513  53.392  0.00  0.00     0.302 C 
ATOM     20  O   UNL d   1      52.570  35.059  52.758  0.00  0.00    -0.259 OA
BRANCH  19  21
ATOM     21  O   UNL d   1      52.664  34.776  54.167  0.00  0.00    -0.271 OA
BRANCH  21  22
ATOM     22  C   UNL d   1      52.968  35.541  54.257  0.00  0.00     0.126 C 
ATOM     23  C   UNL d   1      53.080  35.865  55.027  0.00  0.00     0.029 C 
ENDBRANCH  21  22
ENDBRANCH  19  21
ENDBRANCH   1  19
TORSDOF 7
ENDMDL
MODEL 7
REMARK VINA RESULT:      -5.1      1.737      2.094
REMARK  7 active torsions:
REMARK  status: ('A' for Active; 'I' for Inactive)
REMARK    1  A    between atoms: C_6  and  C_1 
REMARK    2  A    between atoms: C_7  and  C_3 
REMARK    3  A    between atoms: O_14  and  C_6 
REMARK    4  A    between atoms: C_8  and  C_7 
REMARK    5  A    between atoms: S_10  and  C_8 
REMARK    6  A    between atoms: C_13  and  S_10 
REMARK    7  A    between atoms: C_22  and  O_14 
ROOT
ATOM      1  C   UNL d   1      53.113  30.418  53.341  0.00  0.00     0.083 A 
ATOM      2  C   UNL d   1      52.539  31.007  53.294  0.00  0.00     0.028 A 
ATOM      3  C   UNL d   1      52.875  31.638  52.957  0.00  0.00     0.121 A 
ATOM      4  N   UNL d   1      53.666  31.458  52.785  0.00  0.00    -0.242 NA
ATOM      5  C   UNL d   1      53.776  30.716  53.029  0.00  0.00     0.087 A 
ATOM      6  C   UNL d   1      51.776  30.911  53.560  0.00  0.00     0.002 C 
ATOM      7  C   UNL d   1      54.503  30.263  52.979  0.00  0.00     0.021 C 
ENDROOT
BRANCH   3   8
ATOM      8  C   UNL d   1      52.419  32.327  52.837  0.00  0.00     0.220 C 
ATOM      9  O   UNL d   1      51.840  32.347  52.273  0.00  0.00    -0.284 OA
BRANCH   8  10
ATOM     10  C   UNL d   1      52.564  32.997  53.306  0.00  0.00     0.079 C 
BRANCH  10  11
ATOM     11  S   UNL d   1      52.315  33.729  53.062  0.00  0.00    -0.083 SA
BRANCH  11  12
ATOM     12  C   UNL d   1      52.533  34.402  53.515  0.00  0.00     0.030 A 
ATOM     13  C   UNL d   1      52.040  34.669  54.126  0.00  0.00     0.007 A 
ATOM     14  C   UNL d   1      52.266  35.314  54.547  0.00  0.00     0.012 A 
ATOM     15  C   UNL d   1      52.968  35.723  54.398  0.00  0.00     0.058 A 
ATOM     16  C   UNL d   1      53.428  35.452  53.808  0.00  0.00     0.012 A 
ATOM     17 CL   UNL d   1      53.220  36.395  54.824  0.00  0.00    -0.082 Cl
ATOM     18  C   UNL d   1      53.236  34.803  53.358  0.00  0.00     0.007 A 
ENDBRANCH  11  12
ENDBRANCH  10  11
ENDBRANCH   8  10
ENDBRANCH   3   8
BRANCH   1  19
ATOM     19  C   UNL d   1      53.001  29.646  53.663  0.00  0.00     0.302 C 
ATOM     20  O   UNL d   1      52.613  29.058  53.206  0.00  0.00    -0.259 OA
BRANCH  19  21
ATOM     21  O   UNL d   1      53.265  29.445  54.429  0.00  0.00    -0.271 OA
BRANCH  21  22
ATOM     22  C   UNL d   1      53.159  28.664  54.682  0.00  0.00     0.126 C 
ATOM     23  C   UNL d   1      53.423  28.426  55.446  0.00  0.00     0.029 C 
ENDBRANCH  21  22
ENDBRANCH  19  21
ENDBRANCH   1  19
TORSDOF 7
ENDMDL
