MODEL 1
REMARK VINA RESULT:      40.6      0.000      0.000
REMARK  4 active torsions:
REMARK  status: ('A' for Active; 'I' for Inactive)
REMARK    1  A    between atoms: C_5  and  C_1 
REMARK    2  A    between atoms: C_4  and  C_2 
REMARK    3  A    between atoms: C_12  and  C_4 
REMARK    4  A    between atoms: C_13  and  C_5 
ROOT
ATOM      1  C   UNL d   1     -56.978 -98.947 -43.903  0.00  0.00     0.039 A 
ATOM      2  C   UNL d   1     -55.660 -99.508 -44.336  0.00  0.00     0.039 A 
ATOM      3  C   UNL d   1     -56.227 -99.319 -43.706  0.00  0.00     0.196 A 
ATOM      4  C   UNL d   1     -57.169 -98.759 -44.728  0.00  0.00     0.003 A 
ATOM      5  C   UNL d   1     -55.851 -99.321 -45.161  0.00  0.00     0.003 A 
ATOM      6  O   UNL d   1     -56.045 -99.498 -42.921  0.00  0.00    -0.287 OA
ATOM      7  C   UNL d   1     -56.609 -98.945 -45.355  0.00  0.00     0.000 A 
ATOM      8  C   UNL d   1     -56.791 -98.767 -46.141  0.00  0.00     0.000 C 
ENDROOT
BRANCH   1   9
ATOM      9  C   UNL d   1     -57.522 -98.764 -43.308  0.00  0.00     0.005 C 
BRANCH   9  10
ATOM     10  C   UNL d   1     -58.328 -98.784 -43.458  0.00  0.00     0.019 A 
ATOM     11  C   UNL d   1     -58.859 -98.759 -42.830  0.00  0.00     0.099 A 
ATOM     12  N   UNL d   1     -59.668 -98.778 -42.978  0.00  0.00    -0.242 NA
ATOM     13  C   UNL d   1     -59.951 -98.823 -43.756  0.00  0.00     0.099 A 
ATOM     14  C   UNL d   1     -59.414 -98.848 -44.385  0.00  0.00     0.021 A 
ATOM     15  C   UNL d   1     -58.606 -98.829 -44.233  0.00  0.00     0.003 A 
ENDBRANCH   9  10
ENDBRANCH   1   9
BRANCH   2  16
ATOM     16  C   UNL d   1     -54.939 -99.865 -44.156  0.00  0.00     0.005 C 
BRANCH  16  17
ATOM     17  C   UNL d   1     -54.863-100.686 -44.160  0.00  0.00     0.019 A 
ATOM     18  C   UNL d   1     -54.798-101.093 -43.448  0.00  0.00     0.099 A 
ATOM     19  N   UNL d   1     -54.722-101.910 -43.445  0.00  0.00    -0.242 NA
ATOM     20  C   UNL d   1     -54.712-102.329 -44.163  0.00  0.00     0.099 A 
ATOM     21  C   UNL d   1     -54.778-101.916 -44.874  0.00  0.00     0.021 A 
ATOM     22  C   UNL d   1     -54.853-101.096 -44.868  0.00  0.00     0.003 A 
ENDBRANCH  16  17
ENDBRANCH   2  16
TORSDOF 4
ENDMDL
