MODEL 1
REMARK VINA RESULT:      21.1      0.000      0.000
REMARK  3 active torsions:
REMARK  status: ('A' for Active; 'I' for Inactive)
REMARK    1  A    between atoms: N_10  and  C_3 
REMARK    2  A    between atoms: C_11  and  C_5 
REMARK    3  A    between atoms: C_12  and  N_10 
ROOT
ATOM      1  N   UNL d   1     -42.338-122.753 -51.427  0.00  0.00    -0.184 N 
ATOM      2  C   UNL d   1     -42.638-122.617 -50.656  0.00  0.00     0.168 A 
ATOM      3  C   UNL d   1     -42.724-122.425 -52.081  0.00  0.00     0.217 A 
ATOM      4  N   UNL d   1     -41.286-123.533 -50.879  0.00  0.00    -0.162 NA
ATOM      5  C   UNL d   1     -42.262-122.937 -50.018  0.00  0.00     0.055 A 
ATOM      6  N   UNL d   1     -43.314-122.156 -50.566  0.00  0.00    -0.227 NA
ATOM      7  C   UNL d   1     -43.389-121.973 -51.976  0.00  0.00     0.066 A 
ATOM      8  C   UNL d   1     -41.582-123.399 -50.120  0.00  0.00     0.104 A 
ATOM      9  C   UNL d   1     -43.697-121.831 -51.208  0.00  0.00     0.087 A 
ATOM     10  C   UNL d   1     -43.877-121.586 -52.497  0.00  0.00     0.006 A 
ATOM     11  C   UNL d   1     -41.207-123.719 -49.467  0.00  0.00     0.023 C 
ATOM     12  C   UNL d   1     -44.365-121.362 -51.276  0.00  0.00     0.019 A 
ATOM     13  C   UNL d   1     -44.475-121.210 -52.085  0.00  0.00     0.002 A 
ENDROOT
BRANCH   3  14
ATOM     14  N   UNL d   1     -42.423-122.561 -52.861  0.00  0.00    -0.383 NA
BRANCH  14  15
ATOM     15  C   UNL d   1     -42.119-122.696 -53.637  0.00  0.00     0.134 A 
ATOM     16  C   UNL d   1     -41.596-122.127 -53.994  0.00  0.00     0.034 A 
ATOM     17  C   UNL d   1     -41.294-122.265 -54.769  0.00  0.00     0.032 A 
ATOM     18  C   UNL d   1     -41.507-122.961 -55.190  0.00  0.00     0.140 A 
ATOM     19  C   UNL d   1     -42.029-123.525 -54.828  0.00  0.00     0.032 A 
ATOM     20  F   UNL d   1     -41.203-123.100 -55.969  0.00  0.00    -0.204 F 
ATOM     21  C   UNL d   1     -42.335-123.399 -54.058  0.00  0.00     0.034 A 
ENDBRANCH  14  15
ENDBRANCH   3  14
BRANCH   5  22
ATOM     22  C   UNL d   1     -42.557-122.803 -49.263  0.00  0.00     0.004 A 
ATOM     23  C   UNL d   1     -42.275-122.175 -48.815  0.00  0.00     0.000 A 
ATOM     24  C   UNL d   1     -42.565-122.038 -48.063  0.00  0.00     0.000 A 
ATOM     25  C   UNL d   1     -43.146-122.535 -47.752  0.00  0.00     0.000 A 
ATOM     26  C   UNL d   1     -43.429-123.157 -48.187  0.00  0.00     0.000 A 
ATOM     27  C   UNL d   1     -43.132-123.292 -48.951  0.00  0.00     0.000 A 
ENDBRANCH   5  22
TORSDOF 3
ENDMDL
