MODEL 1
REMARK VINA RESULT:      14.4      0.000      0.000
REMARK  2 active torsions:
REMARK  status: ('A' for Active; 'I' for Inactive)
REMARK    1  A    between atoms: C_6  and  C_1 
REMARK    2  A    between atoms: C_7  and  C_5 
ROOT
ATOM      1  C   UNL d   1      59.690  49.636  50.598  0.00  0.00     0.085 A 
ATOM      2  C   UNL d   1      59.436  49.686  51.383  0.00  0.00     0.137 A 
ATOM      3  C   UNL d   1      59.045  49.627  50.105  0.00  0.00     0.013 A 
ATOM      4  S   UNL d   1      58.614  49.708  51.365  0.00  0.00    -0.066 SA
ATOM      5  C   UNL d   1      58.374  49.672  50.593  0.00  0.00     0.031 A 
ATOM      6  N   UNL d   1      59.942  49.707  52.036  0.00  0.00    -0.141 N 
ENDROOT
BRANCH   5   7
ATOM      7  C   UNL d   1      57.615  49.677  50.291  0.00  0.00     0.006 A 
ATOM      8  C   UNL d   1      56.982  49.684  50.797  0.00  0.00     0.001 A 
ATOM      9  C   UNL d   1      56.210  49.689  50.497  0.00  0.00     0.000 A 
ATOM     10  C   UNL d   1      56.085  49.686  49.690  0.00  0.00     0.000 A 
ATOM     11  C   UNL d   1      56.728  49.679  49.174  0.00  0.00     0.000 A 
ATOM     12  C   UNL d   1      57.488  49.674  49.476  0.00  0.00     0.001 A 
ENDBRANCH   5   7
BRANCH   1  13
ATOM     13  C   UNL d   1      60.489  49.599  50.335  0.00  0.00     0.299 C 
ATOM     14  O   UNL d   1      60.662  49.703  49.547  0.00  0.00    -0.264 OA
ATOM     15  N   UNL d   1      61.082  49.457  50.883  0.00  0.00    -0.102 N 
ENDBRANCH   1  13
TORSDOF 2
ENDMDL
