MODEL 1
REMARK VINA RESULT:      36.8      0.000      0.000
REMARK  6 active torsions:
REMARK  status: ('A' for Active; 'I' for Inactive)
REMARK    1  A    between atoms: C_6  and  C_1 
REMARK    2  A    between atoms: C_9  and  N_3 
REMARK    3  A    between atoms: C_17  and  C_9 
REMARK    4  A    between atoms: O_15  and  C_10 
REMARK    5  A    between atoms: O_16  and  C_17 
REMARK    6  A    between atoms: C_18  and  O_16 
ROOT
ATOM      1  C   UNL d   1     -54.885-101.191 -38.256  0.00  0.00     0.148 A 
ATOM      2  N   UNL d   1     -54.929-100.361 -38.185  0.00  0.00    -0.227 NA
ATOM      3  N   UNL d   1     -54.798-101.518 -37.502  0.00  0.00    -0.287 N 
ATOM      4  C   UNL d   1     -54.786-100.897 -36.953  0.00  0.00     0.083 A 
ATOM      5  C   UNL d   1     -54.866-100.187 -37.374  0.00  0.00     0.099 A 
ATOM      6  C   UNL d   1     -54.712-100.874 -36.124  0.00  0.00     0.019 A 
ATOM      7  C   UNL d   1     -54.873 -99.461 -36.968  0.00  0.00     0.021 A 
ATOM      8  C   UNL d   1     -54.719-100.154 -35.723  0.00  0.00     0.002 A 
ATOM      9  C   UNL d   1     -54.800 -99.446 -36.147  0.00  0.00     0.002 A 
ENDROOT
BRANCH   1  10
ATOM     10  C   UNL d   1     -54.924-101.612 -38.964  0.00  0.00     0.035 A 
ATOM     11  C   UNL d   1     -55.165-102.400 -38.961  0.00  0.00     0.005 A 
ATOM     12  C   UNL d   1     -55.203-102.819 -39.666  0.00  0.00     0.024 A 
ATOM     13  C   UNL d   1     -55.002-102.457 -40.379  0.00  0.00     0.094 A 
ATOM     14  C   UNL d   1     -54.756-101.655 -40.384  0.00  0.00     0.024 A 
ATOM     15  C   UNL d   1     -54.719-101.240 -39.674  0.00  0.00     0.005 A 
BRANCH  13  16
ATOM     16  O   UNL d   1     -55.038-102.873 -41.092  0.00  0.00    -0.328 OA
ATOM     17  C   UNL d   1     -55.152-102.458 -41.796  0.00  0.00     0.181 C 
ENDBRANCH  13  16
ENDBRANCH   1  10
BRANCH   3  18
ATOM     18  C   UNL d   1     -54.747-102.337 -37.490  0.00  0.00     0.108 C 
BRANCH  18  19
ATOM     19  C   UNL d   1     -55.107-102.763 -36.885  0.00  0.00     0.142 C 
BRANCH  19  20
ATOM     20  O   UNL d   1     -55.632-102.390 -36.375  0.00  0.00    -0.302 OA
BRANCH  20  21
ATOM     21  C   UNL d   1     -55.899-102.781 -35.704  0.00  0.00     0.123 C 
ATOM     22  C   UNL d   1     -56.681-102.679 -35.453  0.00  0.00     0.029 C 
ENDBRANCH  20  21
ENDBRANCH  19  20
ENDBRANCH  18  19
ENDBRANCH   3  18
TORSDOF 6
ENDMDL
MODEL 2
REMARK VINA RESULT:      38.2      5.948      8.354
REMARK  6 active torsions:
REMARK  status: ('A' for Active; 'I' for Inactive)
REMARK    1  A    between atoms: C_6  and  C_1 
REMARK    2  A    between atoms: C_9  and  N_3 
REMARK    3  A    between atoms: C_17  and  C_9 
REMARK    4  A    between atoms: O_15  and  C_10 
REMARK    5  A    between atoms: O_16  and  C_17 
REMARK    6  A    between atoms: C_18  and  O_16 
ROOT
ATOM      1  C   UNL d   1     -59.193 -98.941 -44.151  0.00  0.00     0.148 A 
ATOM      2  N   UNL d   1     -59.857 -98.892 -44.653  0.00  0.00    -0.227 NA
ATOM      3  N   UNL d   1     -58.508 -98.929 -44.614  0.00  0.00    -0.287 N 
ATOM      4  C   UNL d   1     -58.737 -98.872 -45.408  0.00  0.00     0.083 A 
ATOM      5  C   UNL d   1     -59.565 -98.850 -45.431  0.00  0.00     0.099 A 
ATOM      6  C   UNL d   1     -58.307 -98.837 -46.121  0.00  0.00     0.019 A 
ATOM      7  C   UNL d   1     -59.960 -98.793 -46.161  0.00  0.00     0.021 A 
ATOM      8  C   UNL d   1     -58.700 -98.781 -46.844  0.00  0.00     0.002 A 
ATOM      9  C   UNL d   1     -59.528 -98.759 -46.864  0.00  0.00     0.002 A 
ENDROOT
BRANCH   1  10
ATOM     10  C   UNL d   1     -59.221 -98.993 -43.328  0.00  0.00     0.035 A 
ATOM     11  C   UNL d   1     -59.916 -99.230 -42.954  0.00  0.00     0.005 A 
ATOM     12  C   UNL d   1     -59.944 -99.282 -42.136  0.00  0.00     0.024 A 
ATOM     13  C   UNL d   1     -59.279 -99.099 -41.683  0.00  0.00     0.094 A 
ATOM     14  C   UNL d   1     -58.570 -98.858 -42.062  0.00  0.00     0.024 A 
ATOM     15  C   UNL d   1     -58.549 -98.807 -42.883  0.00  0.00     0.005 A 
BRANCH  13  16
ATOM     16  O   UNL d   1     -59.300 -99.149 -40.858  0.00  0.00    -0.328 OA
ATOM     17  C   UNL d   1     -59.084 -99.855 -40.491  0.00  0.00     0.181 C 
ENDBRANCH  13  16
ENDBRANCH   1  10
BRANCH   3  18
ATOM     18  C   UNL d   1     -57.808 -98.974 -44.187  0.00  0.00     0.108 C 
BRANCH  18  19
ATOM     19  C   UNL d   1     -57.139 -99.311 -44.527  0.00  0.00     0.142 C 
BRANCH  19  20
ATOM     20  O   UNL d   1     -56.519 -99.562 -44.051  0.00  0.00    -0.302 OA
BRANCH  20  21
ATOM     21  C   UNL d   1     -55.758 -99.286 -44.193  0.00  0.00     0.123 C 
ATOM     22  C   UNL d   1     -55.118 -99.619 -43.788  0.00  0.00     0.029 C 
ENDBRANCH  20  21
ENDBRANCH  19  20
ENDBRANCH  18  19
ENDBRANCH   3  18
TORSDOF 6
ENDMDL
