MODEL 1
REMARK VINA RESULT:      38.6      0.000      0.000
REMARK  5 active torsions:
REMARK  status: ('A' for Active; 'I' for Inactive)
REMARK    1  A    between atoms: C_10  and  N_6 
REMARK    2  A    between atoms: N_13  and  C_9 
REMARK    3  A    between atoms: C_14  and  C_10 
REMARK    4  A    between atoms: C_21  and  N_13 
REMARK    5  A    between atoms: C_24  and  C_21 
ROOT
ATOM      1  C   UNL d   1      46.327 -18.644  42.287  0.00  0.00     0.176 A 
ATOM      2  C   UNL d   1      46.453 -17.855  42.274  0.00  0.00     0.159 A 
ATOM      3  N   UNL d   1      46.291 -19.046  42.978  0.00  0.00    -0.181 NA
ATOM      4  N   UNL d   1      46.231 -19.052  41.593  0.00  0.00    -0.240 N 
ATOM      5  N   UNL d   1      46.392 -17.869  40.880  0.00  0.00    -0.223 N 
ATOM      6  N   UNL d   1      46.514 -17.842  43.654  0.00  0.00    -0.258 N 
ATOM      7  C   UNL d   1      46.264 -18.671  40.894  0.00  0.00     0.343 A 
ATOM      8  C   UNL d   1      46.486 -17.469  41.566  0.00  0.00     0.287 A 
ATOM      9  C   UNL d   1      46.383 -18.655  43.656  0.00  0.00     0.292 A 
ATOM     10  O   UNL d   1      46.169 -19.073  40.199  0.00  0.00    -0.245 OA
ATOM     11  O   UNL d   1      46.616 -16.660  41.552  0.00  0.00    -0.265 OA
ATOM     12  C   UNL d   1      46.103 -19.848  41.606  0.00  0.00     0.105 C 
ATOM     13  C   UNL d   1      46.427 -17.463  40.151  0.00  0.00     0.107 C 
ENDROOT
BRANCH   6  14
ATOM     14  C   UNL d   1      46.645 -17.137  44.061  0.00  0.00     0.084 C 
BRANCH  14  15
ATOM     15  C   UNL d   1      46.016 -16.611  44.210  0.00  0.00     0.018 A 
ATOM     16  C   UNL d   1      46.169 -15.800  44.211  0.00  0.00     0.002 A 
ATOM     17  C   UNL d   1      45.540 -15.274  44.360  0.00  0.00     0.000 A 
ATOM     18  C   UNL d   1      45.469 -14.441  44.407  0.00  0.00     0.000 C 
ATOM     19  C   UNL d   1      44.769 -15.567  44.505  0.00  0.00     0.000 A 
ATOM     20  C   UNL d   1      44.644 -16.384  44.499  0.00  0.00     0.000 A 
ATOM     21  C   UNL d   1      45.266 -16.904  44.351  0.00  0.00     0.002 A 
ENDBRANCH  14  15
ENDBRANCH   6  14
BRANCH   9  22
ATOM     22  N   UNL d   1      46.350 -19.036  44.355  0.00  0.00    -0.365 NA
BRANCH  22  23
ATOM     23  C   UNL d   1      46.254 -19.609  44.954  0.00  0.00     0.164 C 
BRANCH  23  24
ATOM     24  C   UNL d   1      45.843 -20.322  44.790  0.00  0.00     0.035 C 
ATOM     25  C   UNL d   1      45.011 -20.330  44.749  0.00  0.00     0.003 C 
ENDBRANCH  23  24
ENDBRANCH  22  23
ENDBRANCH   9  22
TORSDOF 5
ENDMDL
