MODEL 1
REMARK VINA RESULT:      32.5      0.000      0.000
REMARK  4 active torsions:
REMARK  status: ('A' for Active; 'I' for Inactive)
REMARK    1  A    between atoms: C_6  and  N_1 
REMARK    2  A    between atoms: C_7  and  C_6 
REMARK    3  A    between atoms: C_14  and  C_7 
REMARK    4  A    between atoms: N_10  and  C_14 
ROOT
ATOM      1  N   UNL d   1      59.243  49.695  50.998  0.00  0.00    -0.303 N 
ATOM      2  C   UNL d   1      59.833  49.681  51.578  0.00  0.00     0.064 A 
ATOM      3  C   UNL d   1      60.571  49.672  51.197  0.00  0.00     0.018 A 
ATOM      4  C   UNL d   1      59.615  49.695  50.259  0.00  0.00     0.064 A 
ATOM      5  C   UNL d   1      60.433  49.681  50.381  0.00  0.00     0.018 A 
ATOM      6  C   UNL d   1      59.798  49.674  52.405  0.00  0.00     0.018 A 
ATOM      7  C   UNL d   1      61.265  49.657  51.641  0.00  0.00     0.002 A 
ATOM      8  C   UNL d   1      59.313  49.707  49.491  0.00  0.00     0.018 A 
ATOM      9  C   UNL d   1      60.946  49.678  49.735  0.00  0.00     0.002 A 
ATOM     10  C   UNL d   1      61.231  49.650  52.464  0.00  0.00     0.000 A 
ATOM     11  C   UNL d   1      60.501  49.659  52.851  0.00  0.00     0.002 A 
ATOM     12  C   UNL d   1      59.826  49.704  48.850  0.00  0.00     0.002 A 
ATOM     13  C   UNL d   1      60.643  49.689  48.972  0.00  0.00     0.000 A 
ENDROOT
BRANCH   1  14
ATOM     14  C   UNL d   1      58.437  49.707  51.139  0.00  0.00     0.124 C 
BRANCH  14  15
ATOM     15  C   UNL d   1      57.921  49.292  50.653  0.00  0.00     0.232 C 
ATOM     16  O   UNL d   1      58.184  48.964  49.946  0.00  0.00    -0.283 OA
BRANCH  15  17
ATOM     17  C   UNL d   1      57.133  49.205  50.880  0.00  0.00     0.142 C 
BRANCH  17  18
ATOM     18  N   UNL d   1      56.527  49.474  50.385  0.00  0.00    -0.237 NA
ATOM     19  C   UNL d   1      56.302  49.017  49.738  0.00  0.00     0.120 C 
ENDBRANCH  17  18
ENDBRANCH  15  17
ENDBRANCH  14  15
ENDBRANCH   1  14
TORSDOF 4
ENDMDL
