MODEL 1
REMARK VINA RESULT:      -1.0      0.000      0.000
REMARK  0 active torsions:
REMARK  status: ('A' for Active; 'I' for Inactive)
ROOT
ATOM      1  N   UNL d   1      24.079  11.850  -1.410  0.00  0.00    -0.219 NA
ATOM      2  C   UNL d   1      24.444  12.295  -2.009  0.00  0.00     0.215 A 
ATOM      3  S   UNL d   1      24.462  13.088  -1.762  0.00  0.00    -0.045 SA
ATOM      4  C   UNL d   1      23.873  12.364  -0.797  0.00  0.00     0.090 A 
ATOM      5  C   UNL d   1      24.108  13.126  -1.012  0.00  0.00     0.058 A 
ATOM      6  N   UNL d   1      24.739  12.012  -2.724  0.00  0.00    -0.120 N 
ATOM      7  C   UNL d   1      23.500  12.148  -0.099  0.00  0.00     0.021 C 
ENDROOT
TORSDOF 0
ENDMDL
