MODEL 1
REMARK VINA RESULT:      84.8      0.000      0.000
REMARK  9 active torsions:
REMARK  status: ('A' for Active; 'I' for Inactive)
REMARK    1  A    between atoms: C_12  and  N_1 
REMARK    2  A    between atoms: C_13  and  N_2 
REMARK    3  A    between atoms: O_9  and  C_23 
REMARK    4  A    between atoms: C_10  and  O_9 
REMARK    5  A    between atoms: C_11  and  C_12 
REMARK    6  A    between atoms: C_18  and  C_13 
REMARK    7  A    between atoms: C_26  and  C_15 
REMARK    8  A    between atoms: C_16  and  C_26 
REMARK    9  A    between atoms: C_23  and  C_18 
ROOT
ATOM      1  N   UNL d   1      61.456  45.873  49.863  0.00  0.00    -0.300 N 
ATOM      2  N   UNL d   1      61.055  47.346  50.526  0.00  0.00    -0.297 N 
ATOM      3  C   UNL d   1      60.774  45.965  50.280  0.00  0.00     0.100 A 
ATOM      4  C   UNL d   1      61.754  47.270  50.104  0.00  0.00     0.100 A 
ATOM      5  C   UNL d   1      60.555  46.688  50.619  0.00  0.00     0.100 A 
ATOM      6  C   UNL d   1      61.954  46.533  49.773  0.00  0.00     0.100 A 
ENDROOT
BRANCH   2   7
ATOM      7  C   UNL d   1      60.850  48.056  50.853  0.00  0.00     0.125 C 
BRANCH   7   8
ATOM      8  C   UNL d   1      60.908  48.751  50.444  0.00  0.00     0.238 C 
ATOM      9  O   UNL d   1      61.296  48.733  49.706  0.00  0.00    -0.283 OA
BRANCH   8  10
ATOM     10  C   UNL d   1      60.606  49.430  50.735  0.00  0.00     0.166 C 
BRANCH  10  11
ATOM     11  O   UNL d   1      59.850  49.684  50.509  0.00  0.00    -0.302 OA
BRANCH  11  12
ATOM     12  C   UNL d   1      59.241  49.691  51.045  0.00  0.00     0.100 A 
ATOM     13  C   UNL d   1      58.461  49.695  50.795  0.00  0.00     0.023 A 
ATOM     14  C   UNL d   1      57.834  49.702  51.329  0.00  0.00     0.002 A 
ATOM     15  C   UNL d   1      57.990  49.704  52.144  0.00  0.00     0.000 A 
ATOM     16  C   UNL d   1      58.782  49.700  52.415  0.00  0.00     0.002 A 
ATOM     17  C   UNL d   1      59.406  49.693  51.851  0.00  0.00     0.025 A 
BRANCH  13  18
ATOM     18  C   UNL d   1      58.305  49.693  49.998  0.00  0.00     0.002 C 
BRANCH  18  19
ATOM     19  C   UNL d   1      57.662  49.284  49.707  0.00  0.00     0.000 C 
ATOM     20  C   UNL d   1      57.345  49.472  48.964  0.00  0.00     0.000 C 
ENDBRANCH  18  19
ENDBRANCH  13  18
ENDBRANCH  11  12
ENDBRANCH  10  11
ENDBRANCH   8  10
ENDBRANCH   7   8
ENDBRANCH   2   7
BRANCH   1  21
ATOM     21  C   UNL d   1      61.649  45.157  49.542  0.00  0.00     0.080 C 
BRANCH  21  22
ATOM     22  C   UNL d   1      61.806  44.536  50.042  0.00  0.00     0.020 A 
ATOM     23  C   UNL d   1      62.174  43.872  49.754  0.00  0.00     0.028 A 
ATOM     24  C   UNL d   1      62.322  43.253  50.286  0.00  0.00     0.119 A 
ATOM     25  O   UNL d   1      62.684  42.531  50.127  0.00  0.00    -0.300 OA
ATOM     26  C   UNL d   1      62.108  43.306  51.068  0.00  0.00     0.119 A 
ATOM     27  C   UNL d   1      62.704  42.093  50.851  0.00  0.00     0.304 A 
ATOM     28  O   UNL d   1      62.342  42.590  51.426  0.00  0.00    -0.300 OA
ATOM     29  C   UNL d   1      61.733  43.983  51.361  0.00  0.00     0.026 A 
ATOM     30  C   UNL d   1      61.584  44.602  50.837  0.00  0.00     0.004 A 
ENDBRANCH  21  22
ENDBRANCH   1  21
TORSDOF 9
ENDMDL
MODEL 2
REMARK VINA RESULT:      87.3      0.982      1.622
REMARK  9 active torsions:
REMARK  status: ('A' for Active; 'I' for Inactive)
REMARK    1  A    between atoms: C_12  and  N_1 
REMARK    2  A    between atoms: C_13  and  N_2 
REMARK    3  A    between atoms: O_9  and  C_23 
REMARK    4  A    between atoms: C_10  and  O_9 
REMARK    5  A    between atoms: C_11  and  C_12 
REMARK    6  A    between atoms: C_18  and  C_13 
REMARK    7  A    between atoms: C_26  and  C_15 
REMARK    8  A    between atoms: C_16  and  C_26 
REMARK    9  A    between atoms: C_23  and  C_18 
ROOT
ATOM      1  N   UNL d   1      60.839  46.057  50.166  0.00  0.00    -0.300 N 
ATOM      2  N   UNL d   1      60.891  47.594  50.803  0.00  0.00    -0.297 N 
ATOM      3  C   UNL d   1      60.548  46.209  50.900  0.00  0.00     0.100 A 
ATOM      4  C   UNL d   1      61.193  47.458  50.053  0.00  0.00     0.100 A 
ATOM      5  C   UNL d   1      60.563  46.965  51.237  0.00  0.00     0.100 A 
ATOM      6  C   UNL d   1      61.167  46.689  49.735  0.00  0.00     0.100 A 
ENDROOT
BRANCH   2   7
ATOM      7  C   UNL d   1      60.910  48.336  51.122  0.00  0.00     0.125 C 
BRANCH   7   8
ATOM      8  C   UNL d   1      60.247  48.793  51.190  0.00  0.00     0.238 C 
ATOM      9  O   UNL d   1      60.155  49.239  51.888  0.00  0.00    -0.283 OA
BRANCH   8  10
ATOM     10  C   UNL d   1      59.699  48.818  50.609  0.00  0.00     0.166 C 
BRANCH  10  11
ATOM     11  O   UNL d   1      58.898  48.931  50.792  0.00  0.00    -0.302 OA
BRANCH  11  12
ATOM     12  C   UNL d   1      58.378  49.184  50.224  0.00  0.00     0.100 A 
ATOM     13  C   UNL d   1      57.573  49.209  50.372  0.00  0.00     0.023 A 
ATOM     14  C   UNL d   1      57.035  49.464  49.803  0.00  0.00     0.002 A 
ATOM     15  C   UNL d   1      57.309  49.703  49.057  0.00  0.00     0.000 A 
ATOM     16  C   UNL d   1      58.129  49.682  48.891  0.00  0.00     0.002 A 
ATOM     17  C   UNL d   1      58.660  49.419  49.487  0.00  0.00     0.025 A 
BRANCH  13  18
ATOM     18  C   UNL d   1      57.301  48.976  51.101  0.00  0.00     0.002 C 
BRANCH  18  19
ATOM     19  C   UNL d   1      56.548  49.178  51.341  0.00  0.00     0.000 C 
ATOM     20  C   UNL d   1      56.435  49.707  51.969  0.00  0.00     0.000 C 
ENDBRANCH  18  19
ENDBRANCH  13  18
ENDBRANCH  11  12
ENDBRANCH  10  11
ENDBRANCH   8  10
ENDBRANCH   7   8
ENDBRANCH   2   7
BRANCH   1  21
ATOM     21  C   UNL d   1      60.814  45.310  49.858  0.00  0.00     0.080 C 
BRANCH  21  22
ATOM     22  C   UNL d   1      61.341  44.758  50.135  0.00  0.00     0.020 A 
ATOM     23  C   UNL d   1      61.131  44.277  50.754  0.00  0.00     0.028 A 
ATOM     24  C   UNL d   1      61.688  43.721  51.017  0.00  0.00     0.119 A 
ATOM     25  O   UNL d   1      61.604  43.178  51.629  0.00  0.00    -0.300 OA
ATOM     26  C   UNL d   1      62.419  43.658  50.669  0.00  0.00     0.119 A 
ATOM     27  C   UNL d   1      62.326  42.739  51.678  0.00  0.00     0.304 A 
ATOM     28  O   UNL d   1      62.822  43.050  51.074  0.00  0.00    -0.300 OA
ATOM     29  C   UNL d   1      62.633  44.148  50.038  0.00  0.00     0.026 A 
ATOM     30  C   UNL d   1      62.084  44.703  49.772  0.00  0.00     0.004 A 
ENDBRANCH  21  22
ENDBRANCH   1  21
TORSDOF 9
ENDMDL
