MODEL 1
REMARK VINA RESULT:      -8.2      0.000      0.000
REMARK  6 active torsions:
REMARK  status: ('A' for Active; 'I' for Inactive)
REMARK    1  A    between atoms: N_3  and  C_1 
REMARK       I    between atoms: C_4  and  N_3 
REMARK       I    between atoms: N_10  and  C_4 
REMARK    2  A    between atoms: C_7  and  C_5 
REMARK    3  A    between atoms: C_9  and  C_7 
REMARK       I    between atoms: N_12  and  C_9 
REMARK    4  A    between atoms: C_13  and  N_10 
REMARK    5  A    between atoms: C_18  and  N_12 
REMARK    6  A    between atoms: C_17  and  C_18 
ROOT
ATOM      1  C   UNL d   1      52.823  33.454  53.302  0.00  0.00     0.199 A 
ATOM      2  N   UNL d   1      52.272  33.620  52.710  0.00  0.00    -0.220 NA
ATOM      3  C   UNL d   1      51.841  34.277  52.948  0.00  0.00     0.095 A 
ATOM      4  S   UNL d   1      52.736  33.995  53.896  0.00  0.00    -0.046 SA
ATOM      5  C   UNL d   1      52.129  34.511  53.686  0.00  0.00     0.058 A 
ENDROOT
BRANCH   1   6
ATOM      6  N   UNL d   1      53.380  32.830  53.294  0.00  0.00    -0.166 NA
ATOM      7  C   UNL d   1      53.123  32.042  53.377  0.00  0.00     0.370 C 
ATOM      8  N   UNL d   1      53.665  31.419  53.370  0.00  0.00    -0.191 NA
ATOM      9  O   UNL d   1      52.315  31.875  53.468  0.00  0.00    -0.242 OA
BRANCH   8  10
ATOM     10  C   UNL d   1      53.420  30.643  53.451  0.00  0.00     0.087 A 
ATOM     11  C   UNL d   1      53.510  30.245  54.165  0.00  0.00     0.031 A 
ATOM     12  C   UNL d   1      53.268  29.476  54.250  0.00  0.00     0.059 A 
ATOM     13 CL   UNL d   1      53.363  29.081  54.971  0.00  0.00    -0.082 Cl
ATOM     14  C   UNL d   1      52.921  29.082  53.602  0.00  0.00     0.011 A 
ATOM     15  C   UNL d   1      52.830  29.481  52.888  0.00  0.00     0.002 A 
ATOM     16  C   UNL d   1      53.080  30.262  52.811  0.00  0.00     0.019 A 
ENDBRANCH   8  10
ENDBRANCH   1   6
BRANCH   3  17
ATOM     17  C   UNL d   1      51.227  34.638  52.523  0.00  0.00     0.082 C 
BRANCH  17  18
ATOM     18  C   UNL d   1      50.426  34.470  52.701  0.00  0.00     0.281 C 
ATOM     19  N   UNL d   1      49.866  35.074  52.736  0.00  0.00    -0.206 NA
ATOM     20  O   UNL d   1      50.210  33.688  52.840  0.00  0.00    -0.265 OA
BRANCH  19  21
ATOM     21  C   UNL d   1      49.085  34.900  52.911  0.00  0.00     0.104 C 
BRANCH  21  22
ATOM     22  C   UNL d   1      48.522  35.504  52.915  0.00  0.00     0.038 A 
ATOM     23  C   UNL d   1      48.433  35.990  53.578  0.00  0.00     0.101 A 
ATOM     24  N   UNL d   1      47.866  36.592  53.569  0.00  0.00    -0.242 NA
ATOM     25  C   UNL d   1      47.388  36.709  52.899  0.00  0.00     0.099 A 
ATOM     26  C   UNL d   1      47.486  36.223  52.251  0.00  0.00     0.021 A 
ATOM     27  C   UNL d   1      48.054  35.620  52.259  0.00  0.00     0.005 A 
ENDBRANCH  21  22
ENDBRANCH  19  21
ENDBRANCH  17  18
ENDBRANCH   3  17
TORSDOF 6
ENDMDL
MODEL 2
REMARK VINA RESULT:      -8.0      1.730      2.686
REMARK  6 active torsions:
REMARK  status: ('A' for Active; 'I' for Inactive)
REMARK    1  A    between atoms: N_3  and  C_1 
REMARK       I    between atoms: C_4  and  N_3 
REMARK       I    between atoms: N_10  and  C_4 
REMARK    2  A    between atoms: C_7  and  C_5 
REMARK    3  A    between atoms: C_9  and  C_7 
REMARK       I    between atoms: N_12  and  C_9 
REMARK    4  A    between atoms: C_13  and  N_10 
REMARK    5  A    between atoms: C_18  and  N_12 
REMARK    6  A    between atoms: C_17  and  C_18 
ROOT
ATOM      1  C   UNL d   1      50.928  34.523  52.645  0.00  0.00     0.199 A 
ATOM      2  N   UNL d   1      50.413  34.843  53.204  0.00  0.00    -0.220 NA
ATOM      3  C   UNL d   1      49.647  34.722  52.936  0.00  0.00     0.095 A 
ATOM      4  S   UNL d   1      50.493  34.209  52.041  0.00  0.00    -0.046 SA
ATOM      5  C   UNL d   1      49.696  34.327  52.211  0.00  0.00     0.058 A 
ENDROOT
BRANCH   1   6
ATOM      6  N   UNL d   1      51.763  34.521  52.691  0.00  0.00    -0.166 NA
ATOM      7  C   UNL d   1      52.155  33.929  53.126  0.00  0.00     0.370 C 
ATOM      8  N   UNL d   1      52.979  33.918  53.177  0.00  0.00    -0.191 NA
ATOM      9  O   UNL d   1      51.717  33.340  53.514  0.00  0.00    -0.242 OA
BRANCH   8  10
ATOM     10  C   UNL d   1      53.370  33.338  53.603  0.00  0.00     0.087 A 
ATOM     11  C   UNL d   1      53.684  33.500  54.345  0.00  0.00     0.031 A 
ATOM     12  C   UNL d   1      54.071  32.929  54.770  0.00  0.00     0.059 A 
ATOM     13 CL   UNL d   1      54.385  33.099  55.517  0.00  0.00    -0.082 Cl
ATOM     14  C   UNL d   1      54.153  32.163  54.448  0.00  0.00     0.011 A 
ATOM     15  C   UNL d   1      53.838  32.002  53.705  0.00  0.00     0.002 A 
ATOM     16  C   UNL d   1      53.446  32.590  53.281  0.00  0.00     0.019 A 
ENDBRANCH   8  10
ENDBRANCH   1   6
BRANCH   3  17
ATOM     17  C   UNL d   1      48.950  34.954  53.323  0.00  0.00     0.082 C 
BRANCH  17  18
ATOM     18  C   UNL d   1      48.558  35.663  53.109  0.00  0.00     0.281 C 
ATOM     19  N   UNL d   1      47.820  35.642  52.744  0.00  0.00    -0.206 NA
ATOM     20  O   UNL d   1      48.926  36.381  53.273  0.00  0.00    -0.265 OA
BRANCH  19  21
ATOM     21  C   UNL d   1      47.443  36.340  52.538  0.00  0.00     0.104 C 
BRANCH  21  22
ATOM     22  C   UNL d   1      46.661  36.321  52.275  0.00  0.00     0.038 A 
ATOM     23  C   UNL d   1      46.473  35.982  51.544  0.00  0.00     0.101 A 
ATOM     24  N   UNL d   1      45.686  35.968  51.291  0.00  0.00    -0.242 NA
ATOM     25  C   UNL d   1      45.086  36.292  51.767  0.00  0.00     0.099 A 
ATOM     26  C   UNL d   1      45.285  36.624  52.486  0.00  0.00     0.021 A 
ATOM     27  C   UNL d   1      46.073  36.638  52.739  0.00  0.00     0.005 A 
ENDBRANCH  21  22
ENDBRANCH  19  21
ENDBRANCH  17  18
ENDBRANCH   3  17
TORSDOF 6
ENDMDL
MODEL 3
REMARK VINA RESULT:      -7.9      2.576      6.360
REMARK  6 active torsions:
REMARK  status: ('A' for Active; 'I' for Inactive)
REMARK    1  A    between atoms: N_3  and  C_1 
REMARK       I    between atoms: C_4  and  N_3 
REMARK       I    between atoms: N_10  and  C_4 
REMARK    2  A    between atoms: C_7  and  C_5 
REMARK    3  A    between atoms: C_9  and  C_7 
REMARK       I    between atoms: N_12  and  C_9 
REMARK    4  A    between atoms: C_13  and  N_10 
REMARK    5  A    between atoms: C_18  and  N_12 
REMARK    6  A    between atoms: C_17  and  C_18 
ROOT
ATOM      1  C   UNL d   1      50.421  34.565  52.987  0.00  0.00     0.199 A 
ATOM      2  N   UNL d   1      50.667  33.916  53.434  0.00  0.00    -0.220 NA
ATOM      3  C   UNL d   1      51.079  33.411  52.935  0.00  0.00     0.095 A 
ATOM      4  S   UNL d   1      50.675  34.466  52.226  0.00  0.00    -0.046 SA
ATOM      5  C   UNL d   1      51.084  33.753  52.183  0.00  0.00     0.058 A 
ENDROOT
BRANCH   1   6
ATOM      6  N   UNL d   1      49.982  35.219  53.269  0.00  0.00    -0.166 NA
ATOM      7  C   UNL d   1      49.182  35.306  53.055  0.00  0.00     0.370 C 
ATOM      8  N   UNL d   1      48.740  35.949  53.328  0.00  0.00    -0.191 NA
ATOM      9  O   UNL d   1      48.820  34.746  52.561  0.00  0.00    -0.242 OA
BRANCH   8  10
ATOM     10  C   UNL d   1      47.954  36.040  53.121  0.00  0.00     0.087 A 
ATOM     11  C   UNL d   1      47.357  35.919  53.672  0.00  0.00     0.031 A 
ATOM     12  C   UNL d   1      46.576  36.008  53.472  0.00  0.00     0.059 A 
ATOM     13 CL   UNL d   1      45.979  35.884  54.031  0.00  0.00    -0.082 Cl
ATOM     14  C   UNL d   1      46.377  36.229  52.692  0.00  0.00     0.011 A 
ATOM     15  C   UNL d   1      46.975  36.351  52.141  0.00  0.00     0.002 A 
ATOM     16  C   UNL d   1      47.766  36.257  52.355  0.00  0.00     0.019 A 
ENDBRANCH   8  10
ENDBRANCH   1   6
BRANCH   3  17
ATOM     17  C   UNL d   1      51.426  32.689  53.150  0.00  0.00     0.082 C 
BRANCH  17  18
ATOM     18  C   UNL d   1      52.255  32.580  53.096  0.00  0.00     0.281 C 
ATOM     19  N   UNL d   1      52.744  32.747  53.738  0.00  0.00    -0.206 NA
ATOM     20  O   UNL d   1      52.570  32.302  52.388  0.00  0.00    -0.265 OA
BRANCH  19  21
ATOM     21  C   UNL d   1      53.554  32.637  53.676  0.00  0.00     0.104 C 
BRANCH  21  22
ATOM     22  C   UNL d   1      54.053  32.936  54.262  0.00  0.00     0.038 A 
ATOM     23  C   UNL d   1      53.954  32.711  55.051  0.00  0.00     0.101 A 
ATOM     24  N   UNL d   1      54.460  33.017  55.630  0.00  0.00    -0.242 NA
ATOM     25  C   UNL d   1      55.064  33.548  55.421  0.00  0.00     0.099 A 
ATOM     26  C   UNL d   1      55.151  33.763  54.638  0.00  0.00     0.021 A 
ATOM     27  C   UNL d   1      54.645  33.457  54.059  0.00  0.00     0.005 A 
ENDBRANCH  21  22
ENDBRANCH  19  21
ENDBRANCH  17  18
ENDBRANCH   3  17
TORSDOF 6
ENDMDL
MODEL 4
REMARK VINA RESULT:      -7.6      2.038      6.302
REMARK  6 active torsions:
REMARK  status: ('A' for Active; 'I' for Inactive)
REMARK    1  A    between atoms: N_3  and  C_1 
REMARK       I    between atoms: C_4  and  N_3 
REMARK       I    between atoms: N_10  and  C_4 
REMARK    2  A    between atoms: C_7  and  C_5 
REMARK    3  A    between atoms: C_9  and  C_7 
REMARK       I    between atoms: N_12  and  C_9 
REMARK    4  A    between atoms: C_13  and  N_10 
REMARK    5  A    between atoms: C_18  and  N_12 
REMARK    6  A    between atoms: C_17  and  C_18 
ROOT
ATOM      1  C   UNL d   1      50.896  34.095  52.666  0.00  0.00     0.199 A 
ATOM      2  N   UNL d   1      51.250  33.707  53.303  0.00  0.00    -0.220 NA
ATOM      3  C   UNL d   1      52.058  33.842  53.260  0.00  0.00     0.095 A 
ATOM      4  S   UNL d   1      51.472  34.463  52.235  0.00  0.00    -0.046 SA
ATOM      5  C   UNL d   1      52.197  34.313  52.595  0.00  0.00     0.058 A 
ENDROOT
BRANCH   1   6
ATOM      6  N   UNL d   1      50.078  34.108  52.491  0.00  0.00    -0.166 NA
ATOM      7  C   UNL d   1      49.614  34.761  52.719  0.00  0.00     0.370 C 
ATOM      8  N   UNL d   1      48.806  34.783  52.551  0.00  0.00    -0.191 NA
ATOM      9  O   UNL d   1      49.962  35.399  53.120  0.00  0.00    -0.242 OA
BRANCH   8  10
ATOM     10  C   UNL d   1      48.345  35.421  52.773  0.00  0.00     0.087 A 
ATOM     11  C   UNL d   1      48.176  35.565  53.564  0.00  0.00     0.031 A 
ATOM     12  C   UNL d   1      47.720  36.196  53.789  0.00  0.00     0.059 A 
ATOM     13 CL   UNL d   1      47.553  36.335  54.587  0.00  0.00    -0.082 Cl
ATOM     14  C   UNL d   1      47.416  36.709  53.205  0.00  0.00     0.011 A 
ATOM     15  C   UNL d   1      47.585  36.565  52.413  0.00  0.00     0.002 A 
ATOM     16  C   UNL d   1      48.050  35.921  52.195  0.00  0.00     0.019 A 
ENDBRANCH   8  10
ENDBRANCH   1   6
BRANCH   3  17
ATOM     17  C   UNL d   1      52.630  33.556  53.788  0.00  0.00     0.082 C 
BRANCH  17  18
ATOM     18  C   UNL d   1      53.164  32.953  53.557  0.00  0.00     0.281 C 
ATOM     19  N   UNL d   1      52.992  32.160  53.702  0.00  0.00    -0.206 NA
ATOM     20  O   UNL d   1      53.863  33.170  53.181  0.00  0.00    -0.265 OA
BRANCH  19  21
ATOM     21  C   UNL d   1      53.520  31.577  53.472  0.00  0.00     0.104 C 
BRANCH  21  22
ATOM     22  C   UNL d   1      53.311  30.782  53.551  0.00  0.00     0.038 A 
ATOM     23  C   UNL d   1      52.820  30.421  52.993  0.00  0.00     0.101 A 
ATOM     24  N   UNL d   1      52.618  29.624  53.083  0.00  0.00    -0.242 NA
ATOM     25  C   UNL d   1      52.905  29.187  53.730  0.00  0.00     0.099 A 
ATOM     26  C   UNL d   1      53.389  29.556  54.274  0.00  0.00     0.021 A 
ATOM     27  C   UNL d   1      53.592  30.354  54.184  0.00  0.00     0.005 A 
ENDBRANCH  21  22
ENDBRANCH  19  21
ENDBRANCH  17  18
ENDBRANCH   3  17
TORSDOF 6
ENDMDL
