MODEL 1
REMARK VINA RESULT:      25.8      0.000      0.000
REMARK  2 active torsions:
REMARK  status: ('A' for Active; 'I' for Inactive)
REMARK       I    between atoms: C_2  and  N_4 
REMARK       I    between atoms: N_7  and  C_2 
REMARK    1  A    between atoms: N_4  and  C_8 
REMARK    2  A    between atoms: C_12  and  N_7 
ROOT
ATOM      1  C   UNL d   1     -54.815-101.761 -38.979  0.00  0.00     0.369 C 
ATOM      2  N   UNL d   1     -54.826-101.550 -38.187  0.00  0.00    -0.190 NA
ATOM      3  N   UNL d   1     -54.756-101.185 -39.563  0.00  0.00    -0.191 NA
ATOM      4  O   UNL d   1     -54.864-102.558 -39.187  0.00  0.00    -0.242 OA
ENDROOT
BRANCH   2   5
ATOM      5  C   UNL d   1     -54.885-102.120 -37.605  0.00  0.00     0.098 A 
ATOM      6  C   UNL d   1     -54.808-101.516 -37.043  0.00  0.00     0.118 A 
ATOM      7  S   UNL d   1     -54.838-101.859 -36.293  0.00  0.00     0.213 S 
ATOM      8  O   UNL d   1     -54.744-101.044 -36.297  0.00  0.00    -0.217 OA
ATOM      9  O   UNL d   1     -54.877-102.273 -35.582  0.00  0.00    -0.217 OA
ATOM     10  C   UNL d   1     -54.934-102.673 -36.385  0.00  0.00     0.100 A 
ATOM     11  C   UNL d   1     -54.963-102.838 -37.197  0.00  0.00     0.032 A 
ENDBRANCH   2   5
BRANCH   3  12
ATOM     12  C   UNL d   1     -54.745-101.401 -40.356  0.00  0.00     0.086 A 
ATOM     13  C   UNL d   1     -54.735-102.199 -40.564  0.00  0.00     0.019 A 
ATOM     14  C   UNL d   1     -54.724-102.415 -41.347  0.00  0.00     0.002 A 
ATOM     15  C   UNL d   1     -54.724-101.839 -41.938  0.00  0.00     0.000 A 
ATOM     16  C   UNL d   1     -54.735-101.041 -41.731  0.00  0.00     0.002 A 
ATOM     17  C   UNL d   1     -54.745-100.825 -40.938  0.00  0.00     0.019 A 
ENDBRANCH   3  12
TORSDOF 2
ENDMDL
MODEL 2
REMARK VINA RESULT:      25.9      5.958      7.009
REMARK  2 active torsions:
REMARK  status: ('A' for Active; 'I' for Inactive)
REMARK       I    between atoms: C_2  and  N_4 
REMARK       I    between atoms: N_7  and  C_2 
REMARK    1  A    between atoms: N_4  and  C_8 
REMARK    2  A    between atoms: C_12  and  N_7 
ROOT
ATOM      1  C   UNL d   1     -56.973 -99.148 -44.320  0.00  0.00     0.369 C 
ATOM      2  N   UNL d   1     -56.223 -99.140 -44.649  0.00  0.00    -0.190 NA
ATOM      3  N   UNL d   1     -57.596 -98.763 -44.694  0.00  0.00    -0.191 NA
ATOM      4  O   UNL d   1     -57.100 -99.545 -43.608  0.00  0.00    -0.242 OA
ENDROOT
BRANCH   2   5
ATOM      5  C   UNL d   1     -55.602 -99.522 -44.280  0.00  0.00     0.098 A 
ATOM      6  C   UNL d   1     -55.802-100.203 -44.707  0.00  0.00     0.118 A 
ATOM      7  S   UNL d   1     -55.273-100.801 -44.497  0.00  0.00     0.213 S 
ATOM      8  O   UNL d   1     -55.839-101.019 -45.051  0.00  0.00    -0.217 OA
ATOM      9  O   UNL d   1     -54.711-101.344 -44.238  0.00  0.00    -0.217 OA
ATOM     10  C   UNL d   1     -54.746-100.496 -43.942  0.00  0.00     0.100 A 
ATOM     11  C   UNL d   1     -54.947 -99.704 -43.804  0.00  0.00     0.032 A 
ENDBRANCH   2   5
BRANCH   3  12
ATOM     12  C   UNL d   1     -58.347 -98.773 -44.360  0.00  0.00     0.086 A 
ATOM     13  C   UNL d   1     -58.432 -98.755 -43.540  0.00  0.00     0.019 A 
ATOM     14  C   UNL d   1     -59.174 -98.765 -43.207  0.00  0.00     0.002 A 
ATOM     15  C   UNL d   1     -59.844 -98.793 -43.687  0.00  0.00     0.000 A 
ATOM     16  C   UNL d   1     -59.761 -98.811 -44.507  0.00  0.00     0.002 A 
ATOM     17  C   UNL d   1     -59.010 -98.801 -44.840  0.00  0.00     0.019 A 
ENDBRANCH   3  12
TORSDOF 2
ENDMDL
