MODEL 1
REMARK VINA RESULT:      10.0      0.000      0.000
REMARK  3 active torsions:
REMARK  status: ('A' for Active; 'I' for Inactive)
REMARK    1  A    between atoms: S_6  and  C_1 
REMARK    2  A    between atoms: C_9  and  S_6 
REMARK    3  A    between atoms: C_7  and  C_9 
ROOT
ATOM      1  C   UNL d   1      58.647  49.708  50.816  0.00  0.00     0.191 A 
ATOM      2  N   UNL d   1      57.955  49.707  51.245  0.00  0.00    -0.220 NA
ATOM      3  N   UNL d   1      58.473  49.708  50.025  0.00  0.00    -0.220 NA
ATOM      4  C   UNL d   1      57.349  49.707  50.703  0.00  0.00     0.101 A 
ATOM      5  C   UNL d   1      57.671  49.708  49.944  0.00  0.00     0.101 A 
ATOM      6  C   UNL d   1      56.529  49.707  50.810  0.00  0.00     0.021 A 
ATOM      7  C   UNL d   1      57.169  49.708  49.301  0.00  0.00     0.021 A 
ATOM      8  C   UNL d   1      56.355  49.707  49.386  0.00  0.00     0.002 A 
ATOM      9  C   UNL d   1      56.033  49.707  50.145  0.00  0.00     0.002 A 
ENDROOT
BRANCH   1  10
ATOM     10  S   UNL d   1      59.402  49.708  51.137  0.00  0.00    -0.064 SA
BRANCH  10  11
ATOM     11  C   UNL d   1      60.062  49.695  50.644  0.00  0.00     0.162 C 
BRANCH  11  12
ATOM     12  C   UNL d   1      60.817  49.497  50.953  0.00  0.00     0.197 C 
ATOM     13  O   UNL d   1      60.989  49.664  51.736  0.00  0.00    -0.647 OA
ATOM     14  O   UNL d   1      61.374  49.138  50.461  0.00  0.00    -0.647 OA
ENDBRANCH  11  12
ENDBRANCH  10  11
ENDBRANCH   1  10
TORSDOF 3
ENDMDL
