MODEL 1
REMARK VINA RESULT:      -3.7      0.000      0.000
REMARK  3 active torsions:
REMARK  status: ('A' for Active; 'I' for Inactive)
REMARK    1  A    between atoms: S_5  and  C_1 
REMARK    2  A    between atoms: N_3  and  C_2 
REMARK    3  A    between atoms: C_4  and  S_5 
ROOT
ATOM      1  C   UNL d   1      57.490   0.279  31.708  0.00  0.00     0.140 A 
ATOM      2  C   UNL d   1      57.964   0.273  31.064  0.00  0.00     0.188 A 
ATOM      3  N   UNL d   1      57.769   0.477  32.444  0.00  0.00    -0.216 NA
ATOM      4  C   UNL d   1      58.773   0.478  31.147  0.00  0.00     0.209 A 
ATOM      5  N   UNL d   1      59.053   0.674  31.870  0.00  0.00    -0.202 NA
ATOM      6  C   UNL d   1      58.578   0.682  32.528  0.00  0.00     0.201 A 
ATOM      7  N   UNL d   1      59.168   0.482  30.653  0.00  0.00    -0.125 N 
ENDROOT
BRANCH   1   8
ATOM      8  S   UNL d   1      56.681   0.074  31.625  0.00  0.00    -0.028 SA
BRANCH   8   9
ATOM      9  C   UNL d   1      56.236  -0.183  32.309  0.00  0.00     0.196 A 
ATOM     10  N   UNL d   1      55.854   0.372  32.783  0.00  0.00    -0.221 NA
ATOM     11  C   UNL d   1      55.434   0.076  33.438  0.00  0.00     0.085 A 
ATOM     12  C   UNL d   1      55.036   0.674  33.930  0.00  0.00     0.021 C 
ATOM     13  C   UNL d   1      55.391  -0.710  33.615  0.00  0.00     0.038 A 
ATOM     14  C   UNL d   1      55.766  -1.250  33.148  0.00  0.00     0.085 A 
ATOM     15  N   UNL d   1      56.212  -0.981  32.461  0.00  0.00    -0.221 NA
ATOM     16  C   UNL d   1      55.723  -2.055  33.329  0.00  0.00     0.021 C 
ENDBRANCH   8   9
ENDBRANCH   1   8
BRANCH   2  17
ATOM     17  N   UNL d   1      57.685   0.075  30.328  0.00  0.00    -0.108 N 
ATOM     18  O   UNL d   1      57.338   0.621  29.776  0.00  0.00    -0.532 OA
ATOM     19  O   UNL d   1      57.703  -0.701  30.016  0.00  0.00    -0.532 OA
ENDBRANCH   2  17
TORSDOF 3
ENDMDL
MODEL 2
REMARK VINA RESULT:      -3.0      1.739      3.385
REMARK  3 active torsions:
REMARK  status: ('A' for Active; 'I' for Inactive)
REMARK    1  A    between atoms: S_5  and  C_1 
REMARK    2  A    between atoms: N_3  and  C_2 
REMARK    3  A    between atoms: C_4  and  S_5 
ROOT
ATOM      1  C   UNL d   1      57.449   0.003  31.841  0.00  0.00     0.140 A 
ATOM      2  C   UNL d   1      57.003  -0.009  32.505  0.00  0.00     0.188 A 
ATOM      3  N   UNL d   1      58.188   0.338  31.826  0.00  0.00    -0.216 NA
ATOM      4  C   UNL d   1      57.306   0.335  33.208  0.00  0.00     0.209 A 
ATOM      5  N   UNL d   1      58.033   0.667  33.199  0.00  0.00    -0.202 NA
ATOM      6  C   UNL d   1      58.490   0.682  32.529  0.00  0.00     0.201 A 
ATOM      7  N   UNL d   1      56.973   0.339  33.747  0.00  0.00    -0.125 N 
ENDROOT
BRANCH   1   8
ATOM      8  S   UNL d   1      57.147  -0.340  31.138  0.00  0.00    -0.028 SA
BRANCH   8   9
ATOM      9  C   UNL d   1      57.664  -0.455  30.467  0.00  0.00     0.196 A 
ATOM     10  N   UNL d   1      57.816   0.170  29.952  0.00  0.00    -0.221 NA
ATOM     11  C   UNL d   1      58.325   0.012  29.313  0.00  0.00     0.085 A 
ATOM     12  C   UNL d   1      58.476   0.682  28.778  0.00  0.00     0.021 C 
ATOM     13  C   UNL d   1      58.662  -0.711  29.188  0.00  0.00     0.038 A 
ATOM     14  C   UNL d   1      58.511  -1.321  29.693  0.00  0.00     0.085 A 
ATOM     15  N   UNL d   1      57.989  -1.194  30.367  0.00  0.00    -0.221 NA
ATOM     16  C   UNL d   1      58.856  -2.060  29.565  0.00  0.00     0.021 C 
ENDBRANCH   8   9
ENDBRANCH   1   8
BRANCH   2  17
ATOM     17  N   UNL d   1      56.264  -0.344  32.520  0.00  0.00    -0.108 N 
ATOM     18  O   UNL d   1      55.533   0.088  32.468  0.00  0.00    -0.532 OA
ATOM     19  O   UNL d   1      56.127  -1.166  32.590  0.00  0.00    -0.532 OA
ENDBRANCH   2  17
TORSDOF 3
ENDMDL
MODEL 3
REMARK VINA RESULT:      -2.8      1.695      3.506
REMARK  3 active torsions:
REMARK  status: ('A' for Active; 'I' for Inactive)
REMARK    1  A    between atoms: S_5  and  C_1 
REMARK    2  A    between atoms: N_3  and  C_2 
REMARK    3  A    between atoms: C_4  and  S_5 
ROOT
ATOM      1  C   UNL d   1      57.347   0.188  31.978  0.00  0.00     0.140 A 
ATOM      2  C   UNL d   1      56.893   0.213  32.637  0.00  0.00     0.188 A 
ATOM      3  N   UNL d   1      58.130   0.404  31.988  0.00  0.00    -0.216 NA
ATOM      4  C   UNL d   1      57.233   0.469  33.360  0.00  0.00     0.209 A 
ATOM      5  N   UNL d   1      58.004   0.682  33.375  0.00  0.00    -0.202 NA
ATOM      6  C   UNL d   1      58.470   0.659  32.711  0.00  0.00     0.201 A 
ATOM      7  N   UNL d   1      56.896   0.498  33.894  0.00  0.00    -0.125 N 
ENDROOT
BRANCH   1   8
ATOM      8  S   UNL d   1      57.007  -0.067  31.255  0.00  0.00    -0.028 SA
BRANCH   8   9
ATOM      9  C   UNL d   1      57.514  -0.262  30.595  0.00  0.00     0.196 A 
ATOM     10  N   UNL d   1      57.871  -1.003  30.554  0.00  0.00    -0.221 NA
ATOM     11  C   UNL d   1      58.357  -1.147  29.892  0.00  0.00     0.085 A 
ATOM     12  C   UNL d   1      58.727  -1.935  29.863  0.00  0.00     0.021 C 
ATOM     13  C   UNL d   1      58.482  -0.601  29.311  0.00  0.00     0.038 A 
ATOM     14  C   UNL d   1      58.131   0.123  29.355  0.00  0.00     0.085 A 
ATOM     15  N   UNL d   1      57.622   0.309  30.025  0.00  0.00    -0.221 NA
ATOM     16  C   UNL d   1      58.260   0.682  28.760  0.00  0.00     0.021 C 
ENDBRANCH   8   9
ENDBRANCH   1   8
BRANCH   2  17
ATOM     17  N   UNL d   1      56.111  -0.002  32.627  0.00  0.00    -0.108 N 
ATOM     18  O   UNL d   1      55.827  -0.804  32.610  0.00  0.00    -0.532 OA
ATOM     19  O   UNL d   1      55.478   0.544  32.632  0.00  0.00    -0.532 OA
ENDBRANCH   2  17
TORSDOF 3
ENDMDL
MODEL 4
REMARK VINA RESULT:      -2.4      1.403      2.203
REMARK  3 active torsions:
REMARK  status: ('A' for Active; 'I' for Inactive)
REMARK    1  A    between atoms: S_5  and  C_1 
REMARK    2  A    between atoms: N_3  and  C_2 
REMARK    3  A    between atoms: C_4  and  S_5 
ROOT
ATOM      1  C   UNL d   1      57.852  -0.304  30.531  0.00  0.00     0.140 A 
ATOM      2  C   UNL d   1      58.246  -0.364  29.837  0.00  0.00     0.188 A 
ATOM      3  N   UNL d   1      57.597  -0.958  30.937  0.00  0.00    -0.216 NA
ATOM      4  C   UNL d   1      58.402  -1.124  29.518  0.00  0.00     0.209 A 
ATOM      5  N   UNL d   1      58.152  -1.772  29.915  0.00  0.00    -0.202 NA
ATOM      6  C   UNL d   1      57.752  -1.718  30.619  0.00  0.00     0.201 A 
ATOM      7  N   UNL d   1      58.711  -1.199  28.972  0.00  0.00    -0.125 N 
ENDROOT
BRANCH   1   8
ATOM      8  S   UNL d   1      57.696   0.457  30.850  0.00  0.00    -0.028 SA
BRANCH   8   9
ATOM      9  C   UNL d   1      57.417   0.529  31.654  0.00  0.00     0.196 A 
ATOM     10  N   UNL d   1      57.956   0.570  32.276  0.00  0.00    -0.221 NA
ATOM     11  C   UNL d   1      57.637   0.640  33.042  0.00  0.00     0.085 A 
ATOM     12  C   UNL d   1      58.219   0.682  33.688  0.00  0.00     0.021 C 
ATOM     13  C   UNL d   1      56.844   0.667  33.188  0.00  0.00     0.038 A 
ATOM     14  C   UNL d   1      56.319   0.627  32.577  0.00  0.00     0.085 A 
ATOM     15  N   UNL d   1      56.612   0.554  31.770  0.00  0.00    -0.221 NA
ATOM     16  C   UNL d   1      55.507   0.655  32.726  0.00  0.00     0.021 C 
ENDBRANCH   8   9
ENDBRANCH   1   8
BRANCH   2  17
ATOM     17  N   UNL d   1      58.501   0.290  29.430  0.00  0.00    -0.108 N 
ATOM     18  O   UNL d   1      59.256   0.668  29.540  0.00  0.00    -0.532 OA
ATOM     19  O   UNL d   1      58.049   0.681  28.845  0.00  0.00    -0.532 OA
ENDBRANCH   2  17
TORSDOF 3
ENDMDL
MODEL 5
REMARK VINA RESULT:      -1.5      1.675      2.462
REMARK  3 active torsions:
REMARK  status: ('A' for Active; 'I' for Inactive)
REMARK    1  A    between atoms: S_5  and  C_1 
REMARK    2  A    between atoms: N_3  and  C_2 
REMARK    3  A    between atoms: C_4  and  S_5 
ROOT
ATOM      1  C   UNL d   1      57.840  -0.868  30.017  0.00  0.00     0.140 A 
ATOM      2  C   UNL d   1      58.254  -0.768  29.340  0.00  0.00     0.188 A 
ATOM      3  N   UNL d   1      57.775  -1.592  30.378  0.00  0.00    -0.216 NA
ATOM      4  C   UNL d   1      58.634  -1.430  28.990  0.00  0.00     0.209 A 
ATOM      5  N   UNL d   1      58.572  -2.145  29.342  0.00  0.00    -0.202 NA
ATOM      6  C   UNL d   1      58.154  -2.254  30.028  0.00  0.00     0.201 A 
ATOM      7  N   UNL d   1      58.967  -1.378  28.455  0.00  0.00    -0.125 N 
ENDROOT
BRANCH   1   8
ATOM      8  S   UNL d   1      57.460  -0.207  30.366  0.00  0.00    -0.028 SA
BRANCH   8   9
ATOM      9  C   UNL d   1      57.270  -0.220  31.200  0.00  0.00     0.196 A 
ATOM     10  N   UNL d   1      56.642  -0.677  31.472  0.00  0.00    -0.221 NA
ATOM     11  C   UNL d   1      56.494  -0.659  32.292  0.00  0.00     0.085 A 
ATOM     12  C   UNL d   1      55.827  -1.147  32.564  0.00  0.00     0.021 C 
ATOM     13  C   UNL d   1      56.934  -0.221  32.808  0.00  0.00     0.038 A 
ATOM     14  C   UNL d   1      57.548   0.226  32.538  0.00  0.00     0.085 A 
ATOM     15  N   UNL d   1      57.731   0.232  31.696  0.00  0.00    -0.221 NA
ATOM     16  C   UNL d   1      57.998   0.674  33.066  0.00  0.00     0.021 C 
ENDBRANCH   8   9
ENDBRANCH   1   8
BRANCH   2  17
ATOM     17  N   UNL d   1      58.319  -0.044  28.979  0.00  0.00    -0.108 N 
ATOM     18  O   UNL d   1      59.047   0.382  28.873  0.00  0.00    -0.532 OA
ATOM     19  O   UNL d   1      57.671   0.379  28.663  0.00  0.00    -0.532 OA
ENDBRANCH   2  17
TORSDOF 3
ENDMDL
MODEL 6
REMARK VINA RESULT:      -1.1      3.235      4.557
REMARK  3 active torsions:
REMARK  status: ('A' for Active; 'I' for Inactive)
REMARK    1  A    between atoms: S_5  and  C_1 
REMARK    2  A    between atoms: N_3  and  C_2 
REMARK    3  A    between atoms: C_4  and  S_5 
ROOT
ATOM      1  C   UNL d   1      59.554  -2.127  28.940  0.00  0.00     0.140 A 
ATOM      2  C   UNL d   1      59.759  -2.893  28.835  0.00  0.00     0.188 A 
ATOM      3  N   UNL d   1      60.077  -1.520  28.812  0.00  0.00    -0.216 NA
ATOM      4  C   UNL d   1      60.538  -3.078  28.584  0.00  0.00     0.209 A 
ATOM      5  N   UNL d   1      61.058  -2.484  28.457  0.00  0.00    -0.202 NA
ATOM      6  C   UNL d   1      60.856  -1.705  28.562  0.00  0.00     0.201 A 
ATOM      7  N   UNL d   1      60.726  -3.675  28.494  0.00  0.00    -0.125 N 
ENDROOT
BRANCH   1   8
ATOM      8  S   UNL d   1      58.774  -1.942  29.191  0.00  0.00    -0.028 SA
BRANCH   8   9
ATOM      9  C   UNL d   1      58.576  -1.137  29.398  0.00  0.00     0.196 A 
ATOM     10  N   UNL d   1      58.272  -0.627  28.827  0.00  0.00    -0.221 NA
ATOM     11  C   UNL d   1      58.094   0.148  29.075  0.00  0.00     0.085 A 
ATOM     12  C   UNL d   1      57.773   0.674  28.460  0.00  0.00     0.021 C 
ATOM     13  C   UNL d   1      58.207   0.404  29.832  0.00  0.00     0.038 A 
ATOM     14  C   UNL d   1      58.505  -0.098  30.388  0.00  0.00     0.085 A 
ATOM     15  N   UNL d   1      58.701  -0.907  30.169  0.00  0.00    -0.221 NA
ATOM     16  C   UNL d   1      58.621   0.165  31.163  0.00  0.00     0.021 C 
ENDBRANCH   8   9
ENDBRANCH   1   8
BRANCH   2  17
ATOM     17  N   UNL d   1      59.236  -3.499  28.963  0.00  0.00    -0.108 N 
ATOM     18  O   UNL d   1      58.572  -3.683  28.463  0.00  0.00    -0.532 OA
ATOM     19  O   UNL d   1      59.283  -4.027  29.610  0.00  0.00    -0.532 OA
ENDBRANCH   2  17
TORSDOF 3
ENDMDL
