MODEL 1
REMARK VINA RESULT:      24.4      0.000      0.000
REMARK  3 active torsions:
REMARK  status: ('A' for Active; 'I' for Inactive)
REMARK    1  A    between atoms: C_10  and  C_5 
REMARK    2  A    between atoms: S_9  and  C_10 
REMARK    3  A    between atoms: C_11  and  S_9 
ROOT
ATOM      1  C   UNL d   1      15.592  13.563  -0.510  0.00  0.00     0.179 A 
ATOM      2  N   UNL d   1      15.071  14.124  -0.810  0.00  0.00    -0.283 N 
ATOM      3  N   UNL d   1      15.384  12.840  -0.823  0.00  0.00    -0.220 NA
ATOM      4  S   UNL d   1      16.113  13.950  -0.016  0.00  0.00    -0.048 SA
ATOM      5  C   UNL d   1      14.738  12.943  -1.317  0.00  0.00     0.107 A 
ATOM      6  C   UNL d   1      14.545  13.743  -1.307  0.00  0.00     0.102 A 
ATOM      7  C   UNL d   1      15.274  14.853  -0.500  0.00  0.00     0.073 A 
ATOM      8  C   UNL d   1      15.913  14.733  -0.015  0.00  0.00     0.056 A 
ATOM      9  C   UNL d   1      14.891  15.576  -0.657  0.00  0.00     0.020 C 
ENDROOT
BRANCH   5  10
ATOM     10  C   UNL d   1      14.356  12.336  -1.744  0.00  0.00     0.056 C 
BRANCH  10  11
ATOM     11  S   UNL d   1      13.591  12.471  -2.017  0.00  0.00    -0.085 SA
BRANCH  11  12
ATOM     12  C   UNL d   1      13.438  12.439  -2.824  0.00  0.00     0.030 A 
ATOM     13  C   UNL d   1      13.728  13.029  -3.335  0.00  0.00     0.007 A 
ATOM     14  C   UNL d   1      13.576  12.997  -4.139  0.00  0.00     0.012 A 
ATOM     15  C   UNL d   1      13.131  12.373  -4.445  0.00  0.00     0.058 A 
ATOM     16  C   UNL d   1      12.836  11.780  -3.949  0.00  0.00     0.012 A 
ATOM     17 CL   UNL d   1      12.971  12.328  -5.242  0.00  0.00    -0.082 Cl
ATOM     18  C   UNL d   1      12.992  11.813  -3.125  0.00  0.00     0.007 A 
ENDBRANCH  11  12
ENDBRANCH  10  11
ENDBRANCH   5  10
TORSDOF 3
ENDMDL
