MODEL 1
REMARK VINA RESULT:      -7.1      0.000      0.000
REMARK  5 active torsions:
REMARK  status: ('A' for Active; 'I' for Inactive)
REMARK       I    between atoms: N_2  and  C_1 
REMARK    1  A    between atoms: C_8  and  C_1 
REMARK    2  A    between atoms: C_4  and  N_2 
REMARK    3  A    between atoms: C_3  and  C_4 
REMARK    4  A    between atoms: C_5  and  C_3 
REMARK    5  A    between atoms: N_6  and  C_3 
ROOT
ATOM      1  C   UNL d   1     -49.599  13.457  22.702  0.00  0.00     0.088 C 
ENDROOT
BRANCH   1   2
ATOM      2  C   UNL d   1     -49.154  12.932  23.151  0.00  0.00     0.101 C 
ATOM      3  C   UNL d   1     -49.525  12.445  23.693  0.00  0.00     0.022 C 
BRANCH   2   4
ATOM      4  N   UNL d   1     -48.340  12.903  23.051  0.00  0.00    -0.206 NA
ATOM      5  C   UNL d   1     -47.914  12.246  23.322  0.00  0.00     0.279 C 
ATOM      6  O   UNL d   1     -48.312  11.630  23.689  0.00  0.00    -0.265 OA
BRANCH   5   7
ATOM      7  C   UNL d   1     -47.100  12.217  23.221  0.00  0.00     0.058 A 
ATOM      8  C   UNL d   1     -46.698  12.832  22.836  0.00  0.00     0.005 A 
ATOM      9  C   UNL d   1     -45.875  12.800  22.735  0.00  0.00     0.000 A 
ATOM     10  C   UNL d   1     -45.488  13.409  22.356  0.00  0.00     0.000 C 
ATOM     11  C   UNL d   1     -45.459  12.144  23.026  0.00  0.00     0.000 A 
ATOM     12  C   UNL d   1     -45.854  11.526  23.412  0.00  0.00     0.000 A 
ATOM     13  C   UNL d   1     -46.668  11.567  23.506  0.00  0.00     0.005 A 
ENDBRANCH   5   7
ENDBRANCH   2   4
ENDBRANCH   1   2
BRANCH   1  14
ATOM     14  C   UNL d   1     -50.046  13.183  22.069  0.00  0.00     0.047 A 
ATOM     15  S   UNL d   1     -50.790  12.824  22.110  0.00  0.00    -0.085 SA
ATOM     16  C   UNL d   1     -51.029  12.639  21.346  0.00  0.00     0.035 A 
ATOM     17  C   UNL d   1     -50.440  12.878  20.819  0.00  0.00     0.007 A 
ATOM     18  C   UNL d   1     -49.825  13.218  21.265  0.00  0.00     0.009 A 
ENDBRANCH   1  14
BRANCH   1  19
ATOM     19  N   UNL d   1     -49.599  14.265  22.883  0.00  0.00    -0.299 N 
ATOM     20  C   UNL d   1     -50.039  14.543  23.512  0.00  0.00     0.107 A 
ATOM     21  C   UNL d   1     -50.045  15.343  23.698  0.00  0.00     0.142 A 
ATOM     22  O   UNL d   1     -49.602  15.882  23.248  0.00  0.00    -0.300 OA
ATOM     23  C   UNL d   1     -49.155  15.596  22.609  0.00  0.00     0.142 A 
ATOM     24  C   UNL d   1     -49.154  14.791  22.429  0.00  0.00     0.107 A 
ENDBRANCH   1  19
TORSDOF 5
ENDMDL
MODEL 2
REMARK VINA RESULT:      -6.9      9.579     10.666
REMARK  5 active torsions:
REMARK  status: ('A' for Active; 'I' for Inactive)
REMARK       I    between atoms: N_2  and  C_1 
REMARK    1  A    between atoms: C_8  and  C_1 
REMARK    2  A    between atoms: C_4  and  N_2 
REMARK    3  A    between atoms: C_3  and  C_4 
REMARK    4  A    between atoms: C_5  and  C_3 
REMARK    5  A    between atoms: N_6  and  C_3 
ROOT
ATOM      1  C   UNL d   1     -39.156  14.770  17.786  0.00  0.00     0.088 C 
ENDROOT
BRANCH   1   2
ATOM      2  C   UNL d   1     -38.822  15.171  18.421  0.00  0.00     0.101 C 
ATOM      3  C   UNL d   1     -38.235  15.724  18.289  0.00  0.00     0.022 C 
BRANCH   2   4
ATOM      4  N   UNL d   1     -39.084  15.012  19.183  0.00  0.00    -0.206 NA
ATOM      5  C   UNL d   1     -38.726  15.386  19.829  0.00  0.00     0.279 C 
ATOM      6  O   UNL d   1     -38.111  15.915  19.700  0.00  0.00    -0.265 OA
BRANCH   5   7
ATOM      7  C   UNL d   1     -38.987  15.227  20.590  0.00  0.00     0.058 A 
ATOM      8  C   UNL d   1     -38.738  14.543  20.989  0.00  0.00     0.005 A 
ATOM      9  C   UNL d   1     -39.004  14.385  21.759  0.00  0.00     0.000 A 
ATOM     10  C   UNL d   1     -38.754  13.711  22.144  0.00  0.00     0.000 C 
ATOM     11  C   UNL d   1     -39.523  14.919  22.124  0.00  0.00     0.000 A 
ATOM     12  C   UNL d   1     -39.776  15.604  21.731  0.00  0.00     0.000 A 
ATOM     13  C   UNL d   1     -39.507  15.752  20.970  0.00  0.00     0.005 A 
ENDBRANCH   5   7
ENDBRANCH   2   4
ENDBRANCH   1   2
BRANCH   1  14
ATOM     14  C   UNL d   1     -38.794  14.094  17.489  0.00  0.00     0.047 A 
ATOM     15  S   UNL d   1     -38.192  14.066  16.922  0.00  0.00    -0.085 SA
ATOM     16  C   UNL d   1     -37.999  13.278  16.792  0.00  0.00     0.035 A 
ATOM     17  C   UNL d   1     -38.475  12.805  17.273  0.00  0.00     0.007 A 
ATOM     18  C   UNL d   1     -38.972  13.309  17.709  0.00  0.00     0.009 A 
ENDBRANCH   1  14
BRANCH   1  19
ATOM     19  N   UNL d   1     -39.858  15.043  17.442  0.00  0.00    -0.299 N 
ATOM     20  C   UNL d   1     -40.573  14.714  17.655  0.00  0.00     0.107 A 
ATOM     21  C   UNL d   1     -41.274  14.980  17.319  0.00  0.00     0.142 A 
ATOM     22  O   UNL d   1     -41.264  15.589  16.755  0.00  0.00    -0.300 OA
ATOM     23  C   UNL d   1     -40.534  15.922  16.540  0.00  0.00     0.142 A 
ATOM     24  C   UNL d   1     -39.835  15.649  16.882  0.00  0.00     0.107 A 
ENDBRANCH   1  19
TORSDOF 5
ENDMDL
MODEL 3
REMARK VINA RESULT:      -6.8      1.310      2.358
REMARK  5 active torsions:
REMARK  status: ('A' for Active; 'I' for Inactive)
REMARK       I    between atoms: N_2  and  C_1 
REMARK    1  A    between atoms: C_8  and  C_1 
REMARK    2  A    between atoms: C_4  and  N_2 
REMARK    3  A    between atoms: C_3  and  C_4 
REMARK    4  A    between atoms: C_5  and  C_3 
REMARK    5  A    between atoms: N_6  and  C_3 
ROOT
ATOM      1  C   UNL d   1     -49.386  13.777  22.810  0.00  0.00     0.088 C 
ENDROOT
BRANCH   1   2
ATOM      2  C   UNL d   1     -48.704  13.431  23.112  0.00  0.00     0.101 C 
ATOM      3  C   UNL d   1     -48.761  12.864  23.698  0.00  0.00     0.022 C 
BRANCH   2   4
ATOM      4  N   UNL d   1     -47.971  13.661  22.821  0.00  0.00    -0.206 NA
ATOM      5  C   UNL d   1     -47.284  13.290  23.096  0.00  0.00     0.279 C 
ATOM      6  O   UNL d   1     -47.342  12.695  23.658  0.00  0.00    -0.265 OA
BRANCH   5   7
ATOM      7  C   UNL d   1     -46.551  13.520  22.805  0.00  0.00     0.058 A 
ATOM      8  C   UNL d   1     -46.088  12.995  22.360  0.00  0.00     0.005 A 
ATOM      9  C   UNL d   1     -45.348  13.230  22.068  0.00  0.00     0.000 A 
ATOM     10  C   UNL d   1     -44.900  12.707  21.631  0.00  0.00     0.000 C 
ATOM     11  C   UNL d   1     -45.078  13.998  22.226  0.00  0.00     0.000 A 
ATOM     12  C   UNL d   1     -45.535  14.528  22.670  0.00  0.00     0.000 A 
ATOM     13  C   UNL d   1     -46.266  14.286  22.955  0.00  0.00     0.005 A 
ENDBRANCH   5   7
ENDBRANCH   2   4
ENDBRANCH   1   2
BRANCH   1  14
ATOM     14  C   UNL d   1     -49.589  14.544  23.024  0.00  0.00     0.047 A 
ATOM     15  S   UNL d   1     -50.122  14.766  23.617  0.00  0.00    -0.085 SA
ATOM     16  C   UNL d   1     -50.155  15.587  23.639  0.00  0.00     0.035 A 
ATOM     17  C   UNL d   1     -49.646  15.888  23.063  0.00  0.00     0.007 A 
ATOM     18  C   UNL d   1     -49.291  15.242  22.677  0.00  0.00     0.009 A 
ENDBRANCH   1  14
BRANCH   1  19
ATOM     19  N   UNL d   1     -49.871  13.355  22.289  0.00  0.00    -0.299 N 
ATOM     20  C   UNL d   1     -49.711  13.356  21.489  0.00  0.00     0.107 A 
ATOM     21  C   UNL d   1     -50.188  12.939  20.965  0.00  0.00     0.142 A 
ATOM     22  O   UNL d   1     -50.842  12.511  21.243  0.00  0.00    -0.300 OA
ATOM     23  C   UNL d   1     -51.003  12.512  22.058  0.00  0.00     0.142 A 
ATOM     24  C   UNL d   1     -50.519  12.933  22.577  0.00  0.00     0.107 A 
ENDBRANCH   1  19
TORSDOF 5
ENDMDL
MODEL 4
REMARK VINA RESULT:      -6.5      8.408     10.412
REMARK  5 active torsions:
REMARK  status: ('A' for Active; 'I' for Inactive)
REMARK       I    between atoms: N_2  and  C_1 
REMARK    1  A    between atoms: C_8  and  C_1 
REMARK    2  A    between atoms: C_4  and  N_2 
REMARK    3  A    between atoms: C_3  and  C_4 
REMARK    4  A    between atoms: C_5  and  C_3 
REMARK    5  A    between atoms: N_6  and  C_3 
ROOT
ATOM      1  C   UNL d   1     -39.378  14.959  20.781  0.00  0.00     0.088 C 
ENDROOT
BRANCH   1   2
ATOM      2  C   UNL d   1     -38.953  15.068  20.086  0.00  0.00     0.101 C 
ATOM      3  C   UNL d   1     -38.511  15.747  19.982  0.00  0.00     0.022 C 
BRANCH   2   4
ATOM      4  N   UNL d   1     -38.977  14.490  19.502  0.00  0.00    -0.206 NA
ATOM      5  C   UNL d   1     -38.521  14.578  18.817  0.00  0.00     0.279 C 
ATOM      6  O   UNL d   1     -38.048  15.243  18.728  0.00  0.00    -0.265 OA
BRANCH   5   7
ATOM      7  C   UNL d   1     -38.545  14.000  18.233  0.00  0.00     0.058 A 
ATOM      8  C   UNL d   1     -38.229  13.246  18.371  0.00  0.00     0.005 A 
ATOM      9  C   UNL d   1     -38.255  12.664  17.780  0.00  0.00     0.000 A 
ATOM     10  C   UNL d   1     -37.942  11.925  17.924  0.00  0.00     0.000 C 
ATOM     11  C   UNL d   1     -38.600  12.849  17.049  0.00  0.00     0.000 A 
ATOM     12  C   UNL d   1     -38.918  13.600  16.904  0.00  0.00     0.000 A 
ATOM     13  C   UNL d   1     -38.888  14.169  17.495  0.00  0.00     0.005 A 
ENDBRANCH   5   7
ENDBRANCH   2   4
ENDBRANCH   1   2
BRANCH   1  14
ATOM     14  C   UNL d   1     -40.176  15.153  20.811  0.00  0.00     0.047 A 
ATOM     15  S   UNL d   1     -40.496  15.907  20.927  0.00  0.00    -0.085 SA
ATOM     16  C   UNL d   1     -41.315  15.844  20.918  0.00  0.00     0.035 A 
ATOM     17  C   UNL d   1     -41.518  15.052  20.796  0.00  0.00     0.007 A 
ATOM     18  C   UNL d   1     -40.812  14.618  20.728  0.00  0.00     0.009 A 
ENDBRANCH   1  14
BRANCH   1  19
ATOM     19  N   UNL d   1     -39.006  14.652  21.454  0.00  0.00    -0.299 N 
ATOM     20  C   UNL d   1     -38.594  15.148  21.955  0.00  0.00     0.107 A 
ATOM     21  C   UNL d   1     -38.222  14.852  22.624  0.00  0.00     0.142 A 
ATOM     22  O   UNL d   1     -38.259  14.042  22.802  0.00  0.00    -0.300 OA
ATOM     23  C   UNL d   1     -38.679  13.540  22.290  0.00  0.00     0.142 A 
ATOM     24  C   UNL d   1     -39.050  13.845  21.620  0.00  0.00     0.107 A 
ENDBRANCH   1  19
TORSDOF 5
ENDMDL
MODEL 5
REMARK VINA RESULT:      -5.4      1.566      4.280
REMARK  5 active torsions:
REMARK  status: ('A' for Active; 'I' for Inactive)
REMARK       I    between atoms: N_2  and  C_1 
REMARK    1  A    between atoms: C_8  and  C_1 
REMARK    2  A    between atoms: C_4  and  N_2 
REMARK    3  A    between atoms: C_3  and  C_4 
REMARK    4  A    between atoms: C_5  and  C_3 
REMARK    5  A    between atoms: N_6  and  C_3 
ROOT
ATOM      1  C   UNL d   1     -47.184  13.110  22.675  0.00  0.00     0.088 C 
ENDROOT
BRANCH   1   2
ATOM      2  C   UNL d   1     -47.506  13.845  22.852  0.00  0.00     0.101 C 
ATOM      3  C   UNL d   1     -47.019  14.451  23.104  0.00  0.00     0.022 C 
BRANCH   2   4
ATOM      4  N   UNL d   1     -48.314  13.963  22.774  0.00  0.00    -0.206 NA
ATOM      5  C   UNL d   1     -48.627  14.728  22.824  0.00  0.00     0.279 C 
ATOM      6  O   UNL d   1     -48.123  15.363  22.952  0.00  0.00    -0.265 OA
BRANCH   5   7
ATOM      7  C   UNL d   1     -49.436  14.845  22.746  0.00  0.00     0.058 A 
ATOM      8  C   UNL d   1     -49.849  14.529  22.100  0.00  0.00     0.005 A 
ATOM      9  C   UNL d   1     -50.666  14.649  22.023  0.00  0.00     0.000 A 
ATOM     10  C   UNL d   1     -51.064  14.335  21.385  0.00  0.00     0.000 C 
ATOM     11  C   UNL d   1     -51.064  15.090  22.602  0.00  0.00     0.000 A 
ATOM     12  C   UNL d   1     -50.658  15.409  23.250  0.00  0.00     0.000 A 
ATOM     13  C   UNL d   1     -49.850  15.284  23.317  0.00  0.00     0.005 A 
ENDBRANCH   5   7
ENDBRANCH   2   4
ENDBRANCH   1   2
BRANCH   1  14
ATOM     14  C   UNL d   1     -46.429  13.056  22.354  0.00  0.00     0.047 A 
ATOM     15  S   UNL d   1     -45.726  12.924  22.768  0.00  0.00    -0.085 SA
ATOM     16  C   UNL d   1     -45.107  12.912  22.228  0.00  0.00     0.035 A 
ATOM     17  C   UNL d   1     -45.413  13.036  21.471  0.00  0.00     0.007 A 
ATOM     18  C   UNL d   1     -46.237  13.127  21.545  0.00  0.00     0.009 A 
ENDBRANCH   1  14
BRANCH   1  19
ATOM     19  N   UNL d   1     -47.618  12.419  22.817  0.00  0.00    -0.299 N 
ATOM     20  C   UNL d   1     -48.084  12.100  22.229  0.00  0.00     0.107 A 
ATOM     21  C   UNL d   1     -48.518  11.416  22.362  0.00  0.00     0.142 A 
ATOM     22  O   UNL d   1     -48.488  11.037  23.101  0.00  0.00    -0.300 OA
ATOM     23  C   UNL d   1     -48.013  11.364  23.698  0.00  0.00     0.142 A 
ATOM     24  C   UNL d   1     -47.580  12.052  23.555  0.00  0.00     0.107 A 
ENDBRANCH   1  19
TORSDOF 5
ENDMDL
MODEL 6
REMARK VINA RESULT:      -4.9      9.596     10.786
REMARK  5 active torsions:
REMARK  status: ('A' for Active; 'I' for Inactive)
REMARK       I    between atoms: N_2  and  C_1 
REMARK    1  A    between atoms: C_8  and  C_1 
REMARK    2  A    between atoms: C_4  and  N_2 
REMARK    3  A    between atoms: C_3  and  C_4 
REMARK    4  A    between atoms: C_5  and  C_3 
REMARK    5  A    between atoms: N_6  and  C_3 
ROOT
ATOM      1  C   UNL d   1     -39.230  14.921  17.820  0.00  0.00     0.088 C 
ENDROOT
BRANCH   1   2
ATOM      2  C   UNL d   1     -38.899  15.282  18.481  0.00  0.00     0.101 C 
ATOM      3  C   UNL d   1     -38.337  15.867  18.385  0.00  0.00     0.022 C 
BRANCH   2   4
ATOM      4  N   UNL d   1     -39.138  15.049  19.231  0.00  0.00    -0.206 NA
ATOM      5  C   UNL d   1     -38.771  15.371  19.899  0.00  0.00     0.279 C 
ATOM      6  O   UNL d   1     -38.169  15.922  19.804  0.00  0.00    -0.265 OA
BRANCH   5   7
ATOM      7  C   UNL d   1     -39.010  15.138  20.649  0.00  0.00     0.058 A 
ATOM      8  C   UNL d   1     -38.709  14.447  20.994  0.00  0.00     0.005 A 
ATOM      9  C   UNL d   1     -38.952  14.214  21.752  0.00  0.00     0.000 A 
ATOM     10  C   UNL d   1     -38.651  13.533  22.084  0.00  0.00     0.000 C 
ATOM     11  C   UNL d   1     -39.501  14.683  22.161  0.00  0.00     0.000 A 
ATOM     12  C   UNL d   1     -39.806  15.375  21.822  0.00  0.00     0.000 A 
ATOM     13  C   UNL d   1     -39.559  15.597  21.072  0.00  0.00     0.005 A 
ENDBRANCH   5   7
ENDBRANCH   2   4
ENDBRANCH   1   2
BRANCH   1  14
ATOM     14  C   UNL d   1     -39.940  15.198  17.511  0.00  0.00     0.047 A 
ATOM     15  S   UNL d   1     -40.039  15.848  17.010  0.00  0.00    -0.085 SA
ATOM     16  C   UNL d   1     -40.840  15.922  16.840  0.00  0.00     0.035 A 
ATOM     17  C   UNL d   1     -41.250  15.322  17.231  0.00  0.00     0.007 A 
ATOM     18  C   UNL d   1     -40.693  14.868  17.651  0.00  0.00     0.009 A 
ENDBRANCH   1  14
BRANCH   1  19
ATOM     19  N   UNL d   1     -38.851  14.277  17.462  0.00  0.00    -0.299 N 
ATOM     20  C   UNL d   1     -38.329  14.400  16.848  0.00  0.00     0.107 A 
ATOM     21  C   UNL d   1     -37.949  13.767  16.488  0.00  0.00     0.142 A 
ATOM     22  O   UNL d   1     -38.091  12.991  16.744  0.00  0.00    -0.300 OA
ATOM     23  C   UNL d   1     -38.624  12.869  17.370  0.00  0.00     0.142 A 
ATOM     24  C   UNL d   1     -39.001  13.510  17.727  0.00  0.00     0.107 A 
ENDBRANCH   1  19
TORSDOF 5
ENDMDL
