MODEL 1
REMARK VINA RESULT:      -5.6      0.000      0.000
REMARK  4 active torsions:
REMARK  status: ('A' for Active; 'I' for Inactive)
REMARK    1  A    between atoms: N_3  and  C_1 
REMARK       I    between atoms: C_7  and  N_3 
REMARK    2  A    between atoms: S_10  and  C_5 
REMARK    3  A    between atoms: C_9  and  C_7 
REMARK    4  A    between atoms: C_13  and  S_10 
ROOT
ATOM      1  N   UNL d   1      57.343   0.247  31.066  0.00  0.00    -0.181 NA
ATOM      2  C   UNL d   1      57.052  -0.469  31.366  0.00  0.00     0.281 C 
ATOM      3  O   UNL d   1      57.256  -1.195  31.007  0.00  0.00    -0.265 OA
ENDROOT
BRANCH   1   4
ATOM      4  C   UNL d   1      57.824   0.233  30.427  0.00  0.00     0.219 A 
ATOM      5  S   UNL d   1      58.646   0.189  30.346  0.00  0.00    -0.019 SA
ATOM      6  C   UNL d   1      58.824   0.196  29.539  0.00  0.00     0.165 A 
ATOM      7  N   UNL d   1      58.139   0.242  29.131  0.00  0.00    -0.133 NA
ATOM      8  N   UNL d   1      57.547   0.265  29.663  0.00  0.00    -0.120 NA
BRANCH   6   9
ATOM      9  S   UNL d   1      59.587   0.160  29.181  0.00  0.00    -0.059 SA
BRANCH   9  10
ATOM     10  C   UNL d   1      59.816  -0.481  28.776  0.00  0.00     0.037 C 
ATOM     11  C   UNL d   1      60.566  -0.525  28.457  0.00  0.00     0.008 C 
ENDBRANCH   9  10
ENDBRANCH   6   9
ENDBRANCH   1   4
BRANCH   2  12
ATOM     12  C   UNL d   1      56.540  -0.442  32.048  0.00  0.00     0.058 A 
ATOM     13  C   UNL d   1      56.274   0.269  32.368  0.00  0.00     0.005 A 
ATOM     14  C   UNL d   1      55.770   0.256  33.042  0.00  0.00     0.000 A 
ATOM     15  C   UNL d   1      55.537  -0.450  33.387  0.00  0.00     0.000 A 
ATOM     16  C   UNL d   1      55.796  -1.162  33.075  0.00  0.00     0.000 A 
ATOM     17  C   UNL d   1      56.304  -1.160  32.397  0.00  0.00     0.005 A 
ENDBRANCH   2  12
TORSDOF 4
ENDMDL
MODEL 2
REMARK VINA RESULT:      -4.7      1.732      4.429
REMARK  4 active torsions:
REMARK  status: ('A' for Active; 'I' for Inactive)
REMARK    1  A    between atoms: N_3  and  C_1 
REMARK       I    between atoms: C_7  and  N_3 
REMARK    2  A    between atoms: S_10  and  C_5 
REMARK    3  A    between atoms: C_9  and  C_7 
REMARK    4  A    between atoms: C_13  and  S_10 
ROOT
ATOM      1  N   UNL d   1      57.067  -0.619  31.012  0.00  0.00    -0.181 NA
ATOM      2  C   UNL d   1      57.735  -0.148  30.878  0.00  0.00     0.281 C 
ATOM      3  O   UNL d   1      58.052   0.326  31.489  0.00  0.00    -0.265 OA
ENDROOT
BRANCH   1   4
ATOM      4  C   UNL d   1      56.728  -0.614  31.736  0.00  0.00     0.219 A 
ATOM      5  S   UNL d   1      56.447  -0.004  32.219  0.00  0.00    -0.019 SA
ATOM      6  C   UNL d   1      56.153  -0.342  32.913  0.00  0.00     0.165 A 
ATOM      7  N   UNL d   1      56.246  -1.134  32.866  0.00  0.00    -0.133 NA
ATOM      8  N   UNL d   1      56.589  -1.292  32.165  0.00  0.00    -0.120 NA
BRANCH   6   9
ATOM      9  S   UNL d   1      55.808   0.056  33.573  0.00  0.00    -0.059 SA
BRANCH   9  10
ATOM     10  C   UNL d   1      55.025   0.171  33.613  0.00  0.00     0.037 C 
ATOM     11  C   UNL d   1      54.709   0.675  34.172  0.00  0.00     0.008 C 
ENDBRANCH   9  10
ENDBRANCH   6   9
ENDBRANCH   1   4
BRANCH   2  12
ATOM     12  C   UNL d   1      58.088  -0.161  30.101  0.00  0.00     0.058 A 
ATOM     13  C   UNL d   1      58.422  -0.843  29.782  0.00  0.00     0.005 A 
ATOM     14  C   UNL d   1      58.761  -0.818  29.013  0.00  0.00     0.000 A 
ATOM     15  C   UNL d   1      58.766  -0.126  28.571  0.00  0.00     0.000 A 
ATOM     16  C   UNL d   1      58.436   0.558  28.880  0.00  0.00     0.000 A 
ATOM     17  C   UNL d   1      58.092   0.542  29.654  0.00  0.00     0.005 A 
ENDBRANCH   2  12
TORSDOF 4
ENDMDL
MODEL 3
REMARK VINA RESULT:      -4.3      1.138      1.664
REMARK  4 active torsions:
REMARK  status: ('A' for Active; 'I' for Inactive)
REMARK    1  A    between atoms: N_3  and  C_1 
REMARK       I    between atoms: C_7  and  N_3 
REMARK    2  A    between atoms: S_10  and  C_5 
REMARK    3  A    between atoms: C_9  and  C_7 
REMARK    4  A    between atoms: C_13  and  S_10 
ROOT
ATOM      1  N   UNL d   1      56.580   0.189  32.087  0.00  0.00    -0.181 NA
ATOM      2  C   UNL d   1      56.467  -0.271  32.767  0.00  0.00     0.281 C 
ATOM      3  O   UNL d   1      56.836  -1.017  32.843  0.00  0.00    -0.265 OA
ENDROOT
BRANCH   1   4
ATOM      4  C   UNL d   1      57.048  -0.091  31.502  0.00  0.00     0.219 A 
ATOM      5  S   UNL d   1      57.647   0.256  31.050  0.00  0.00    -0.019 SA
ATOM      6  C   UNL d   1      57.934  -0.313  30.524  0.00  0.00     0.165 A 
ATOM      7  N   UNL d   1      57.529  -0.991  30.643  0.00  0.00    -0.133 NA
ATOM      8  N   UNL d   1      57.003  -0.855  31.225  0.00  0.00    -0.120 NA
BRANCH   6   9
ATOM      9  S   UNL d   1      58.546  -0.222  29.951  0.00  0.00    -0.059 SA
BRANCH   9  10
ATOM     10  C   UNL d   1      58.784  -0.836  29.511  0.00  0.00     0.037 C 
ATOM     11  C   UNL d   1      59.440  -0.771  29.029  0.00  0.00     0.008 C 
ENDBRANCH   9  10
ENDBRANCH   6   9
ENDBRANCH   1   4
BRANCH   2  12
ATOM     12  C   UNL d   1      55.966   0.038  33.384  0.00  0.00     0.058 A 
ATOM     13  C   UNL d   1      55.145   0.023  33.332  0.00  0.00     0.005 A 
ATOM     14  C   UNL d   1      54.683   0.338  33.960  0.00  0.00     0.000 A 
ATOM     15  C   UNL d   1      55.034   0.661  34.628  0.00  0.00     0.000 A 
ATOM     16  C   UNL d   1      55.851   0.680  34.689  0.00  0.00     0.000 A 
ATOM     17  C   UNL d   1      56.325   0.366  34.061  0.00  0.00     0.005 A 
ENDBRANCH   2  12
TORSDOF 4
ENDMDL
