MODEL 1
REMARK VINA RESULT:      -7.4      0.000      0.000
REMARK  4 active torsions:
REMARK  status: ('A' for Active; 'I' for Inactive)
REMARK    1  A    between atoms: N_2  and  C_1 
REMARK       I    between atoms: C_3  and  N_2 
REMARK    2  A    between atoms: C_6  and  C_3 
REMARK    3  A    between atoms: C_11  and  C_7 
REMARK    4  A    between atoms: C_8  and  C_11 
ROOT
ATOM      1  C   UNL d   1     -46.474  12.182  23.306  0.00  0.00     0.197 A 
ATOM      2  N   UNL d   1     -46.422  12.891  23.685  0.00  0.00    -0.219 NA
ATOM      3  S   UNL d   1     -47.104  12.225  22.762  0.00  0.00    -0.047 SA
ATOM      4  C   UNL d   1     -47.429  12.970  22.820  0.00  0.00     0.051 A 
ATOM      5  C   UNL d   1     -47.013  13.398  23.393  0.00  0.00     0.108 A 
ENDROOT
BRANCH   4   6
ATOM      6  C   UNL d   1     -48.045  13.350  22.446  0.00  0.00     0.009 C 
BRANCH   6   7
ATOM      7  C   UNL d   1     -48.795  12.967  22.412  0.00  0.00     0.012 A 
ATOM      8  C   UNL d   1     -49.234  12.984  21.719  0.00  0.00     0.058 A 
ATOM      9  C   UNL d   1     -49.987  12.600  21.682  0.00  0.00     0.012 A 
ATOM     10 CL   UNL d   1     -48.945  13.376  21.046  0.00  0.00    -0.082 Cl
ATOM     11  C   UNL d   1     -50.280  12.214  22.329  0.00  0.00     0.012 A 
ATOM     12  C   UNL d   1     -49.846  12.189  23.040  0.00  0.00     0.058 A 
ATOM     13  C   UNL d   1     -49.099  12.572  23.069  0.00  0.00     0.012 A 
ATOM     14 CL   UNL d   1     -50.181  11.777  23.698  0.00  0.00    -0.082 Cl
ENDBRANCH   6   7
ENDBRANCH   4   6
BRANCH   1  15
ATOM     15  N   UNL d   1     -45.976  11.518  23.440  0.00  0.00    -0.182 NA
ATOM     16  C   UNL d   1     -45.182  11.536  23.246  0.00  0.00     0.287 C 
ATOM     17  O   UNL d   1     -44.876  12.212  22.916  0.00  0.00    -0.265 OA
BRANCH  16  18
ATOM     18  C   UNL d   1     -44.714  10.895  23.378  0.00  0.00     0.087 A 
ATOM     19  S   UNL d   1     -44.873  10.151  23.698  0.00  0.00    -0.082 SA
ATOM     20  C   UNL d   1     -44.160   9.728  23.690  0.00  0.00     0.036 A 
ATOM     21  C   UNL d   1     -43.606  10.181  23.388  0.00  0.00     0.008 A 
ATOM     22  C   UNL d   1     -43.936  10.922  23.185  0.00  0.00     0.012 A 
ENDBRANCH  16  18
ENDBRANCH   1  15
TORSDOF 4
ENDMDL
MODEL 2
REMARK VINA RESULT:      -6.6      1.132      1.450
REMARK  4 active torsions:
REMARK  status: ('A' for Active; 'I' for Inactive)
REMARK    1  A    between atoms: N_2  and  C_1 
REMARK       I    between atoms: C_3  and  N_2 
REMARK    2  A    between atoms: C_6  and  C_3 
REMARK    3  A    between atoms: C_11  and  C_7 
REMARK    4  A    between atoms: C_8  and  C_11 
ROOT
ATOM      1  C   UNL d   1     -46.277  13.173  23.150  0.00  0.00     0.197 A 
ATOM      2  N   UNL d   1     -45.862  13.846  22.993  0.00  0.00    -0.219 NA
ATOM      3  S   UNL d   1     -47.087  13.337  23.039  0.00  0.00    -0.047 SA
ATOM      4  C   UNL d   1     -47.151  14.118  22.813  0.00  0.00     0.051 A 
ATOM      5  C   UNL d   1     -46.393  14.448  22.780  0.00  0.00     0.108 A 
ENDROOT
BRANCH   4   6
ATOM      6  C   UNL d   1     -47.778  14.603  22.625  0.00  0.00     0.009 C 
BRANCH   6   7
ATOM      7  C   UNL d   1     -48.504  14.250  22.382  0.00  0.00     0.012 A 
ATOM      8  C   UNL d   1     -49.215  14.522  22.688  0.00  0.00     0.058 A 
ATOM      9  C   UNL d   1     -49.945  14.169  22.446  0.00  0.00     0.012 A 
ATOM     10 CL   UNL d   1     -49.228  15.144  23.238  0.00  0.00    -0.082 Cl
ATOM     11  C   UNL d   1     -49.948  13.563  21.911  0.00  0.00     0.012 A 
ATOM     12  C   UNL d   1     -49.234  13.276  21.592  0.00  0.00     0.058 A 
ATOM     13  C   UNL d   1     -48.512  13.631  21.837  0.00  0.00     0.012 A 
ATOM     14 CL   UNL d   1     -49.271  12.641  21.036  0.00  0.00    -0.082 Cl
ENDBRANCH   6   7
ENDBRANCH   4   6
BRANCH   1  15
ATOM     15  N   UNL d   1     -45.946  12.438  23.385  0.00  0.00    -0.182 NA
ATOM     16  C   UNL d   1     -45.326  12.099  22.973  0.00  0.00     0.287 C 
ATOM     17  O   UNL d   1     -45.031  12.488  22.324  0.00  0.00    -0.265 OA
BRANCH  16  18
ATOM     18  C   UNL d   1     -45.016  11.394  23.206  0.00  0.00     0.087 A 
ATOM     19  S   UNL d   1     -45.334  10.765  23.635  0.00  0.00    -0.082 SA
ATOM     20  C   UNL d   1     -44.739  10.191  23.697  0.00  0.00     0.036 A 
ATOM     21  C   UNL d   1     -44.105  10.451  23.333  0.00  0.00     0.008 A 
ATOM     22  C   UNL d   1     -44.259  11.209  23.016  0.00  0.00     0.012 A 
ENDBRANCH  16  18
ENDBRANCH   1  15
TORSDOF 4
ENDMDL
MODEL 3
REMARK VINA RESULT:      -6.0      8.160      9.225
REMARK  4 active torsions:
REMARK  status: ('A' for Active; 'I' for Inactive)
REMARK    1  A    between atoms: N_2  and  C_1 
REMARK       I    between atoms: C_3  and  N_2 
REMARK    2  A    between atoms: C_6  and  C_3 
REMARK    3  A    between atoms: C_11  and  C_7 
REMARK    4  A    between atoms: C_8  and  C_11 
ROOT
ATOM      1  C   UNL d   1     -40.199  15.001  20.230  0.00  0.00     0.197 A 
ATOM      2  N   UNL d   1     -40.793  14.456  20.214  0.00  0.00    -0.219 NA
ATOM      3  S   UNL d   1     -40.003  15.192  19.443  0.00  0.00    -0.047 SA
ATOM      4  C   UNL d   1     -40.488  14.754  18.955  0.00  0.00     0.051 A 
ATOM      5  C   UNL d   1     -40.988  14.290  19.424  0.00  0.00     0.108 A 
ENDROOT
BRANCH   4   6
ATOM      6  C   UNL d   1     -40.570  14.691  18.147  0.00  0.00     0.009 C 
BRANCH   6   7
ATOM      7  C   UNL d   1     -39.925  14.387  17.697  0.00  0.00     0.012 A 
ATOM      8  C   UNL d   1     -39.651  14.799  17.043  0.00  0.00     0.058 A 
ATOM      9  C   UNL d   1     -39.004  14.496  16.591  0.00  0.00     0.012 A 
ATOM     10 CL   UNL d   1     -40.003  15.516  16.817  0.00  0.00    -0.082 Cl
ATOM     11  C   UNL d   1     -38.651  13.799  16.798  0.00  0.00     0.012 A 
ATOM     12  C   UNL d   1     -38.919  13.369  17.460  0.00  0.00     0.058 A 
ATOM     13  C   UNL d   1     -39.562  13.676  17.906  0.00  0.00     0.012 A 
ATOM     14 CL   UNL d   1     -38.528  12.644  17.651  0.00  0.00    -0.082 Cl
ENDBRANCH   6   7
ENDBRANCH   4   6
BRANCH   1  15
ATOM     15  N   UNL d   1     -39.843  15.317  20.922  0.00  0.00    -0.182 NA
ATOM     16  C   UNL d   1     -39.484  14.832  21.474  0.00  0.00     0.287 C 
ATOM     17  O   UNL d   1     -39.474  14.031  21.343  0.00  0.00    -0.265 OA
BRANCH  16  18
ATOM     18  C   UNL d   1     -39.145  15.144  22.135  0.00  0.00     0.087 A 
ATOM     19  S   UNL d   1     -39.064  15.922  22.399  0.00  0.00    -0.082 SA
ATOM     20  C   UNL d   1     -38.662  15.890  23.123  0.00  0.00     0.036 A 
ATOM     21  C   UNL d   1     -38.509  15.147  23.289  0.00  0.00     0.008 A 
ATOM     22  C   UNL d   1     -38.806  14.661  22.677  0.00  0.00     0.012 A 
ENDBRANCH  16  18
ENDBRANCH   1  15
TORSDOF 4
ENDMDL
MODEL 4
REMARK VINA RESULT:      -5.7      2.397      5.029
REMARK  4 active torsions:
REMARK  status: ('A' for Active; 'I' for Inactive)
REMARK    1  A    between atoms: N_2  and  C_1 
REMARK       I    between atoms: C_3  and  N_2 
REMARK    2  A    between atoms: C_6  and  C_3 
REMARK    3  A    between atoms: C_11  and  C_7 
REMARK    4  A    between atoms: C_8  and  C_11 
ROOT
ATOM      1  C   UNL d   1     -48.877  12.552  23.293  0.00  0.00     0.197 A 
ATOM      2  N   UNL d   1     -48.942  11.851  22.901  0.00  0.00    -0.219 NA
ATOM      3  S   UNL d   1     -48.134  12.568  23.670  0.00  0.00    -0.047 SA
ATOM      4  C   UNL d   1     -47.756  11.867  23.498  0.00  0.00     0.051 A 
ATOM      5  C   UNL d   1     -48.249  11.408  23.018  0.00  0.00     0.108 A 
ENDROOT
BRANCH   4   6
ATOM      6  C   UNL d   1     -47.031  11.552  23.697  0.00  0.00     0.009 C 
BRANCH   6   7
ATOM      7  C   UNL d   1     -46.341  11.853  23.318  0.00  0.00     0.012 A 
ATOM      8  C   UNL d   1     -45.647  11.414  23.320  0.00  0.00     0.058 A 
ATOM      9  C   UNL d   1     -44.954  11.714  22.940  0.00  0.00     0.012 A 
ATOM     10 CL   UNL d   1     -45.617  10.673  23.693  0.00  0.00    -0.082 Cl
ATOM     11  C   UNL d   1     -44.968  12.434  22.572  0.00  0.00     0.012 A 
ATOM     12  C   UNL d   1     -45.665  12.890  22.562  0.00  0.00     0.058 A 
ATOM     13  C   UNL d   1     -46.351  12.587  22.941  0.00  0.00     0.012 A 
ATOM     14 CL   UNL d   1     -45.647  13.639  22.169  0.00  0.00    -0.082 Cl
ENDBRANCH   6   7
ENDBRANCH   4   6
BRANCH   1  15
ATOM     15  N   UNL d   1     -49.459  13.157  23.314  0.00  0.00    -0.182 NA
ATOM     16  C   UNL d   1     -49.602  13.633  22.665  0.00  0.00     0.287 C 
ATOM     17  O   UNL d   1     -49.167  13.512  21.989  0.00  0.00    -0.265 OA
BRANCH  16  18
ATOM     18  C   UNL d   1     -50.162  14.210  22.695  0.00  0.00     0.087 A 
ATOM     19  S   UNL d   1     -50.537  14.584  23.328  0.00  0.00    -0.082 SA
ATOM     20  C   UNL d   1     -51.064  15.135  23.004  0.00  0.00     0.036 A 
ATOM     21  C   UNL d   1     -51.015  15.101  22.230  0.00  0.00     0.008 A 
ATOM     22  C   UNL d   1     -50.450  14.523  22.015  0.00  0.00     0.012 A 
ENDBRANCH  16  18
ENDBRANCH   1  15
TORSDOF 4
ENDMDL
MODEL 5
REMARK VINA RESULT:      -5.3      7.895      9.207
REMARK  4 active torsions:
REMARK  status: ('A' for Active; 'I' for Inactive)
REMARK    1  A    between atoms: N_2  and  C_1 
REMARK       I    between atoms: C_3  and  N_2 
REMARK    2  A    between atoms: C_6  and  C_3 
REMARK    3  A    between atoms: C_11  and  C_7 
REMARK    4  A    between atoms: C_8  and  C_11 
ROOT
ATOM      1  C   UNL d   1     -39.778  15.317  18.080  0.00  0.00     0.197 A 
ATOM      2  N   UNL d   1     -40.495  15.650  17.924  0.00  0.00    -0.219 NA
ATOM      3  S   UNL d   1     -39.649  15.358  18.903  0.00  0.00    -0.047 SA
ATOM      4  C   UNL d   1     -40.298  15.720  19.236  0.00  0.00     0.051 A 
ATOM      5  C   UNL d   1     -40.836  15.908  18.636  0.00  0.00     0.108 A 
ENDROOT
BRANCH   4   6
ATOM      6  C   UNL d   1     -40.506  15.919  19.999  0.00  0.00     0.009 C 
BRANCH   6   7
ATOM      7  C   UNL d   1     -40.530  15.312  20.583  0.00  0.00     0.012 A 
ATOM      8  C   UNL d   1     -39.991  15.317  21.202  0.00  0.00     0.058 A 
ATOM      9  C   UNL d   1     -40.013  14.709  21.790  0.00  0.00     0.012 A 
ATOM     10 CL   UNL d   1     -39.418  15.917  21.259  0.00  0.00    -0.082 Cl
ATOM     11  C   UNL d   1     -40.564  14.120  21.747  0.00  0.00     0.012 A 
ATOM     12  C   UNL d   1     -41.117  14.102  21.125  0.00  0.00     0.058 A 
ATOM     13  C   UNL d   1     -41.090  14.708  20.544  0.00  0.00     0.012 A 
ATOM     14 CL   UNL d   1     -41.681  13.471  21.109  0.00  0.00    -0.082 Cl
ENDBRANCH   6   7
ENDBRANCH   4   6
BRANCH   1  15
ATOM     15  N   UNL d   1     -39.256  14.987  17.510  0.00  0.00    -0.182 NA
ATOM     16  C   UNL d   1     -39.303  14.199  17.297  0.00  0.00     0.287 C 
ATOM     17  O   UNL d   1     -39.867  13.732  17.647  0.00  0.00    -0.265 OA
BRANCH  16  18
ATOM     18  C   UNL d   1     -38.799  13.893  16.749  0.00  0.00     0.087 A 
ATOM     19  S   UNL d   1     -38.570  14.155  16.001  0.00  0.00    -0.082 SA
ATOM     20  C   UNL d   1     -38.032  13.598  15.704  0.00  0.00     0.036 A 
ATOM     21  C   UNL d   1     -37.940  13.037  16.233  0.00  0.00     0.008 A 
ATOM     22  C   UNL d   1     -38.416  13.205  16.900  0.00  0.00     0.012 A 
ENDBRANCH  16  18
ENDBRANCH   1  15
TORSDOF 4
ENDMDL
MODEL 6
REMARK VINA RESULT:      -4.8      1.420      2.032
REMARK  4 active torsions:
REMARK  status: ('A' for Active; 'I' for Inactive)
REMARK    1  A    between atoms: N_2  and  C_1 
REMARK       I    between atoms: C_3  and  N_2 
REMARK    2  A    between atoms: C_6  and  C_3 
REMARK    3  A    between atoms: C_11  and  C_7 
REMARK    4  A    between atoms: C_8  and  C_11 
ROOT
ATOM      1  C   UNL d   1     -46.067  12.609  22.846  0.00  0.00     0.197 A 
ATOM      2  N   UNL d   1     -46.127  12.009  23.382  0.00  0.00    -0.219 NA
ATOM      3  S   UNL d   1     -46.802  12.999  22.812  0.00  0.00    -0.047 SA
ATOM      4  C   UNL d   1     -47.304  12.625  23.334  0.00  0.00     0.051 A 
ATOM      5  C   UNL d   1     -46.895  12.004  23.698  0.00  0.00     0.108 A 
ENDROOT
BRANCH   4   6
ATOM      6  C   UNL d   1     -48.081  12.739  23.552  0.00  0.00     0.009 C 
BRANCH   6   7
ATOM      7  C   UNL d   1     -48.682  12.659  22.966  0.00  0.00     0.012 A 
ATOM      8  C   UNL d   1     -49.257  12.080  23.044  0.00  0.00     0.058 A 
ATOM      9  C   UNL d   1     -49.861  11.998  22.458  0.00  0.00     0.012 A 
ATOM     10 CL   UNL d   1     -49.254  11.567  23.698  0.00  0.00    -0.082 Cl
ATOM     11  C   UNL d   1     -49.876  12.489  21.816  0.00  0.00     0.012 A 
ATOM     12  C   UNL d   1     -49.298  13.083  21.723  0.00  0.00     0.058 A 
ATOM     13  C   UNL d   1     -48.701  13.158  22.309  0.00  0.00     0.012 A 
ATOM     14 CL   UNL d   1     -49.342  13.580  21.041  0.00  0.00    -0.082 Cl
ENDBRANCH   6   7
ENDBRANCH   4   6
BRANCH   1  15
ATOM     15  N   UNL d   1     -45.379  12.802  22.403  0.00  0.00    -0.182 NA
ATOM     16  C   UNL d   1     -44.702  12.345  22.449  0.00  0.00     0.287 C 
ATOM     17  O   UNL d   1     -44.703  11.694  22.934  0.00  0.00    -0.265 OA
BRANCH  16  18
ATOM     18  C   UNL d   1     -44.049  12.538  22.021  0.00  0.00     0.087 A 
ATOM     19  S   UNL d   1     -43.916  13.115  21.446  0.00  0.00    -0.082 SA
ATOM     20  C   UNL d   1     -43.125  13.040  21.208  0.00  0.00     0.036 A 
ATOM     21  C   UNL d   1     -42.800  12.460  21.608  0.00  0.00     0.008 A 
ATOM     22  C   UNL d   1     -43.367  12.130  22.127  0.00  0.00     0.012 A 
ENDBRANCH  16  18
ENDBRANCH   1  15
TORSDOF 4
ENDMDL
MODEL 7
REMARK VINA RESULT:      -4.7      2.219      4.765
REMARK  4 active torsions:
REMARK  status: ('A' for Active; 'I' for Inactive)
REMARK    1  A    between atoms: N_2  and  C_1 
REMARK       I    between atoms: C_3  and  N_2 
REMARK    2  A    between atoms: C_6  and  C_3 
REMARK    3  A    between atoms: C_11  and  C_7 
REMARK    4  A    between atoms: C_8  and  C_11 
ROOT
ATOM      1  C   UNL d   1     -47.624  13.883  22.423  0.00  0.00     0.197 A 
ATOM      2  N   UNL d   1     -47.298  14.367  22.979  0.00  0.00    -0.219 NA
ATOM      3  S   UNL d   1     -47.006  13.460  22.056  0.00  0.00    -0.047 SA
ATOM      4  C   UNL d   1     -46.307  13.698  22.401  0.00  0.00     0.051 A 
ATOM      5  C   UNL d   1     -46.474  14.265  22.979  0.00  0.00     0.108 A 
ENDROOT
BRANCH   4   6
ATOM      6  C   UNL d   1     -45.525  13.497  22.290  0.00  0.00     0.009 C 
BRANCH   6   7
ATOM      7  C   UNL d   1     -45.267  12.729  22.524  0.00  0.00     0.012 A 
ATOM      8  C   UNL d   1     -44.530  12.455  22.291  0.00  0.00     0.058 A 
ATOM      9  C   UNL d   1     -44.269  11.685  22.525  0.00  0.00     0.012 A 
ATOM     10 CL   UNL d   1     -44.031  12.928  21.824  0.00  0.00    -0.082 Cl
ATOM     11  C   UNL d   1     -44.743  11.214  22.979  0.00  0.00     0.012 A 
ATOM     12  C   UNL d   1     -45.494  11.479  23.223  0.00  0.00     0.058 A 
ATOM     13  C   UNL d   1     -45.747  12.245  22.988  0.00  0.00     0.012 A 
ATOM     14 CL   UNL d   1     -45.966  10.962  23.698  0.00  0.00    -0.082 Cl
ENDBRANCH   6   7
ENDBRANCH   4   6
BRANCH   1  15
ATOM     15  N   UNL d   1     -48.443  13.819  22.248  0.00  0.00    -0.182 NA
ATOM     16  C   UNL d   1     -48.998  13.720  22.841  0.00  0.00     0.287 C 
ATOM     17  O   UNL d   1     -48.743  13.683  23.612  0.00  0.00    -0.265 OA
BRANCH  16  18
ATOM     18  C   UNL d   1     -49.780  13.660  22.664  0.00  0.00     0.087 A 
ATOM     19  S   UNL d   1     -50.354  14.230  22.499  0.00  0.00    -0.082 SA
ATOM     20  C   UNL d   1     -51.063  13.823  22.359  0.00  0.00     0.036 A 
ATOM     21  C   UNL d   1     -50.931  13.062  22.432  0.00  0.00     0.008 A 
ATOM     22  C   UNL d   1     -50.127  12.938  22.625  0.00  0.00     0.012 A 
ENDBRANCH  16  18
ENDBRANCH   1  15
TORSDOF 4
ENDMDL
