MODEL 1
REMARK VINA RESULT:      39.4      0.000      0.000
REMARK  2 active torsions:
REMARK  status: ('A' for Active; 'I' for Inactive)
REMARK    1  A    between atoms: N_2  and  S_1 
REMARK    2  A    between atoms: C_3  and  S_1 
ROOT
ATOM      1  S   UNL d   1     -57.121 -99.254 -44.213  0.00  0.00     0.274 S 
ATOM      2  O   UNL d   1     -57.209 -98.819 -44.918  0.00  0.00    -0.200 OA
ATOM      3  O   UNL d   1     -57.027 -99.688 -43.510  0.00  0.00    -0.200 OA
ENDROOT
BRANCH   1   4
ATOM      4  N   UNL d   1     -57.926 -99.129 -44.037  0.00  0.00    -0.212 N 
ATOM      5  C   UNL d   1     -58.337 -99.093 -43.330  0.00  0.00     0.193 A 
ATOM      6  N   UNL d   1     -59.139 -98.954 -43.502  0.00  0.00    -0.223 NA
ATOM      7  C   UNL d   1     -59.214 -98.905 -44.329  0.00  0.00     0.100 A 
ATOM      8  C   UNL d   1     -58.466 -99.014 -44.645  0.00  0.00     0.094 A 
ATOM      9  C   UNL d   1     -59.869 -98.777 -44.813  0.00  0.00     0.021 A 
ATOM     10  C   UNL d   1     -58.368 -98.993 -45.478  0.00  0.00     0.020 A 
ATOM     11  C   UNL d   1     -59.025 -98.863 -45.976  0.00  0.00     0.002 A 
ATOM     12  C   UNL d   1     -59.771 -98.757 -45.626  0.00  0.00     0.002 A 
ENDBRANCH   1   4
BRANCH   1  13
ATOM     13  C   UNL d   1     -56.319 -99.373 -44.394  0.00  0.00     0.122 A 
ATOM     14  C   UNL d   1     -55.970-100.098 -44.260  0.00  0.00     0.093 A 
ATOM     15  N   UNL d   1     -56.411-100.719 -43.943  0.00  0.00    -0.243 NA
ATOM     16  C   UNL d   1     -55.167-100.217 -44.442  0.00  0.00     0.018 A 
ATOM     17  C   UNL d   1     -56.063-101.441 -43.810  0.00  0.00     0.099 A 
ATOM     18  C   UNL d   1     -55.256-101.581 -43.986  0.00  0.00     0.021 A 
ATOM     19  C   UNL d   1     -54.821-100.960 -44.301  0.00  0.00     0.003 A 
ATOM     20  C   UNL d   1     -54.727 -99.618 -44.752  0.00  0.00     0.002 A 
ATOM     21  C   UNL d   1     -55.070 -98.894 -44.888  0.00  0.00     0.001 A 
ATOM     22  C   UNL d   1     -55.875 -98.756 -44.711  0.00  0.00     0.014 A 
ENDBRANCH   1  13
TORSDOF 2
ENDMDL
MODEL 2
REMARK VINA RESULT:      40.3      0.855      3.698
REMARK  2 active torsions:
REMARK  status: ('A' for Active; 'I' for Inactive)
REMARK    1  A    between atoms: N_2  and  S_1 
REMARK    2  A    between atoms: C_3  and  S_1 
ROOT
ATOM      1  S   UNL d   1     -57.269 -99.149 -44.398  0.00  0.00     0.274 S 
ATOM      2  O   UNL d   1     -57.398 -99.204 -43.577  0.00  0.00    -0.200 OA
ATOM      3  O   UNL d   1     -57.148 -99.093 -45.219  0.00  0.00    -0.200 OA
ENDROOT
BRANCH   1   4
ATOM      4  N   UNL d   1     -56.453 -99.265 -44.278  0.00  0.00    -0.212 N 
ATOM      5  C   UNL d   1     -55.849 -98.755 -44.066  0.00  0.00     0.193 A 
ATOM      6  N   UNL d   1     -55.141 -99.191 -44.030  0.00  0.00    -0.223 NA
ATOM      7  C   UNL d   1     -55.321 -99.979 -44.224  0.00  0.00     0.100 A 
ATOM      8  C   UNL d   1     -56.126-100.012 -44.373  0.00  0.00     0.094 A 
ATOM      9  C   UNL d   1     -54.848-100.651 -44.278  0.00  0.00     0.021 A 
ATOM     10  C   UNL d   1     -56.472-100.746 -44.586  0.00  0.00     0.020 A 
ATOM     11  C   UNL d   1     -56.000-101.433 -44.643  0.00  0.00     0.002 A 
ATOM     12  C   UNL d   1     -55.187-101.368 -44.486  0.00  0.00     0.002 A 
ENDBRANCH   1   4
BRANCH   1  13
ATOM     13  C   UNL d   1     -58.085 -99.033 -44.511  0.00  0.00     0.122 A 
ATOM     14  C   UNL d   1     -58.582 -98.952 -43.871  0.00  0.00     0.093 A 
ATOM     15  N   UNL d   1     -58.279 -98.985 -43.103  0.00  0.00    -0.243 NA
ATOM     16  C   UNL d   1     -59.398 -98.836 -43.983  0.00  0.00     0.018 A 
ATOM     17  C   UNL d   1     -58.775 -98.904 -42.465  0.00  0.00     0.099 A 
ATOM     18  C   UNL d   1     -59.599 -98.787 -42.558  0.00  0.00     0.021 A 
ATOM     19  C   UNL d   1     -59.896 -98.755 -43.323  0.00  0.00     0.003 A 
ATOM     20  C   UNL d   1     -59.704 -98.803 -44.728  0.00  0.00     0.002 A 
ATOM     21  C   UNL d   1     -59.212 -98.883 -45.371  0.00  0.00     0.001 A 
ATOM     22  C   UNL d   1     -58.390 -99.000 -45.276  0.00  0.00     0.014 A 
ENDBRANCH   1  13
TORSDOF 2
ENDMDL
