MODEL 1
REMARK VINA RESULT:      20.7      0.000      0.000
REMARK  0 active torsions:
REMARK  status: ('A' for Active; 'I' for Inactive)
ROOT
ATOM      1  C   UNL d   1      46.116 -17.430  43.719  0.00  0.00     0.138 A 
ATOM      2  C   UNL d   1      45.929 -17.483  44.520  0.00  0.00     0.102 A 
ATOM      3  N   UNL d   1      46.077 -16.700  43.333  0.00  0.00    -0.239 NA
ATOM      4  C   UNL d   1      46.340 -18.098  43.301  0.00  0.00     0.214 A 
ATOM      5  N   UNL d   1      45.703 -16.807  44.937  0.00  0.00    -0.242 NA
ATOM      6  C   UNL d   1      46.193 -18.881  44.488  0.00  0.00     0.022 A 
ATOM      7  C   UNL d   1      46.379 -18.828  43.687  0.00  0.00     0.042 A 
ATOM      8  C   UNL d   1      45.849 -16.017  43.751  0.00  0.00     0.099 A 
ATOM      9  C   UNL d   1      45.662 -16.071  44.553  0.00  0.00     0.099 A 
ATOM     10  O   UNL d   1      46.527 -18.044  42.500  0.00  0.00    -0.285 OA
ATOM     11  C   UNL d   1      46.230 -19.603  44.873  0.00  0.00     0.002 A 
ATOM     12  C   UNL d   1      46.604 -19.496  43.269  0.00  0.00     0.003 A 
ATOM     13  C   UNL d   1      45.442 -15.408  44.954  0.00  0.00     0.021 A 
ATOM     14  C   UNL d   1      45.814 -15.301  43.360  0.00  0.00     0.021 A 
ATOM     15  C   UNL d   1      46.453 -20.265  44.457  0.00  0.00     0.000 A 
ATOM     16  C   UNL d   1      46.640 -20.211  43.655  0.00  0.00     0.000 A 
ATOM     17  C   UNL d   1      45.395 -14.652  44.585  0.00  0.00     0.002 A 
ATOM     18  C   UNL d   1      45.582 -14.598  43.783  0.00  0.00     0.002 A 
ENDROOT
TORSDOF 0
ENDMDL
MODEL 2
REMARK VINA RESULT:      22.4      7.732      8.365
REMARK  0 active torsions:
REMARK  status: ('A' for Active; 'I' for Inactive)
ROOT
ATOM      1  C   UNL d   1      43.956 -15.713  36.638  0.00  0.00     0.138 A 
ATOM      2  C   UNL d   1      43.701 -14.948  36.811  0.00  0.00     0.102 A 
ATOM      3  N   UNL d   1      43.402 -16.306  36.478  0.00  0.00    -0.239 NA
ATOM      4  C   UNL d   1      44.755 -15.889  36.623  0.00  0.00     0.214 A 
ATOM      5  N   UNL d   1      42.893 -14.775  36.824  0.00  0.00    -0.242 NA
ATOM      6  C   UNL d   1      45.054 -14.531  36.957  0.00  0.00     0.022 A 
ATOM      7  C   UNL d   1      45.308 -15.296  36.784  0.00  0.00     0.042 A 
ATOM      8  C   UNL d   1      42.589 -16.135  36.491  0.00  0.00     0.099 A 
ATOM      9  C   UNL d   1      42.334 -15.369  36.664  0.00  0.00     0.099 A 
ATOM     10  O   UNL d   1      45.010 -16.655  36.450  0.00  0.00    -0.285 OA
ATOM     11  C   UNL d   1      45.599 -13.942  37.116  0.00  0.00     0.002 A 
ATOM     12  C   UNL d   1      46.108 -15.473  36.769  0.00  0.00     0.003 A 
ATOM     13  C   UNL d   1      41.545 -15.206  36.675  0.00  0.00     0.021 A 
ATOM     14  C   UNL d   1      42.051 -16.728  36.331  0.00  0.00     0.021 A 
ATOM     15  C   UNL d   1      46.392 -14.119  37.101  0.00  0.00     0.000 A 
ATOM     16  C   UNL d   1      46.647 -14.884  36.928  0.00  0.00     0.000 A 
ATOM     17  C   UNL d   1      40.961 -15.792  36.516  0.00  0.00     0.002 A 
ATOM     18  C   UNL d   1      41.216 -16.558  36.343  0.00  0.00     0.002 A 
ENDROOT
TORSDOF 0
ENDMDL
