MODEL 1
REMARK VINA RESULT:      15.0      0.000      0.000
REMARK  4 active torsions:
REMARK  status: ('A' for Active; 'I' for Inactive)
REMARK    1  A    between atoms: S_2  and  C_1 
REMARK    2  A    between atoms: C_10  and  S_2 
REMARK    3  A    between atoms: N_7  and  C_5 
REMARK    4  A    between atoms: C_11  and  N_7 
ROOT
ATOM      1  C   UNL d   1      45.554 -15.351  44.633  0.00  0.00     0.187 A 
ATOM      2  N   UNL d   1      46.219 -15.830  44.594  0.00  0.00    -0.208 NA
ATOM      3  C   UNL d   1      44.908 -15.816  44.851  0.00  0.00     0.118 A 
ATOM      4  C   UNL d   1      45.987 -16.593  44.789  0.00  0.00     0.196 A 
ATOM      5  S   UNL d   1      45.189 -16.586  44.945  0.00  0.00    -0.035 SA
ATOM      6 CL   UNL d   1      44.140 -15.564  44.954  0.00  0.00    -0.073 Cl
ENDROOT
BRANCH   1   7
ATOM      7  S   UNL d   1      45.530 -14.539  44.480  0.00  0.00     0.228 S 
ATOM      8  O   UNL d   1      46.267 -14.503  44.838  0.00  0.00    -0.216 OA
ATOM      9  O   UNL d   1      44.792 -14.585  44.123  0.00  0.00    -0.216 OA
BRANCH   7  10
ATOM     10  C   UNL d   1      45.582 -13.725  44.364  0.00  0.00     0.089 A 
ATOM     11  C   UNL d   1      45.915 -13.241  44.954  0.00  0.00     0.011 A 
ATOM     12  C   UNL d   1      45.966 -12.419  44.833  0.00  0.00     0.001 A 
ATOM     13  C   UNL d   1      45.688 -12.081  44.132  0.00  0.00     0.000 A 
ATOM     14  C   UNL d   1      45.353 -12.574  43.544  0.00  0.00     0.001 A 
ATOM     15  C   UNL d   1      45.301 -13.389  43.660  0.00  0.00     0.011 A 
ENDBRANCH   7  10
ENDBRANCH   1   7
BRANCH   4  16
ATOM     16  N   UNL d   1      46.482 -17.251  44.818  0.00  0.00    -0.221 NA
BRANCH  16  17
ATOM     17  C   UNL d   1      46.381 -17.863  44.280  0.00  0.00     0.087 A 
ATOM     18  C   UNL d   1      46.305 -18.628  44.548  0.00  0.00     0.061 A 
ATOM     19  C   UNL d   1      46.203 -19.243  44.015  0.00  0.00     0.197 A 
ATOM     20  O   UNL d   1      46.126 -20.013  44.289  0.00  0.00    -0.286 OA
ATOM     21  C   UNL d   1      46.179 -19.087  43.206  0.00  0.00     0.042 A 
ATOM     22  C   UNL d   1      46.257 -18.310  42.939  0.00  0.00     0.005 A 
ATOM     23  C   UNL d   1      46.358 -17.697  43.471  0.00  0.00     0.019 A 
ENDBRANCH  16  17
ENDBRANCH   4  16
TORSDOF 4
ENDMDL
MODEL 2
REMARK VINA RESULT:      17.3      1.315      4.784
REMARK  4 active torsions:
REMARK  status: ('A' for Active; 'I' for Inactive)
REMARK    1  A    between atoms: S_2  and  C_1 
REMARK    2  A    between atoms: C_10  and  S_2 
REMARK    3  A    between atoms: N_7  and  C_5 
REMARK    4  A    between atoms: C_11  and  N_7 
ROOT
ATOM      1  C   UNL d   1      46.131 -17.396  44.028  0.00  0.00     0.187 A 
ATOM      2  N   UNL d   1      46.489 -16.664  43.930  0.00  0.00    -0.208 NA
ATOM      3  C   UNL d   1      45.608 -17.349  44.666  0.00  0.00     0.118 A 
ATOM      4  C   UNL d   1      46.189 -16.162  44.507  0.00  0.00     0.196 A 
ATOM      5  S   UNL d   1      45.653 -16.578  44.955  0.00  0.00    -0.035 SA
ATOM      6 CL   UNL d   1      45.138 -17.949  44.954  0.00  0.00    -0.073 Cl
ENDROOT
BRANCH   1   7
ATOM      7  S   UNL d   1      46.267 -18.070  43.570  0.00  0.00     0.228 S 
ATOM      8  O   UNL d   1      46.166 -17.582  42.917  0.00  0.00    -0.216 OA
ATOM      9  O   UNL d   1      46.367 -18.550  44.228  0.00  0.00    -0.216 OA
BRANCH   7  10
ATOM     10  C   UNL d   1      46.393 -18.692  43.044  0.00  0.00     0.089 A 
ATOM     11  C   UNL d   1      46.391 -19.477  43.319  0.00  0.00     0.011 A 
ATOM     12  C   UNL d   1      46.519 -20.102  42.785  0.00  0.00     0.001 A 
ATOM     13  C   UNL d   1      46.646 -19.948  41.984  0.00  0.00     0.000 A 
ATOM     14  C   UNL d   1      46.646 -19.156  41.713  0.00  0.00     0.001 A 
ATOM     15  C   UNL d   1      46.520 -18.534  42.240  0.00  0.00     0.011 A 
ENDBRANCH   7  10
ENDBRANCH   1   7
BRANCH   4  16
ATOM     16  N   UNL d   1      46.400 -15.372  44.609  0.00  0.00    -0.221 NA
BRANCH  16  17
ATOM     17  C   UNL d   1      45.829 -14.785  44.538  0.00  0.00     0.087 A 
ATOM     18  C   UNL d   1      45.972 -14.138  44.064  0.00  0.00     0.061 A 
ATOM     19  C   UNL d   1      45.406 -13.550  43.990  0.00  0.00     0.197 A 
ATOM     20  O   UNL d   1      45.553 -12.899  43.511  0.00  0.00    -0.286 OA
ATOM     21  C   UNL d   1      44.691 -13.612  44.395  0.00  0.00     0.042 A 
ATOM     22  C   UNL d   1      44.551 -14.269  44.874  0.00  0.00     0.005 A 
ATOM     23  C   UNL d   1      45.116 -14.856  44.948  0.00  0.00     0.019 A 
ENDBRANCH  16  17
ENDBRANCH   4  16
TORSDOF 4
ENDMDL
