MODEL 1
REMARK VINA RESULT:      -2.5      0.000      0.000
REMARK  3 active torsions:
REMARK  status: ('A' for Active; 'I' for Inactive)
REMARK    1  A    between atoms: C_8  and  N_1 
REMARK    2  A    between atoms: C_6  and  C_2 
REMARK    3  A    between atoms: C_14  and  C_8 
ROOT
ATOM      1  N   UNL d   1      31.715  16.880 -24.092  0.00  0.00    -0.289 N 
ATOM      2  C   UNL d   1      31.615  17.691 -24.241  0.00  0.00     0.154 A 
ATOM      3  N   UNL d   1      30.814  17.829 -24.363  0.00  0.00    -0.226 NA
ATOM      4  C   UNL d   1      30.972  16.521 -24.124  0.00  0.00     0.083 A 
ATOM      5  C   UNL d   1      30.414  17.105 -24.291  0.00  0.00     0.099 A 
ATOM      6  C   UNL d   1      30.720  15.732 -24.022  0.00  0.00     0.019 A 
ATOM      7  C   UNL d   1      29.611  16.907 -24.357  0.00  0.00     0.021 A 
ATOM      8  C   UNL d   1      29.922  15.539 -24.089  0.00  0.00     0.002 A 
ATOM      9  C   UNL d   1      29.367  16.127 -24.256  0.00  0.00     0.002 A 
ENDROOT
BRANCH   2  10
ATOM     10  C   UNL d   1      32.217  18.253 -24.261  0.00  0.00     0.064 A 
ATOM     11  S   UNL d   1      32.592  18.585 -24.782  0.00  0.00    -0.083 SA
ATOM     12  C   UNL d   1      33.097  19.064 -24.603  0.00  0.00     0.035 A 
ATOM     13  C   UNL d   1      33.234  19.217 -23.916  0.00  0.00     0.008 A 
ATOM     14  C   UNL d   1      32.860  18.885 -23.396  0.00  0.00     0.010 A 
ENDBRANCH   2  10
BRANCH   1  15
ATOM     15  C   UNL d   1      32.496  16.654 -23.958  0.00  0.00     0.082 C 
BRANCH  15  16
ATOM     16  C   UNL d   1      32.694  15.855 -23.941  0.00  0.00     0.018 C 
ATOM     17  C   UNL d   1      32.714  15.453 -23.222  0.00  0.00     0.002 C 
ATOM     18  C   UNL d   1      32.871  15.458 -24.642  0.00  0.00     0.002 C 
ENDBRANCH  15  16
ENDBRANCH   1  15
TORSDOF 3
ENDMDL
MODEL 2
REMARK VINA RESULT:      -1.4      1.183      2.919
REMARK  3 active torsions:
REMARK  status: ('A' for Active; 'I' for Inactive)
REMARK    1  A    between atoms: C_8  and  N_1 
REMARK    2  A    between atoms: C_6  and  C_2 
REMARK    3  A    between atoms: C_14  and  C_8 
ROOT
ATOM      1  N   UNL d   1      31.511  17.340 -24.098  0.00  0.00    -0.289 N 
ATOM      2  C   UNL d   1      30.756  16.994 -24.067  0.00  0.00     0.154 A 
ATOM      3  N   UNL d   1      30.821  16.280 -23.665  0.00  0.00    -0.226 NA
ATOM      4  C   UNL d   1      32.039  16.836 -23.712  0.00  0.00     0.083 A 
ATOM      5  C   UNL d   1      31.616  16.180 -23.444  0.00  0.00     0.099 A 
ATOM      6  C   UNL d   1      32.859  16.880 -23.565  0.00  0.00     0.019 A 
ATOM      7  C   UNL d   1      32.004  15.574 -23.033  0.00  0.00     0.021 A 
ATOM      8  C   UNL d   1      33.241  16.276 -23.156  0.00  0.00     0.002 A 
ATOM      9  C   UNL d   1      32.813  15.622 -22.890  0.00  0.00     0.002 A 
ENDROOT
BRANCH   2  10
ATOM     10  C   UNL d   1      30.068  17.315 -24.386  0.00  0.00     0.064 A 
ATOM     11  S   UNL d   1      29.676  17.200 -24.982  0.00  0.00    -0.083 SA
ATOM     12  C   UNL d   1      29.083  17.590 -25.097  0.00  0.00     0.035 A 
ATOM     13  C   UNL d   1      28.876  18.091 -24.628  0.00  0.00     0.008 A 
ATOM     14  C   UNL d   1      29.266  18.206 -24.032  0.00  0.00     0.010 A 
ENDBRANCH   2  10
BRANCH   1  15
ATOM     15  C   UNL d   1      31.535  18.066 -24.487  0.00  0.00     0.082 C 
BRANCH  15  16
ATOM     16  C   UNL d   1      32.204  18.541 -24.426  0.00  0.00     0.018 C 
ATOM     17  C   UNL d   1      32.313  19.010 -23.757  0.00  0.00     0.002 C 
ATOM     18  C   UNL d   1      32.764  18.548 -25.031  0.00  0.00     0.002 C 
ENDBRANCH  15  16
ENDBRANCH   1  15
TORSDOF 3
ENDMDL
MODEL 3
REMARK VINA RESULT:      -1.2      1.527      2.588
REMARK  3 active torsions:
REMARK  status: ('A' for Active; 'I' for Inactive)
REMARK    1  A    between atoms: C_8  and  N_1 
REMARK    2  A    between atoms: C_6  and  C_2 
REMARK    3  A    between atoms: C_14  and  C_8 
ROOT
ATOM      1  N   UNL d   1      30.367  16.639 -24.024  0.00  0.00    -0.289 N 
ATOM      2  C   UNL d   1      31.155  16.806 -24.223  0.00  0.00     0.154 A 
ATOM      3  N   UNL d   1      31.165  17.506 -24.655  0.00  0.00    -0.226 NA
ATOM      4  C   UNL d   1      29.892  17.238 -24.336  0.00  0.00     0.083 A 
ATOM      5  C   UNL d   1      30.382  17.775 -24.726  0.00  0.00     0.099 A 
ATOM      6  C   UNL d   1      29.069  17.374 -24.319  0.00  0.00     0.019 A 
ATOM      7  C   UNL d   1      30.057  18.442 -25.097  0.00  0.00     0.021 A 
ATOM      8  C   UNL d   1      28.750  18.038 -24.689  0.00  0.00     0.002 A 
ATOM      9  C   UNL d   1      29.245  18.572 -25.078  0.00  0.00     0.002 A 
ENDROOT
BRANCH   2  10
ATOM     10  C   UNL d   1      31.809  16.348 -24.021  0.00  0.00     0.064 A 
ATOM     11  S   UNL d   1      32.122  15.753 -24.288  0.00  0.00    -0.083 SA
ATOM     12  C   UNL d   1      32.708  15.487 -23.966  0.00  0.00     0.035 A 
ATOM     13  C   UNL d   1      32.985  15.804 -23.386  0.00  0.00     0.008 A 
ATOM     14  C   UNL d   1      32.674  16.397 -23.120  0.00  0.00     0.010 A 
ENDBRANCH   2  10
BRANCH   1  15
ATOM     15  C   UNL d   1      30.267  15.948 -23.587  0.00  0.00     0.082 C 
BRANCH  15  16
ATOM     16  C   UNL d   1      29.514  15.725 -23.338  0.00  0.00     0.018 C 
ATOM     17  C   UNL d   1      28.965  15.453 -23.889  0.00  0.00     0.002 C 
ATOM     18  C   UNL d   1      29.310  15.775 -22.540  0.00  0.00     0.002 C 
ENDBRANCH  15  16
ENDBRANCH   1  15
TORSDOF 3
ENDMDL
MODEL 4
REMARK VINA RESULT:      -1.0      1.567      3.685
REMARK  3 active torsions:
REMARK  status: ('A' for Active; 'I' for Inactive)
REMARK    1  A    between atoms: C_8  and  N_1 
REMARK    2  A    between atoms: C_6  and  C_2 
REMARK    3  A    between atoms: C_14  and  C_8 
ROOT
ATOM      1  N   UNL d   1      32.791  18.233 -23.545  0.00  0.00    -0.289 N 
ATOM      2  C   UNL d   1      32.873  17.525 -23.117  0.00  0.00     0.154 A 
ATOM      3  N   UNL d   1      33.054  17.719 -22.339  0.00  0.00    -0.226 NA
ATOM      4  C   UNL d   1      32.923  18.861 -23.026  0.00  0.00     0.083 A 
ATOM      5  C   UNL d   1      33.085  18.547 -22.281  0.00  0.00     0.099 A 
ATOM      6  C   UNL d   1      32.918  19.690 -23.128  0.00  0.00     0.019 A 
ATOM      7  C   UNL d   1      33.241  19.052 -21.641  0.00  0.00     0.021 A 
ATOM      8  C   UNL d   1      33.073  20.187 -22.490  0.00  0.00     0.002 A 
ATOM      9  C   UNL d   1      33.235  19.868 -21.747  0.00  0.00     0.002 A 
ENDROOT
BRANCH   2  10
ATOM     10  C   UNL d   1      32.787  16.766 -23.424  0.00  0.00     0.064 A 
ATOM     11  S   UNL d   1      33.213  16.307 -23.785  0.00  0.00    -0.083 SA
ATOM     12  C   UNL d   1      32.955  15.663 -23.978  0.00  0.00     0.035 A 
ATOM     13  C   UNL d   1      32.284  15.472 -23.817  0.00  0.00     0.008 A 
ATOM     14  C   UNL d   1      31.859  15.930 -23.457  0.00  0.00     0.010 A 
ENDBRANCH   2  10
BRANCH   1  15
ATOM     15  C   UNL d   1      32.609  18.127 -24.342  0.00  0.00     0.082 C 
BRANCH  15  16
ATOM     16  C   UNL d   1      32.502  18.784 -24.827  0.00  0.00     0.018 C 
ATOM     17  C   UNL d   1      31.748  18.976 -25.097  0.00  0.00     0.002 C 
ATOM     18  C   UNL d   1      33.149  19.248 -25.043  0.00  0.00     0.002 C 
ENDBRANCH  15  16
ENDBRANCH   1  15
TORSDOF 3
ENDMDL
MODEL 5
REMARK VINA RESULT:      -0.9      1.313      2.545
REMARK  3 active torsions:
REMARK  status: ('A' for Active; 'I' for Inactive)
REMARK    1  A    between atoms: C_8  and  N_1 
REMARK    2  A    between atoms: C_6  and  C_2 
REMARK    3  A    between atoms: C_14  and  C_8 
ROOT
ATOM      1  N   UNL d   1      30.560  16.533 -24.130  0.00  0.00    -0.289 N 
ATOM      2  C   UNL d   1      31.000  15.921 -23.781  0.00  0.00     0.154 A 
ATOM      3  N   UNL d   1      30.488  15.473 -23.319  0.00  0.00    -0.226 NA
ATOM      4  C   UNL d   1      29.776  16.459 -23.882  0.00  0.00     0.083 A 
ATOM      5  C   UNL d   1      29.729  15.805 -23.381  0.00  0.00     0.099 A 
ATOM      6  C   UNL d   1      29.087  16.901 -24.043  0.00  0.00     0.019 A 
ATOM      7  C   UNL d   1      29.002  15.592 -23.042  0.00  0.00     0.021 A 
ATOM      8  C   UNL d   1      28.368  16.686 -23.704  0.00  0.00     0.002 A 
ATOM      9  C   UNL d   1      28.325  16.031 -23.204  0.00  0.00     0.002 A 
ENDROOT
BRANCH   2  10
ATOM     10  C   UNL d   1      31.807  15.791 -23.883  0.00  0.00     0.064 A 
ATOM     11  S   UNL d   1      32.216  15.474 -24.387  0.00  0.00    -0.083 SA
ATOM     12  C   UNL d   1      32.930  15.456 -24.303  0.00  0.00     0.035 A 
ATOM     13  C   UNL d   1      33.241  15.747 -23.726  0.00  0.00     0.008 A 
ATOM     14  C   UNL d   1      32.832  16.063 -23.222  0.00  0.00     0.010 A 
ENDBRANCH   2  10
BRANCH   1  15
ATOM     15  C   UNL d   1      31.002  17.034 -24.614  0.00  0.00     0.082 C 
BRANCH  15  16
ATOM     16  C   UNL d   1      30.826  17.838 -24.639  0.00  0.00     0.018 C 
ATOM     17  C   UNL d   1      31.281  18.371 -24.207  0.00  0.00     0.002 C 
ATOM     18  C   UNL d   1      30.195  18.109 -25.097  0.00  0.00     0.002 C 
ENDBRANCH  15  16
ENDBRANCH   1  15
TORSDOF 3
ENDMDL
MODEL 6
REMARK VINA RESULT:      -0.8      4.515      6.709
REMARK  3 active torsions:
REMARK  status: ('A' for Active; 'I' for Inactive)
REMARK    1  A    between atoms: C_8  and  N_1 
REMARK    2  A    between atoms: C_6  and  C_2 
REMARK    3  A    between atoms: C_14  and  C_8 
ROOT
ATOM      1  N   UNL d   1      32.783  22.223 -21.191  0.00  0.00    -0.289 N 
ATOM      2  C   UNL d   1      32.931  21.417 -21.059  0.00  0.00     0.154 A 
ATOM      3  N   UNL d   1      33.126  21.322 -20.265  0.00  0.00    -0.226 NA
ATOM      4  C   UNL d   1      32.887  22.623 -20.477  0.00  0.00     0.083 A 
ATOM      5  C   UNL d   1      33.099  22.069 -19.903  0.00  0.00     0.099 A 
ATOM      6  C   UNL d   1      32.819  23.427 -20.263  0.00  0.00     0.019 A 
ATOM      7  C   UNL d   1      33.241  22.311 -19.123  0.00  0.00     0.021 A 
ATOM      8  C   UNL d   1      32.961  23.663 -19.486  0.00  0.00     0.002 A 
ATOM      9  C   UNL d   1      33.172  23.105 -18.916  0.00  0.00     0.002 A 
ENDROOT
BRANCH   2  10
ATOM     10  C   UNL d   1      32.889  20.821 -21.626  0.00  0.00     0.064 A 
ATOM     11  S   UNL d   1      32.638  20.144 -21.641  0.00  0.00    -0.083 SA
ATOM     12  C   UNL d   1      32.689  19.761 -22.248  0.00  0.00     0.035 A 
ATOM     13  C   UNL d   1      32.987  20.042 -22.837  0.00  0.00     0.008 A 
ATOM     14  C   UNL d   1      33.238  20.718 -22.822  0.00  0.00     0.010 A 
ENDBRANCH   2  10
BRANCH   1  15
ATOM     15  C   UNL d   1      32.580  22.407 -21.969  0.00  0.00     0.082 C 
BRANCH  15  16
ATOM     16  C   UNL d   1      32.482  23.193 -22.191  0.00  0.00     0.018 C 
ATOM     17  C   UNL d   1      31.778  23.583 -22.015  0.00  0.00     0.002 C 
ATOM     18  C   UNL d   1      33.086  23.589 -22.589  0.00  0.00     0.002 C 
ENDBRANCH  15  16
ENDBRANCH   1  15
TORSDOF 3
ENDMDL
MODEL 7
REMARK VINA RESULT:       0.2      0.949      2.071
REMARK  3 active torsions:
REMARK  status: ('A' for Active; 'I' for Inactive)
REMARK    1  A    between atoms: C_8  and  N_1 
REMARK    2  A    between atoms: C_6  and  C_2 
REMARK    3  A    between atoms: C_14  and  C_8 
ROOT
ATOM      1  N   UNL d   1      31.365  17.541 -24.050  0.00  0.00    -0.289 N 
ATOM      2  C   UNL d   1      32.176  17.713 -23.998  0.00  0.00     0.154 A 
ATOM      3  N   UNL d   1      32.532  17.122 -23.549  0.00  0.00    -0.226 NA
ATOM      4  C   UNL d   1      31.224  16.843 -23.632  0.00  0.00     0.083 A 
ATOM      5  C   UNL d   1      31.943  16.582 -23.322  0.00  0.00     0.099 A 
ATOM      6  C   UNL d   1      30.532  16.400 -23.488  0.00  0.00     0.019 A 
ATOM      7  C   UNL d   1      31.974  15.886 -22.872  0.00  0.00     0.021 A 
ATOM      8  C   UNL d   1      30.567  15.710 -23.040  0.00  0.00     0.002 A 
ATOM      9  C   UNL d   1      31.288  15.453 -22.732  0.00  0.00     0.002 A 
ENDROOT
BRANCH   2  10
ATOM     10  C   UNL d   1      32.553  18.362 -24.337  0.00  0.00     0.064 A 
ATOM     11  S   UNL d   1      32.874  18.495 -24.971  0.00  0.00    -0.083 SA
ATOM     12  C   UNL d   1      33.157  19.145 -25.094  0.00  0.00     0.035 A 
ATOM     13  C   UNL d   1      33.125  19.661 -24.597  0.00  0.00     0.008 A 
ATOM     14  C   UNL d   1      32.804  19.528 -23.964  0.00  0.00     0.010 A 
ENDBRANCH   2  10
BRANCH   1  15
ATOM     15  C   UNL d   1      30.931  18.089 -24.486  0.00  0.00     0.082 C 
BRANCH  15  16
ATOM     16  C   UNL d   1      30.142  17.937 -24.664  0.00  0.00     0.018 C 
ATOM     17  C   UNL d   1      29.557  18.458 -24.408  0.00  0.00     0.002 C 
ATOM     18  C   UNL d   1      29.936  17.265 -25.096  0.00  0.00     0.002 C 
ENDBRANCH  15  16
ENDBRANCH   1  15
TORSDOF 3
ENDMDL
MODEL 8
REMARK VINA RESULT:       0.4      1.740      3.852
REMARK  3 active torsions:
REMARK  status: ('A' for Active; 'I' for Inactive)
REMARK    1  A    between atoms: C_8  and  N_1 
REMARK    2  A    between atoms: C_6  and  C_2 
REMARK    3  A    between atoms: C_14  and  C_8 
ROOT
ATOM      1  N   UNL d   1      30.199  16.642 -24.124  0.00  0.00    -0.289 N 
ATOM      2  C   UNL d   1      29.826  16.002 -23.747  0.00  0.00     0.154 A 
ATOM      3  N   UNL d   1      30.400  15.578 -23.339  0.00  0.00    -0.226 NA
ATOM      4  C   UNL d   1      31.004  16.609 -23.946  0.00  0.00     0.083 A 
ATOM      5  C   UNL d   1      31.131  15.953 -23.461  0.00  0.00     0.099 A 
ATOM      6  C   UNL d   1      31.651  17.090 -24.159  0.00  0.00     0.019 A 
ATOM      7  C   UNL d   1      31.895  15.777 -23.190  0.00  0.00     0.021 A 
ATOM      8  C   UNL d   1      32.409  16.912 -23.888  0.00  0.00     0.002 A 
ATOM      9  C   UNL d   1      32.531  16.256 -23.404  0.00  0.00     0.002 A 
ENDROOT
BRANCH   2  10
ATOM     10  C   UNL d   1      29.021  15.828 -23.780  0.00  0.00     0.064 A 
ATOM     11  S   UNL d   1      28.477  15.827 -23.304  0.00  0.00    -0.083 SA
ATOM     12  C   UNL d   1      27.818  15.640 -23.523  0.00  0.00     0.035 A 
ATOM     13  C   UNL d   1      27.694  15.455 -24.204  0.00  0.00     0.008 A 
ATOM     14  C   UNL d   1      28.237  15.456 -24.679  0.00  0.00     0.010 A 
ENDBRANCH   2  10
BRANCH   1  15
ATOM     15  C   UNL d   1      29.690  17.122 -24.559  0.00  0.00     0.082 C 
BRANCH  15  16
ATOM     16  C   UNL d   1      29.804  17.937 -24.568  0.00  0.00     0.018 C 
ATOM     17  C   UNL d   1      29.381  18.416 -24.047  0.00  0.00     0.002 C 
ATOM     18  C   UNL d   1      30.341  18.274 -25.096  0.00  0.00     0.002 C 
ENDBRANCH  15  16
ENDBRANCH   1  15
TORSDOF 3
ENDMDL
