MODEL 1
REMARK VINA RESULT:      -9.0      0.000      0.000
REMARK  1 active torsions:
REMARK  status: ('A' for Active; 'I' for Inactive)
REMARK    1  A    between atoms: C_10  and  C_7 
ROOT
ATOM      1  N   UNL d   1      53.279  30.565  53.674  0.00  0.00    -0.259 N 
ATOM      2  C   UNL d   1      52.956  31.043  53.063  0.00  0.00     0.202 A 
ATOM      3  C   UNL d   1      53.004  29.817  53.551  0.00  0.00     0.227 A 
ATOM      4  C   UNL d   1      53.720  31.029  54.123  0.00  0.00     0.091 A 
ATOM      5  S   UNL d   1      53.212  31.793  53.159  0.00  0.00    -0.047 SA
ATOM      6  N   UNL d   1      52.494  30.565  52.589  0.00  0.00    -0.121 NA
ATOM      7  C   UNL d   1      53.690  31.780  53.823  0.00  0.00     0.050 A 
ATOM      8  N   UNL d   1      52.530  29.790  52.906  0.00  0.00    -0.116 NA
ATOM      9  S   UNL d   1      53.207  29.147  54.061  0.00  0.00    -0.036 SA
ENDROOT
BRANCH   7  10
ATOM     10  C   UNL d   1      54.093  32.386  54.172  0.00  0.00     0.007 A 
ATOM     11  C   UNL d   1      54.686  32.763  53.734  0.00  0.00     0.001 A 
ATOM     12  C   UNL d   1      55.119  33.386  54.058  0.00  0.00     0.000 A 
ATOM     13  C   UNL d   1      54.929  33.617  54.848  0.00  0.00     0.000 A 
ATOM     14  C   UNL d   1      54.343  33.248  55.287  0.00  0.00     0.000 A 
ATOM     15  C   UNL d   1      55.342  34.275  55.275  0.00  0.00     0.000 C 
ATOM     16  C   UNL d   1      53.918  32.626  54.950  0.00  0.00     0.001 A 
ENDBRANCH   7  10
TORSDOF 1
ENDMDL
MODEL 2
REMARK VINA RESULT:      -8.9      2.153      3.821
REMARK  1 active torsions:
REMARK  status: ('A' for Active; 'I' for Inactive)
REMARK    1  A    between atoms: C_10  and  C_7 
ROOT
ATOM      1  N   UNL d   1      53.401  33.871  54.296  0.00  0.00    -0.259 N 
ATOM      2  C   UNL d   1      54.008  33.571  54.792  0.00  0.00     0.202 A 
ATOM      3  C   UNL d   1      53.350  34.662  54.446  0.00  0.00     0.227 A 
ATOM      4  C   UNL d   1      53.121  33.270  53.882  0.00  0.00     0.091 A 
ATOM      5  S   UNL d   1      54.082  32.786  54.665  0.00  0.00    -0.047 SA
ATOM      6  N   UNL d   1      54.306  34.194  55.229  0.00  0.00    -0.121 NA
ATOM      7  C   UNL d   1      53.525  32.602  54.095  0.00  0.00     0.050 A 
ATOM      8  N   UNL d   1      53.883  34.881  55.003  0.00  0.00    -0.116 NA
ATOM      9  S   UNL d   1      52.787  35.186  54.048  0.00  0.00    -0.036 SA
ENDROOT
BRANCH   7  10
ATOM     10  C   UNL d   1      53.358  31.888  53.759  0.00  0.00     0.007 A 
ATOM     11  C   UNL d   1      53.770  31.223  54.031  0.00  0.00     0.001 A 
ATOM     12  C   UNL d   1      53.626  30.476  53.711  0.00  0.00     0.000 A 
ATOM     13  C   UNL d   1      53.045  30.425  53.100  0.00  0.00     0.000 A 
ATOM     14  C   UNL d   1      52.634  31.080  52.826  0.00  0.00     0.000 A 
ATOM     15  C   UNL d   1      52.825  29.665  52.699  0.00  0.00     0.000 C 
ATOM     16  C   UNL d   1      52.788  31.820  53.155  0.00  0.00     0.001 A 
ENDBRANCH   7  10
TORSDOF 1
ENDMDL
MODEL 3
REMARK VINA RESULT:      -8.7      2.836      3.644
REMARK  1 active torsions:
REMARK  status: ('A' for Active; 'I' for Inactive)
REMARK    1  A    between atoms: C_10  and  C_7 
ROOT
ATOM      1  N   UNL d   1      53.567  33.101  54.006  0.00  0.00    -0.259 N 
ATOM      2  C   UNL d   1      53.505  32.433  53.501  0.00  0.00     0.202 A 
ATOM      3  C   UNL d   1      54.245  33.005  54.433  0.00  0.00     0.227 A 
ATOM      4  C   UNL d   1      52.947  33.556  53.867  0.00  0.00     0.091 A 
ATOM      5  S   UNL d   1      52.840  32.500  53.064  0.00  0.00    -0.047 SA
ATOM      6  N   UNL d   1      54.150  31.952  53.640  0.00  0.00    -0.121 NA
ATOM      7  C   UNL d   1      52.493  33.204  53.296  0.00  0.00     0.050 A 
ATOM      8  N   UNL d   1      54.614  32.323  54.232  0.00  0.00    -0.116 NA
ATOM      9  S   UNL d   1      54.518  33.576  55.024  0.00  0.00    -0.036 SA
ENDROOT
BRANCH   7  10
ATOM     10  C   UNL d   1      51.811  33.545  53.034  0.00  0.00     0.007 A 
ATOM     11  C   UNL d   1      51.844  34.009  52.350  0.00  0.00     0.001 A 
ATOM     12  C   UNL d   1      51.166  34.374  52.053  0.00  0.00     0.000 A 
ATOM     13  C   UNL d   1      50.446  34.251  52.477  0.00  0.00     0.000 A 
ATOM     14  C   UNL d   1      50.407  33.793  53.156  0.00  0.00     0.000 A 
ATOM     15  C   UNL d   1      49.671  34.604  52.231  0.00  0.00     0.000 C 
ATOM     16  C   UNL d   1      51.092  33.434  53.441  0.00  0.00     0.001 A 
ENDBRANCH   7  10
TORSDOF 1
ENDMDL
MODEL 4
REMARK VINA RESULT:      -7.5      2.871      3.410
REMARK  1 active torsions:
REMARK  status: ('A' for Active; 'I' for Inactive)
REMARK    1  A    between atoms: C_10  and  C_7 
ROOT
ATOM      1  N   UNL d   1      51.136  34.249  52.982  0.00  0.00    -0.259 N 
ATOM      2  C   UNL d   1      51.585  34.031  52.307  0.00  0.00     0.202 A 
ATOM      3  C   UNL d   1      50.400  34.447  52.717  0.00  0.00     0.227 A 
ATOM      4  C   UNL d   1      51.603  34.176  53.605  0.00  0.00     0.091 A 
ATOM      5  S   UNL d   1      52.321  33.829  52.540  0.00  0.00    -0.047 SA
ATOM      6  N   UNL d   1      51.103  34.105  51.651  0.00  0.00    -0.121 NA
ATOM      7  C   UNL d   1      52.329  33.921  53.353  0.00  0.00     0.050 A 
ATOM      8  N   UNL d   1      50.354  34.369  51.921  0.00  0.00    -0.116 NA
ATOM      9  S   UNL d   1      49.761  34.707  53.240  0.00  0.00    -0.036 SA
ENDROOT
BRANCH   7  10
ATOM     10  C   UNL d   1      52.931  33.794  53.873  0.00  0.00     0.007 A 
ATOM     11  C   UNL d   1      53.216  33.022  53.959  0.00  0.00     0.001 A 
ATOM     12  C   UNL d   1      53.832  32.854  54.482  0.00  0.00     0.000 A 
ATOM     13  C   UNL d   1      54.153  33.501  54.920  0.00  0.00     0.000 A 
ATOM     14  C   UNL d   1      53.875  34.269  54.839  0.00  0.00     0.000 A 
ATOM     15  C   UNL d   1      54.815  33.414  55.503  0.00  0.00     0.000 C 
ATOM     16  C   UNL d   1      53.259  34.422  54.312  0.00  0.00     0.001 A 
ENDBRANCH   7  10
TORSDOF 1
ENDMDL
