MODEL 1
REMARK VINA RESULT:      30.3      0.000      0.000
REMARK  5 active torsions:
REMARK  status: ('A' for Active; 'I' for Inactive)
REMARK    1  A    between atoms: N_2  and  C_1 
REMARK    2  A    between atoms: C_6  and  C_1 
REMARK    3  A    between atoms: O_4  and  N_2 
REMARK    4  A    between atoms: C_3  and  O_4 
REMARK    5  A    between atoms: C_5  and  C_3 
ROOT
ATOM      1  O   UNL d   1      59.383  49.226  50.923  0.00  0.00    -0.168 OA
ENDROOT
BRANCH   1   2
ATOM      2  C   UNL d   1      60.247  49.494  50.820  0.00  0.00     0.319 C 
ATOM      3  O   UNL d   1      60.573  49.683  50.005  0.00  0.00    -0.257 OA
BRANCH   2   4
ATOM      4  C   UNL d   1      60.739  49.565  51.483  0.00  0.00     0.066 A 
ATOM      5  C   UNL d   1      60.392  49.595  52.238  0.00  0.00     0.012 A 
ATOM      6  C   UNL d   1      60.894  49.666  52.897  0.00  0.00     0.035 A 
ATOM      7 BR   UNL d   1      60.548  49.696  53.649  0.00  0.00    -0.049 Br
ATOM      8  C   UNL d   1      61.712  49.706  52.810  0.00  0.00     0.007 A 
ATOM      9  C   UNL d   1      62.023  49.674  52.048  0.00  0.00     0.001 A 
ATOM     10  C   UNL d   1      61.553  49.605  51.397  0.00  0.00     0.005 A 
ENDBRANCH   2   4
ENDBRANCH   1   2
BRANCH   1  11
ATOM     11  N   UNL d   1      58.777  49.597  50.525  0.00  0.00    -0.100 NA
BRANCH  11  12
ATOM     12  C   UNL d   1      57.993  49.486  50.737  0.00  0.00     0.228 C 
ATOM     13  N   UNL d   1      57.797  49.443  51.535  0.00  0.00    -0.123 N 
BRANCH  12  14
ATOM     14  C   UNL d   1      57.403  49.418  50.177  0.00  0.00     0.121 A 
ATOM     15  N   UNL d   1      57.534  49.658  49.410  0.00  0.00    -0.241 NA
ATOM     16  C   UNL d   1      56.928  49.586  48.843  0.00  0.00     0.099 A 
ATOM     17  C   UNL d   1      56.197  49.271  49.064  0.00  0.00     0.021 A 
ATOM     18  C   UNL d   1      56.065  49.028  49.845  0.00  0.00     0.003 A 
ATOM     19  C   UNL d   1      56.671  49.104  50.398  0.00  0.00     0.022 A 
ENDBRANCH  12  14
ENDBRANCH  11  12
ENDBRANCH   1  11
TORSDOF 5
ENDMDL
