MODEL 1
REMARK VINA RESULT:      -9.5      0.000      0.000
REMARK  4 active torsions:
REMARK  status: ('A' for Active; 'I' for Inactive)
REMARK       I    between atoms: C_7  and  N_9 
REMARK    1  A    between atoms: C_15  and  C_7 
REMARK    2  A    between atoms: N_9  and  C_12 
REMARK    3  A    between atoms: C_16  and  C_15 
REMARK    4  A    between atoms: C_17  and  C_16 
ROOT
ATOM      1  N   UNL d   1      54.048  34.331  55.282  0.00  0.00    -0.169 NA
ATOM      2  C   UNL d   1      53.384  34.088  54.862  0.00  0.00     0.282 A 
ATOM      3  C   UNL d   1      54.690  33.900  55.013  0.00  0.00     0.282 A 
ATOM      4  C   UNL d   1      53.623  33.500  54.329  0.00  0.00     0.064 A 
ATOM      5  C   UNL d   1      54.427  33.391  54.428  0.00  0.00     0.063 A 
ATOM      6  C   UNL d   1      54.821  32.833  53.965  0.00  0.00     0.006 A 
ATOM      7  C   UNL d   1      53.199  33.061  53.773  0.00  0.00     0.024 A 
ATOM      8  O   UNL d   1      52.627  34.388  54.969  0.00  0.00    -0.265 OA
ATOM      9  O   UNL d   1      55.466  33.963  55.280  0.00  0.00    -0.265 OA
ATOM     10  C   UNL d   1      53.591  32.508  53.314  0.00  0.00     0.085 A 
ATOM     11  C   UNL d   1      54.406  32.390  53.407  0.00  0.00     0.019 A 
ENDROOT
BRANCH  10  12
ATOM     12  N   UNL d   1      53.168  32.069  52.759  0.00  0.00    -0.208 NA
ATOM     13  C   UNL d   1      53.029  31.271  52.888  0.00  0.00     0.279 C 
ATOM     14  O   UNL d   1      52.607  30.838  52.333  0.00  0.00    -0.265 OA
BRANCH  13  15
ATOM     15  C   UNL d   1      53.307  30.906  53.561  0.00  0.00     0.062 C 
BRANCH  15  16
ATOM     16  C   UNL d   1      53.213  30.090  53.646  0.00  0.00     0.005 C 
BRANCH  16  17
ATOM     17  C   UNL d   1      53.280  29.744  54.394  0.00  0.00     0.000 C 
ATOM     18  C   UNL d   1      53.324  28.923  54.469  0.00  0.00     0.000 C 
ENDBRANCH  16  17
ENDBRANCH  15  16
ENDBRANCH  13  15
ENDBRANCH  10  12
TORSDOF 4
ENDMDL
MODEL 2
REMARK VINA RESULT:      -8.1      1.535      2.280
REMARK  4 active torsions:
REMARK  status: ('A' for Active; 'I' for Inactive)
REMARK       I    between atoms: C_7  and  N_9 
REMARK    1  A    between atoms: C_15  and  C_7 
REMARK    2  A    between atoms: N_9  and  C_12 
REMARK    3  A    between atoms: C_16  and  C_15 
REMARK    4  A    between atoms: C_17  and  C_16 
ROOT
ATOM      1  N   UNL d   1      55.009  33.636  55.689  0.00  0.00    -0.169 NA
ATOM      2  C   UNL d   1      54.417  33.073  55.608  0.00  0.00     0.282 A 
ATOM      3  C   UNL d   1      55.301  33.807  54.944  0.00  0.00     0.282 A 
ATOM      4  C   UNL d   1      54.343  32.896  54.802  0.00  0.00     0.064 A 
ATOM      5  C   UNL d   1      54.890  33.352  54.400  0.00  0.00     0.063 A 
ATOM      6  C   UNL d   1      54.944  33.292  53.579  0.00  0.00     0.006 A 
ATOM      7  C   UNL d   1      53.844  32.377  54.399  0.00  0.00     0.024 A 
ATOM      8  O   UNL d   1      53.985  32.754  56.230  0.00  0.00    -0.265 OA
ATOM      9  O   UNL d   1      55.901  34.342  54.765  0.00  0.00    -0.265 OA
ATOM     10  C   UNL d   1      53.899  32.319  53.584  0.00  0.00     0.085 A 
ATOM     11  C   UNL d   1      54.450  32.776  53.168  0.00  0.00     0.019 A 
ENDROOT
BRANCH  10  12
ATOM     12  N   UNL d   1      53.400  31.800  53.181  0.00  0.00    -0.208 NA
ATOM     13  C   UNL d   1      52.686  32.070  52.880  0.00  0.00     0.279 C 
ATOM     14  O   UNL d   1      52.192  31.550  52.480  0.00  0.00    -0.265 OA
BRANCH  13  15
ATOM     15  C   UNL d   1      52.464  32.848  52.976  0.00  0.00     0.062 C 
BRANCH  15  16
ATOM     16  C   UNL d   1      51.705  33.082  52.749  0.00  0.00     0.005 C 
BRANCH  16  17
ATOM     17  C   UNL d   1      51.546  33.882  52.611  0.00  0.00     0.000 C 
ATOM     18  C   UNL d   1      50.808  34.197  52.804  0.00  0.00     0.000 C 
ENDBRANCH  16  17
ENDBRANCH  15  16
ENDBRANCH  13  15
ENDBRANCH  10  12
TORSDOF 4
ENDMDL
MODEL 3
REMARK VINA RESULT:      -7.7      1.556      3.707
REMARK  4 active torsions:
REMARK  status: ('A' for Active; 'I' for Inactive)
REMARK       I    between atoms: C_7  and  N_9 
REMARK    1  A    between atoms: C_15  and  C_7 
REMARK    2  A    between atoms: N_9  and  C_12 
REMARK    3  A    between atoms: C_16  and  C_15 
REMARK    4  A    between atoms: C_17  and  C_16 
ROOT
ATOM      1  N   UNL d   1      52.955  29.606  53.257  0.00  0.00    -0.169 NA
ATOM      2  C   UNL d   1      53.044  30.258  52.766  0.00  0.00     0.282 A 
ATOM      3  C   UNL d   1      53.115  29.842  54.025  0.00  0.00     0.282 A 
ATOM      4  C   UNL d   1      53.263  30.904  53.238  0.00  0.00     0.064 A 
ATOM      5  C   UNL d   1      53.304  30.640  54.011  0.00  0.00     0.063 A 
ATOM      6  C   UNL d   1      53.512  31.168  54.610  0.00  0.00     0.006 A 
ATOM      7  C   UNL d   1      53.425  31.691  53.048  0.00  0.00     0.024 A 
ATOM      8  O   UNL d   1      52.932  30.251  51.952  0.00  0.00    -0.265 OA
ATOM      9  O   UNL d   1      53.093  29.367  54.697  0.00  0.00    -0.265 OA
ATOM     10  C   UNL d   1      53.631  32.214  53.644  0.00  0.00     0.085 A 
ATOM     11  C   UNL d   1      53.675  31.955  54.430  0.00  0.00     0.019 A 
ENDROOT
BRANCH  10  12
ATOM     12  N   UNL d   1      53.793  33.000  53.454  0.00  0.00    -0.208 NA
ATOM     13  C   UNL d   1      53.177  33.536  53.371  0.00  0.00     0.279 C 
ATOM     14  O   UNL d   1      53.343  34.317  53.182  0.00  0.00    -0.265 OA
BRANCH  13  15
ATOM     15  C   UNL d   1      52.405  33.298  53.474  0.00  0.00     0.062 C 
BRANCH  15  16
ATOM     16  C   UNL d   1      51.794  33.834  53.327  0.00  0.00     0.005 C 
BRANCH  16  17
ATOM     17  C   UNL d   1      51.009  33.576  53.333  0.00  0.00     0.000 C 
ATOM     18  C   UNL d   1      50.421  34.027  52.970  0.00  0.00     0.000 C 
ENDBRANCH  16  17
ENDBRANCH  15  16
ENDBRANCH  13  15
ENDBRANCH  10  12
TORSDOF 4
ENDMDL
MODEL 4
REMARK VINA RESULT:      -7.7      1.994      2.977
REMARK  4 active torsions:
REMARK  status: ('A' for Active; 'I' for Inactive)
REMARK       I    between atoms: C_7  and  N_9 
REMARK    1  A    between atoms: C_15  and  C_7 
REMARK    2  A    between atoms: N_9  and  C_12 
REMARK    3  A    between atoms: C_16  and  C_15 
REMARK    4  A    between atoms: C_17  and  C_16 
ROOT
ATOM      1  N   UNL d   1      50.540  34.026  52.434  0.00  0.00    -0.169 NA
ATOM      2  C   UNL d   1      50.731  33.751  53.184  0.00  0.00     0.282 A 
ATOM      3  C   UNL d   1      51.232  34.255  52.063  0.00  0.00     0.282 A 
ATOM      4  C   UNL d   1      51.553  33.811  53.275  0.00  0.00     0.064 A 
ATOM      5  C   UNL d   1      51.854  34.123  52.581  0.00  0.00     0.063 A 
ATOM      6  C   UNL d   1      52.666  34.246  52.510  0.00  0.00     0.006 A 
ATOM      7  C   UNL d   1      52.049  33.619  53.905  0.00  0.00     0.024 A 
ATOM      8  O   UNL d   1      50.188  33.469  53.732  0.00  0.00    -0.265 OA
ATOM      9  O   UNL d   1      51.301  34.565  51.304  0.00  0.00    -0.265 OA
ATOM     10  C   UNL d   1      52.856  33.742  53.834  0.00  0.00     0.085 A 
ATOM     11  C   UNL d   1      53.170  34.057  53.135  0.00  0.00     0.019 A 
ENDROOT
BRANCH  10  12
ATOM     12  N   UNL d   1      53.352  33.550  54.464  0.00  0.00    -0.208 NA
ATOM     13  C   UNL d   1      53.688  32.803  54.507  0.00  0.00     0.279 C 
ATOM     14  O   UNL d   1      54.181  32.616  55.136  0.00  0.00    -0.265 OA
BRANCH  13  15
ATOM     15  C   UNL d   1      53.536  32.247  53.931  0.00  0.00     0.062 C 
BRANCH  15  16
ATOM     16  C   UNL d   1      53.767  31.464  54.055  0.00  0.00     0.005 C 
BRANCH  16  17
ATOM     17  C   UNL d   1      53.716  30.918  53.436  0.00  0.00     0.000 C 
ATOM     18  C   UNL d   1      53.451  30.150  53.582  0.00  0.00     0.000 C 
ENDBRANCH  16  17
ENDBRANCH  15  16
ENDBRANCH  13  15
ENDBRANCH  10  12
TORSDOF 4
ENDMDL
MODEL 5
REMARK VINA RESULT:      -7.6      2.014      3.238
REMARK  4 active torsions:
REMARK  status: ('A' for Active; 'I' for Inactive)
REMARK       I    between atoms: C_7  and  N_9 
REMARK    1  A    between atoms: C_15  and  C_7 
REMARK    2  A    between atoms: N_9  and  C_12 
REMARK    3  A    between atoms: C_16  and  C_15 
REMARK    4  A    between atoms: C_17  and  C_16 
ROOT
ATOM      1  N   UNL d   1      51.098  34.733  52.460  0.00  0.00    -0.169 NA
ATOM      2  C   UNL d   1      51.827  34.410  52.265  0.00  0.00     0.282 A 
ATOM      3  C   UNL d   1      50.691  34.188  52.916  0.00  0.00     0.282 A 
ATOM      4  C   UNL d   1      51.870  33.655  52.606  0.00  0.00     0.064 A 
ATOM      5  C   UNL d   1      51.167  33.527  53.004  0.00  0.00     0.063 A 
ATOM      6  C   UNL d   1      51.051  32.813  53.402  0.00  0.00     0.006 A 
ATOM      7  C   UNL d   1      52.464  33.083  52.595  0.00  0.00     0.024 A 
ATOM      8  O   UNL d   1      52.400  34.785  51.810  0.00  0.00    -0.265 OA
ATOM      9  O   UNL d   1      49.937  34.282  53.233  0.00  0.00    -0.265 OA
ATOM     10  C   UNL d   1      52.347  32.375  52.991  0.00  0.00     0.085 A 
ATOM     11  C   UNL d   1      51.638  32.236  53.397  0.00  0.00     0.019 A 
ENDROOT
BRANCH  10  12
ATOM     12  N   UNL d   1      52.941  31.803  52.980  0.00  0.00    -0.208 NA
ATOM     13  C   UNL d   1      53.556  31.842  53.521  0.00  0.00     0.279 C 
ATOM     14  O   UNL d   1      54.145  31.270  53.507  0.00  0.00    -0.265 OA
BRANCH  13  15
ATOM     15  C   UNL d   1      53.586  32.442  54.071  0.00  0.00     0.062 C 
BRANCH  15  16
ATOM     16  C   UNL d   1      54.269  32.541  54.523  0.00  0.00     0.005 C 
BRANCH  16  17
ATOM     17  C   UNL d   1      54.249  33.015  55.201  0.00  0.00     0.000 C 
ATOM     18  C   UNL d   1      54.852  33.560  55.344  0.00  0.00     0.000 C 
ENDBRANCH  16  17
ENDBRANCH  15  16
ENDBRANCH  13  15
ENDBRANCH  10  12
TORSDOF 4
ENDMDL
MODEL 6
REMARK VINA RESULT:      -7.3      1.132      3.871
REMARK  4 active torsions:
REMARK  status: ('A' for Active; 'I' for Inactive)
REMARK       I    between atoms: C_7  and  N_9 
REMARK    1  A    between atoms: C_15  and  C_7 
REMARK    2  A    between atoms: N_9  and  C_12 
REMARK    3  A    between atoms: C_16  and  C_15 
REMARK    4  A    between atoms: C_17  and  C_16 
ROOT
ATOM      1  N   UNL d   1      52.834  30.344  53.407  0.00  0.00    -0.169 NA
ATOM      2  C   UNL d   1      53.214  30.564  54.102  0.00  0.00     0.282 A 
ATOM      3  C   UNL d   1      52.957  30.934  52.853  0.00  0.00     0.282 A 
ATOM      4  C   UNL d   1      53.575  31.298  53.973  0.00  0.00     0.064 A 
ATOM      5  C   UNL d   1      53.413  31.519  53.203  0.00  0.00     0.063 A 
ATOM      6  C   UNL d   1      53.705  32.236  52.916  0.00  0.00     0.006 A 
ATOM      7  C   UNL d   1      54.027  31.780  54.468  0.00  0.00     0.024 A 
ATOM      8  O   UNL d   1      53.222  30.118  54.792  0.00  0.00    -0.265 OA
ATOM      9  O   UNL d   1      52.676  30.944  52.080  0.00  0.00    -0.265 OA
ATOM     10  C   UNL d   1      54.316  32.491  54.181  0.00  0.00     0.085 A 
ATOM     11  C   UNL d   1      54.157  32.723  53.402  0.00  0.00     0.019 A 
ENDROOT
BRANCH  10  12
ATOM     12  N   UNL d   1      54.768  32.973  54.676  0.00  0.00    -0.208 NA
ATOM     13  C   UNL d   1      54.486  33.711  54.897  0.00  0.00     0.279 C 
ATOM     14  O   UNL d   1      54.938  34.187  55.389  0.00  0.00    -0.265 OA
BRANCH  13  15
ATOM     15  C   UNL d   1      53.761  33.973  54.631  0.00  0.00     0.062 C 
BRANCH  15  16
ATOM     16  C   UNL d   1      53.481  34.707  54.884  0.00  0.00     0.005 C 
BRANCH  16  17
ATOM     17  C   UNL d   1      52.944  35.127  54.415  0.00  0.00     0.000 C 
ATOM     18  C   UNL d   1      52.553  35.786  54.721  0.00  0.00     0.000 C 
ENDBRANCH  16  17
ENDBRANCH  15  16
ENDBRANCH  13  15
ENDBRANCH  10  12
TORSDOF 4
ENDMDL
MODEL 7
REMARK VINA RESULT:      -7.1      2.351      3.406
REMARK  4 active torsions:
REMARK  status: ('A' for Active; 'I' for Inactive)
REMARK       I    between atoms: C_7  and  N_9 
REMARK    1  A    between atoms: C_15  and  C_7 
REMARK    2  A    between atoms: N_9  and  C_12 
REMARK    3  A    between atoms: C_16  and  C_15 
REMARK    4  A    between atoms: C_17  and  C_16 
ROOT
ATOM      1  N   UNL d   1      53.922  33.010  55.046  0.00  0.00    -0.169 NA
ATOM      2  C   UNL d   1      53.595  32.676  54.370  0.00  0.00     0.282 A 
ATOM      3  C   UNL d   1      53.818  33.821  55.006  0.00  0.00     0.282 A 
ATOM      4  C   UNL d   1      53.285  33.291  53.908  0.00  0.00     0.064 A 
ATOM      5  C   UNL d   1      53.426  33.991  54.306  0.00  0.00     0.063 A 
ATOM      6  C   UNL d   1      53.175  34.704  53.974  0.00  0.00     0.006 A 
ATOM      7  C   UNL d   1      52.896  33.285  53.181  0.00  0.00     0.024 A 
ATOM      8  O   UNL d   1      53.588  31.872  54.202  0.00  0.00    -0.265 OA
ATOM      9  O   UNL d   1      54.060  34.373  55.565  0.00  0.00    -0.265 OA
ATOM     10  C   UNL d   1      52.648  33.993  52.852  0.00  0.00     0.085 A 
ATOM     11  C   UNL d   1      52.786  34.708  53.248  0.00  0.00     0.019 A 
ENDROOT
BRANCH  10  12
ATOM     12  N   UNL d   1      52.259  33.988  52.125  0.00  0.00    -0.208 NA
ATOM     13  C   UNL d   1      51.457  34.155  52.089  0.00  0.00     0.279 C 
ATOM     14  O   UNL d   1      51.074  34.149  51.363  0.00  0.00    -0.265 OA
BRANCH  13  15
ATOM     15  C   UNL d   1      51.039  34.327  52.767  0.00  0.00     0.062 C 
BRANCH  15  16
ATOM     16  C   UNL d   1      50.222  34.438  52.720  0.00  0.00     0.005 C 
BRANCH  16  17
ATOM     17  C   UNL d   1      49.822  34.816  53.338  0.00  0.00     0.000 C 
ATOM     18  C   UNL d   1      49.093  35.176  53.201  0.00  0.00     0.000 C 
ENDBRANCH  16  17
ENDBRANCH  15  16
ENDBRANCH  13  15
ENDBRANCH  10  12
TORSDOF 4
ENDMDL
