MODEL 1
REMARK VINA RESULT:      94.8      0.000      0.000
REMARK  5 active torsions:
REMARK  status: ('A' for Active; 'I' for Inactive)
REMARK    1  A    between atoms: S_2  and  C_1 
REMARK    2  A    between atoms: C_8  and  S_2 
REMARK    3  A    between atoms: C_18  and  N_6 
REMARK    4  A    between atoms: O_22  and  C_16 
REMARK    5  A    between atoms: C_23  and  O_22 
ROOT
ATOM      1  C   UNL d   1      60.884  47.434  50.656  0.00  0.00     0.144 A 
ATOM      2  C   UNL d   1      60.079  47.578  50.584  0.00  0.00     0.209 A 
ATOM      3  C   UNL d   1      59.741  48.265  50.870  0.00  0.00     0.058 A 
ATOM      4  C   UNL d   1      61.370  48.005  51.032  0.00  0.00     0.095 A 
ATOM      5  N   UNL d   1      61.035  48.703  51.324  0.00  0.00    -0.303 N 
ATOM      6  C   UNL d   1      60.226  48.836  51.245  0.00  0.00     0.067 A 
ATOM      7  C   UNL d   1      59.895  49.532  51.536  0.00  0.00     0.020 A 
ATOM      8  C   UNL d   1      58.939  48.407  50.797  0.00  0.00     0.029 A 
ATOM      9  O   UNL d   1      59.602  47.016  50.214  0.00  0.00    -0.286 OA
ATOM     10  C   UNL d   1      58.594  49.099  51.084  0.00  0.00     0.100 A 
ATOM     11  C   UNL d   1      59.079  49.670  51.459  0.00  0.00     0.026 A 
ENDROOT
BRANCH   1  12
ATOM     12  S   UNL d   1      61.229  46.742  50.369  0.00  0.00     0.214 S 
ATOM     13  O   UNL d   1      61.044  46.343  51.066  0.00  0.00    -0.217 OA
ATOM     14  O   UNL d   1      61.420  47.141  49.662  0.00  0.00    -0.217 OA
BRANCH  12  15
ATOM     15  C   UNL d   1      61.578  46.054  50.071  0.00  0.00     0.088 A 
ATOM     16  C   UNL d   1      62.014  46.076  49.370  0.00  0.00     0.011 A 
ATOM     17  C   UNL d   1      62.362  45.392  49.071  0.00  0.00     0.001 A 
ATOM     18  C   UNL d   1      62.278  44.675  49.473  0.00  0.00     0.000 A 
ATOM     19  C   UNL d   1      61.843  44.649  50.175  0.00  0.00     0.001 A 
ATOM     20  C   UNL d   1      62.628  43.983  49.175  0.00  0.00     0.000 C 
ATOM     21  C   UNL d   1      61.495  45.333  50.474  0.00  0.00     0.011 A 
ENDBRANCH  12  15
ENDBRANCH   1  12
BRANCH   5  22
ATOM     22  C   UNL d   1      61.506  49.270  51.695  0.00  0.00     0.080 C 
ATOM     23  C   UNL d   1      61.532  49.300  52.518  0.00  0.00     0.021 C 
ENDBRANCH   5  22
BRANCH  10  24
ATOM     24  O   UNL d   1      57.792  49.241  51.011  0.00  0.00    -0.305 OA
BRANCH  24  25
ATOM     25  C   UNL d   1      57.446  49.386  50.281  0.00  0.00     0.123 C 
ATOM     26  C   UNL d   1      56.630  49.338  50.184  0.00  0.00     0.029 C 
ENDBRANCH  24  25
ENDBRANCH  10  24
TORSDOF 5
ENDMDL
