MODEL 1
REMARK VINA RESULT:      -3.0      0.000      0.000
REMARK  3 active torsions:
REMARK  status: ('A' for Active; 'I' for Inactive)
REMARK    1  A    between atoms: N_2  and  S_1 
REMARK    2  A    between atoms: C_3  and  S_1 
REMARK    3  A    between atoms: C_5  and  N_4 
ROOT
ATOM      1  N   UNL d   1      32.955  20.282 -22.194  0.00  0.00    -0.226 N 
ATOM      2  N   UNL d   1      32.815  21.653 -21.305  0.00  0.00    -0.286 N 
ATOM      3  C   UNL d   1      32.601  20.257 -21.454  0.00  0.00     0.111 A 
ATOM      4  C   UNL d   1      33.239  20.992 -22.490  0.00  0.00     0.111 A 
ATOM      5  C   UNL d   1      33.169  21.677 -22.046  0.00  0.00     0.101 A 
ATOM      6  C   UNL d   1      32.531  20.943 -21.009  0.00  0.00     0.101 A 
ENDROOT
BRANCH   1   7
ATOM      7  S   UNL d   1      33.028  19.584 -22.651  0.00  0.00     0.277 S 
ATOM      8  O   UNL d   1      33.144  19.139 -21.957  0.00  0.00    -0.199 OA
ATOM      9  O   UNL d   1      32.912  20.031 -23.349  0.00  0.00    -0.199 OA
BRANCH   7  10
ATOM     10  C   UNL d   1      33.102  18.887 -23.108  0.00  0.00     0.133 A 
ATOM     11  S   UNL d   1      33.186  18.118 -22.813  0.00  0.00    -0.074 SA
ATOM     12  C   UNL d   1      33.239  17.599 -23.468  0.00  0.00     0.036 A 
ATOM     13  C   UNL d   1      33.187  18.057 -24.161  0.00  0.00     0.008 A 
ATOM     14  C   UNL d   1      33.102  18.852 -23.945  0.00  0.00     0.020 A 
ENDBRANCH   7  10
ENDBRANCH   1   7
BRANCH   2  15
ATOM     15  C   UNL d   1      32.740  22.334 -20.853  0.00  0.00     0.148 A 
ATOM     16  N   UNL d   1      33.240  22.445 -20.212  0.00  0.00    -0.227 NA
ATOM     17  C   UNL d   1      33.173  23.121 -19.755  0.00  0.00     0.101 A 
ATOM     18  C   UNL d   1      32.604  23.690 -19.938  0.00  0.00     0.021 A 
ATOM     19  C   UNL d   1      32.105  23.572 -20.585  0.00  0.00     0.005 A 
ATOM     20  C   UNL d   1      32.172  22.895 -21.042  0.00  0.00     0.037 A 
ENDBRANCH   2  15
TORSDOF 3
ENDMDL
MODEL 2
REMARK VINA RESULT:      -2.4      1.475      4.844
REMARK  3 active torsions:
REMARK  status: ('A' for Active; 'I' for Inactive)
REMARK    1  A    between atoms: N_2  and  S_1 
REMARK    2  A    between atoms: C_3  and  S_1 
REMARK    3  A    between atoms: C_5  and  N_4 
ROOT
ATOM      1  N   UNL d   1      32.955  19.611 -22.469  0.00  0.00    -0.226 N 
ATOM      2  N   UNL d   1      32.841  18.171 -23.245  0.00  0.00    -0.286 N 
ATOM      3  C   UNL d   1      32.612  19.572 -23.214  0.00  0.00     0.111 A 
ATOM      4  C   UNL d   1      33.241  18.930 -22.112  0.00  0.00     0.111 A 
ATOM      5  C   UNL d   1      33.184  18.210 -22.500  0.00  0.00     0.101 A 
ATOM      6  C   UNL d   1      32.555  18.852 -23.602  0.00  0.00     0.101 A 
ENDROOT
BRANCH   1   7
ATOM      7  S   UNL d   1      33.015  20.344 -22.069  0.00  0.00     0.277 S 
ATOM      8  O   UNL d   1      33.185  20.726 -22.789  0.00  0.00    -0.199 OA
ATOM      9  O   UNL d   1      32.844  19.961 -21.344  0.00  0.00    -0.199 OA
BRANCH   7  10
ATOM     10  C   UNL d   1      33.075  21.076 -21.668  0.00  0.00     0.133 A 
ATOM     11  S   UNL d   1      32.995  21.192 -20.851  0.00  0.00    -0.074 SA
ATOM     12  C   UNL d   1      33.098  22.010 -20.700  0.00  0.00     0.036 A 
ATOM     13  C   UNL d   1      33.240  22.388 -21.428  0.00  0.00     0.008 A 
ATOM     14  C   UNL d   1      33.227  21.817 -22.028  0.00  0.00     0.020 A 
ENDBRANCH   7  10
ENDBRANCH   1   7
BRANCH   2  15
ATOM     15  C   UNL d   1      32.779  17.455 -23.642  0.00  0.00     0.148 A 
ATOM     16  N   UNL d   1      33.208  17.343 -24.332  0.00  0.00    -0.227 NA
ATOM     17  C   UNL d   1      33.153  16.631 -24.735  0.00  0.00     0.101 A 
ATOM     18  C   UNL d   1      32.667  16.030 -24.448  0.00  0.00     0.021 A 
ATOM     19  C   UNL d   1      32.238  16.150 -23.753  0.00  0.00     0.005 A 
ATOM     20  C   UNL d   1      32.293  16.861 -23.350  0.00  0.00     0.037 A 
ENDBRANCH   2  15
TORSDOF 3
ENDMDL
MODEL 3
REMARK VINA RESULT:      -2.4      1.620      4.542
REMARK  3 active torsions:
REMARK  status: ('A' for Active; 'I' for Inactive)
REMARK    1  A    between atoms: N_2  and  S_1 
REMARK    2  A    between atoms: C_3  and  S_1 
REMARK    3  A    between atoms: C_5  and  N_4 
ROOT
ATOM      1  N   UNL d   1      32.895  21.311 -21.384  0.00  0.00    -0.226 N 
ATOM      2  N   UNL d   1      33.015  20.090 -22.472  0.00  0.00    -0.286 N 
ATOM      3  C   UNL d   1      32.669  20.550 -21.174  0.00  0.00     0.111 A 
ATOM      4  C   UNL d   1      33.181  21.462 -22.138  0.00  0.00     0.111 A 
ATOM      5  C   UNL d   1      33.241  20.851 -22.682  0.00  0.00     0.101 A 
ATOM      6  C   UNL d   1      32.729  19.939 -21.718  0.00  0.00     0.101 A 
ENDROOT
BRANCH   1   7
ATOM      7  S   UNL d   1      32.835  21.937 -20.832  0.00  0.00     0.277 S 
ATOM      8  O   UNL d   1      32.431  22.398 -21.395  0.00  0.00    -0.199 OA
ATOM      9  O   UNL d   1      33.241  21.474 -20.264  0.00  0.00    -0.199 OA
BRANCH   7  10
ATOM     10  C   UNL d   1      32.775  22.563 -20.279  0.00  0.00     0.133 A 
ATOM     11  S   UNL d   1      32.283  23.226 -20.346  0.00  0.00    -0.074 SA
ATOM     12  C   UNL d   1      32.407  23.702 -19.668  0.00  0.00     0.036 A 
ATOM     13  C   UNL d   1      32.975  23.326 -19.192  0.00  0.00     0.008 A 
ATOM     14  C   UNL d   1      33.206  22.622 -19.564  0.00  0.00     0.020 A 
ENDBRANCH   7  10
ENDBRANCH   1   7
BRANCH   2  15
ATOM     15  C   UNL d   1      33.072  19.472 -23.010  0.00  0.00     0.148 A 
ATOM     16  N   UNL d   1      33.101  19.641 -23.812  0.00  0.00    -0.227 NA
ATOM     17  C   UNL d   1      33.157  19.031 -24.355  0.00  0.00     0.101 A 
ATOM     18  C   UNL d   1      33.185  18.248 -24.097  0.00  0.00     0.021 A 
ATOM     19  C   UNL d   1      33.155  18.085 -23.289  0.00  0.00     0.005 A 
ATOM     20  C   UNL d   1      33.099  18.695 -22.745  0.00  0.00     0.037 A 
ENDBRANCH   2  15
TORSDOF 3
ENDMDL
MODEL 4
REMARK VINA RESULT:      -2.2      1.343      2.280
REMARK  3 active torsions:
REMARK  status: ('A' for Active; 'I' for Inactive)
REMARK    1  A    between atoms: N_2  and  S_1 
REMARK    2  A    between atoms: C_3  and  S_1 
REMARK    3  A    between atoms: C_5  and  N_4 
ROOT
ATOM      1  N   UNL d   1      32.922  18.541 -23.177  0.00  0.00    -0.226 N 
ATOM      2  N   UNL d   1      32.983  19.936 -22.315  0.00  0.00    -0.286 N 
ATOM      3  C   UNL d   1      32.664  19.244 -23.514  0.00  0.00     0.111 A 
ATOM      4  C   UNL d   1      33.211  18.535 -22.409  0.00  0.00     0.111 A 
ATOM      5  C   UNL d   1      33.241  19.233 -21.978  0.00  0.00     0.101 A 
ATOM      6  C   UNL d   1      32.694  19.942 -23.083  0.00  0.00     0.101 A 
ENDROOT
BRANCH   1   7
ATOM      7  S   UNL d   1      32.893  17.828 -23.612  0.00  0.00     0.277 S 
ATOM      8  O   UNL d   1      32.689  18.252 -24.299  0.00  0.00    -0.199 OA
ATOM      9  O   UNL d   1      33.099  17.399 -22.923  0.00  0.00    -0.199 OA
BRANCH   7  10
ATOM     10  C   UNL d   1      32.864  17.113 -24.048  0.00  0.00     0.133 A 
ATOM     11  S   UNL d   1      33.203  16.983 -24.792  0.00  0.00    -0.074 SA
ATOM     12  C   UNL d   1      33.036  16.192 -25.012  0.00  0.00     0.036 A 
ATOM     13  C   UNL d   1      32.595  15.844 -24.398  0.00  0.00     0.008 A 
ATOM     14  C   UNL d   1      32.486  16.408 -23.800  0.00  0.00     0.020 A 
ENDBRANCH   7  10
ENDBRANCH   1   7
BRANCH   2  15
ATOM     15  C   UNL d   1      33.009  20.639 -21.893  0.00  0.00     0.148 A 
ATOM     16  N   UNL d   1      33.212  21.332 -22.282  0.00  0.00    -0.227 NA
ATOM     17  C   UNL d   1      33.241  22.039 -21.868  0.00  0.00     0.101 A 
ATOM     18  C   UNL d   1      33.066  22.053 -21.062  0.00  0.00     0.021 A 
ATOM     19  C   UNL d   1      32.862  21.353 -20.677  0.00  0.00     0.005 A 
ATOM     20  C   UNL d   1      32.833  20.646 -21.091  0.00  0.00     0.037 A 
ENDBRANCH   2  15
TORSDOF 3
ENDMDL
MODEL 5
REMARK VINA RESULT:      -1.0      2.841      5.007
REMARK  3 active torsions:
REMARK  status: ('A' for Active; 'I' for Inactive)
REMARK    1  A    between atoms: N_2  and  S_1 
REMARK    2  A    between atoms: C_3  and  S_1 
REMARK    3  A    between atoms: C_5  and  N_4 
ROOT
ATOM      1  N   UNL d   1      33.070  22.323 -19.271  0.00  0.00    -0.226 N 
ATOM      2  N   UNL d   1      33.096  21.771 -20.816  0.00  0.00    -0.286 N 
ATOM      3  C   UNL d   1      32.977  21.521 -19.423  0.00  0.00     0.111 A 
ATOM      4  C   UNL d   1      33.175  22.849 -19.892  0.00  0.00     0.111 A 
ATOM      5  C   UNL d   1      33.188  22.572 -20.664  0.00  0.00     0.101 A 
ATOM      6  C   UNL d   1      32.990  21.245 -20.195  0.00  0.00     0.101 A 
ENDROOT
BRANCH   1   7
ATOM      7  S   UNL d   1      33.057  22.609 -18.485  0.00  0.00     0.277 S 
ATOM      8  O   UNL d   1      33.152  21.833 -18.199  0.00  0.00    -0.199 OA
ATOM      9  O   UNL d   1      32.962  23.390 -18.772  0.00  0.00    -0.199 OA
BRANCH   7  10
ATOM     10  C   UNL d   1      33.045  22.896 -17.699  0.00  0.00     0.133 A 
ATOM     11  S   UNL d   1      32.853  23.667 -17.466  0.00  0.00    -0.074 SA
ATOM     12  C   UNL d   1      32.913  23.702 -16.631  0.00  0.00     0.036 A 
ATOM     13  C   UNL d   1      33.142  22.949 -16.360  0.00  0.00     0.008 A 
ATOM     14  C   UNL d   1      33.225  22.448 -17.015  0.00  0.00     0.020 A 
ENDBRANCH   7  10
ENDBRANCH   1   7
BRANCH   2  15
ATOM     15  C   UNL d   1      33.107  21.484 -21.585  0.00  0.00     0.148 A 
ATOM     16  N   UNL d   1      32.994  20.682 -21.714  0.00  0.00    -0.227 NA
ATOM     17  C   UNL d   1      33.004  20.388 -22.479  0.00  0.00     0.101 A 
ATOM     18  C   UNL d   1      33.127  20.896 -23.117  0.00  0.00     0.021 A 
ATOM     19  C   UNL d   1      33.241  21.702 -22.979  0.00  0.00     0.005 A 
ATOM     20  C   UNL d   1      33.231  21.997 -22.215  0.00  0.00     0.037 A 
ENDBRANCH   2  15
TORSDOF 3
ENDMDL
MODEL 6
REMARK VINA RESULT:      -0.7      4.538      5.934
REMARK  3 active torsions:
REMARK  status: ('A' for Active; 'I' for Inactive)
REMARK    1  A    between atoms: N_2  and  S_1 
REMARK    2  A    between atoms: C_3  and  S_1 
REMARK    3  A    between atoms: C_5  and  N_4 
ROOT
ATOM      1  N   UNL d   1      29.736  16.852 -24.183  0.00  0.00    -0.226 N 
ATOM      2  N   UNL d   1      31.147  17.608 -24.542  0.00  0.00    -0.286 N 
ATOM      3  C   UNL d   1      29.732  17.535 -24.639  0.00  0.00     0.111 A 
ATOM      4  C   UNL d   1      30.446  16.547 -23.906  0.00  0.00     0.111 A 
ATOM      5  C   UNL d   1      31.151  16.925 -24.086  0.00  0.00     0.101 A 
ATOM      6  C   UNL d   1      30.438  17.913 -24.819  0.00  0.00     0.101 A 
ENDROOT
BRANCH   1   7
ATOM      7  S   UNL d   1      29.019  16.463 -23.997  0.00  0.00     0.277 S 
ATOM      8  O   UNL d   1      29.302  15.766 -24.351  0.00  0.00    -0.199 OA
ATOM      9  O   UNL d   1      28.732  17.165 -23.640  0.00  0.00    -0.199 OA
BRANCH   7  10
ATOM     10  C   UNL d   1      28.301  16.075 -23.811  0.00  0.00     0.133 A 
ATOM     11  S   UNL d   1      27.740  15.803 -24.356  0.00  0.00    -0.074 SA
ATOM     12  C   UNL d   1      27.115  15.453 -23.922  0.00  0.00     0.036 A 
ATOM     13  C   UNL d   1      27.300  15.514 -23.112  0.00  0.00     0.008 A 
ATOM     14  C   UNL d   1      28.030  15.898 -23.038  0.00  0.00     0.020 A 
ENDBRANCH   7  10
ENDBRANCH   1   7
BRANCH   2  15
ATOM     15  C   UNL d   1      31.847  17.993 -24.728  0.00  0.00     0.148 A 
ATOM     16  N   UNL d   1      31.862  18.813 -24.736  0.00  0.00    -0.227 NA
ATOM     17  C   UNL d   1      32.557  19.207 -24.920  0.00  0.00     0.101 A 
ATOM     18  C   UNL d   1      33.240  18.779 -25.097  0.00  0.00     0.021 A 
ATOM     19  C   UNL d   1      33.218  17.954 -25.086  0.00  0.00     0.005 A 
ATOM     20  C   UNL d   1      32.523  17.561 -24.902  0.00  0.00     0.037 A 
ENDBRANCH   2  15
TORSDOF 3
ENDMDL
MODEL 7
REMARK VINA RESULT:      -0.7      4.319      6.279
REMARK  3 active torsions:
REMARK  status: ('A' for Active; 'I' for Inactive)
REMARK    1  A    between atoms: N_2  and  S_1 
REMARK    2  A    between atoms: C_3  and  S_1 
REMARK    3  A    between atoms: C_5  and  N_4 
ROOT
ATOM      1  N   UNL d   1      30.531  17.144 -24.176  0.00  0.00    -0.226 N 
ATOM      2  N   UNL d   1      29.057  16.477 -23.904  0.00  0.00    -0.286 N 
ATOM      3  C   UNL d   1      30.441  16.566 -23.600  0.00  0.00     0.111 A 
ATOM      4  C   UNL d   1      29.883  17.389 -24.616  0.00  0.00     0.111 A 
ATOM      5  C   UNL d   1      29.146  17.055 -24.480  0.00  0.00     0.101 A 
ATOM      6  C   UNL d   1      29.704  16.232 -23.464  0.00  0.00     0.101 A 
ENDROOT
BRANCH   1   7
ATOM      7  S   UNL d   1      31.280  17.487 -24.318  0.00  0.00     0.277 S 
ATOM      8  O   UNL d   1      30.933  18.038 -24.837  0.00  0.00    -0.199 OA
ATOM      9  O   UNL d   1      31.631  16.934 -23.797  0.00  0.00    -0.199 OA
BRANCH   7  10
ATOM     10  C   UNL d   1      32.031  17.830 -24.460  0.00  0.00     0.133 A 
ATOM     11  S   UNL d   1      32.567  17.600 -25.048  0.00  0.00    -0.074 SA
ATOM     12  C   UNL d   1      33.241  18.094 -24.984  0.00  0.00     0.036 A 
ATOM     13  C   UNL d   1      33.109  18.623 -24.355  0.00  0.00     0.008 A 
ATOM     14  C   UNL d   1      32.365  18.465 -24.028  0.00  0.00     0.020 A 
ENDBRANCH   7  10
ENDBRANCH   1   7
BRANCH   2  15
ATOM     15  C   UNL d   1      28.324  16.137 -23.760  0.00  0.00     0.148 A 
ATOM     16  N   UNL d   1      27.912  15.798 -24.383  0.00  0.00    -0.227 NA
ATOM     17  C   UNL d   1      27.179  15.456 -24.249  0.00  0.00     0.101 A 
ATOM     18  C   UNL d   1      26.857  15.453 -23.489  0.00  0.00     0.021 A 
ATOM     19  C   UNL d   1      27.277  15.796 -22.867  0.00  0.00     0.005 A 
ATOM     20  C   UNL d   1      28.010  16.138 -23.001  0.00  0.00     0.037 A 
ENDBRANCH   2  15
TORSDOF 3
ENDMDL
