MODEL 1
REMARK VINA RESULT:      56.6      0.000      0.000
REMARK  5 active torsions:
REMARK  status: ('A' for Active; 'I' for Inactive)
REMARK    1  A    between atoms: N_4  and  C_2 
REMARK    2  A    between atoms: S_8  and  C_3 
REMARK    3  A    between atoms: C_10  and  S_8 
REMARK    4  A    between atoms: C_9  and  C_10 
REMARK    5  A    between atoms: C_12  and  C_9 
ROOT
ATOM      1  N   UNL d   1     -50.877  25.792  33.696  0.00  0.00    -0.203 NA
ATOM      2  C   UNL d   1     -50.876  24.984  33.500  0.00  0.00     0.152 A 
ATOM      3  C   UNL d   1     -50.173  26.189  33.764  0.00  0.00     0.196 A 
ATOM      4  C   UNL d   1     -50.206  24.594  33.379  0.00  0.00     0.057 A 
ATOM      5  N   UNL d   1     -49.469  25.780  33.636  0.00  0.00    -0.221 NA
ATOM      6  C   UNL d   1     -49.468  24.972  33.441  0.00  0.00     0.087 A 
ATOM      7  C   UNL d   1     -48.775  24.530  33.306  0.00  0.00     0.021 C 
ENDROOT
BRANCH   3   8
ATOM      8  S   UNL d   1     -50.136  26.984  33.955  0.00  0.00    -0.045 SA
BRANCH   8   9
ATOM      9  C   UNL d   1     -49.473  27.265  34.357  0.00  0.00     0.080 C 
BRANCH   9  10
ATOM     10  C   UNL d   1     -49.536  27.777  35.018  0.00  0.00     0.202 C 
ATOM     11  O   UNL d   1     -50.181  27.761  35.521  0.00  0.00    -0.286 OA
BRANCH  10  12
ATOM     12  C   UNL d   1     -48.907  28.288  35.115  0.00  0.00     0.040 A 
ATOM     13  C   UNL d   1     -48.643  28.461  35.908  0.00  0.00     0.003 A 
ATOM     14  C   UNL d   1     -48.037  28.951  36.031  0.00  0.00     0.000 A 
ATOM     15  C   UNL d   1     -47.645  29.308  35.399  0.00  0.00     0.000 A 
ATOM     16  C   UNL d   1     -47.890  29.148  34.643  0.00  0.00     0.000 A 
ATOM     17  C   UNL d   1     -48.514  28.645  34.483  0.00  0.00     0.003 A 
ENDBRANCH  10  12
ENDBRANCH   9  10
ENDBRANCH   8   9
ENDBRANCH   3   8
BRANCH   2  18
ATOM     18  N   UNL d   1     -51.621  24.594  33.436  0.00  0.00    -0.285 N 
ATOM     19  C   UNL d   1     -51.664  23.814  33.375  0.00  0.00     0.108 A 
ATOM     20  C   UNL d   1     -52.396  23.410  33.310  0.00  0.00     0.142 A 
ATOM     21  O   UNL d   1     -53.087  23.896  33.314  0.00  0.00    -0.300 OA
ATOM     22  C   UNL d   1     -53.004  24.674  33.377  0.00  0.00     0.142 A 
ATOM     23  C   UNL d   1     -52.306  25.066  33.440  0.00  0.00     0.108 A 
ENDBRANCH   2  18
TORSDOF 5
ENDMDL
MODEL 2
REMARK VINA RESULT:      57.4      1.239      2.046
REMARK  5 active torsions:
REMARK  status: ('A' for Active; 'I' for Inactive)
REMARK    1  A    between atoms: N_4  and  C_2 
REMARK    2  A    between atoms: S_8  and  C_3 
REMARK    3  A    between atoms: C_10  and  S_8 
REMARK    4  A    between atoms: C_9  and  C_10 
REMARK    5  A    between atoms: C_12  and  C_9 
ROOT
ATOM      1  N   UNL d   1     -49.832  26.606  33.889  0.00  0.00    -0.203 NA
ATOM      2  C   UNL d   1     -50.558  26.326  33.595  0.00  0.00     0.152 A 
ATOM      3  C   UNL d   1     -49.721  27.403  33.992  0.00  0.00     0.196 A 
ATOM      4  C   UNL d   1     -51.141  26.817  33.414  0.00  0.00     0.057 A 
ATOM      5  N   UNL d   1     -50.334  27.920  33.802  0.00  0.00    -0.221 NA
ATOM      6  C   UNL d   1     -51.060  27.640  33.508  0.00  0.00     0.087 A 
ATOM      7  C   UNL d   1     -51.699  28.134  33.307  0.00  0.00     0.021 C 
ENDROOT
BRANCH   3   8
ATOM      8  S   UNL d   1     -49.021  27.714  34.278  0.00  0.00    -0.045 SA
BRANCH   8   9
ATOM      9  C   UNL d   1     -49.051  28.245  34.909  0.00  0.00     0.080 C 
BRANCH   9  10
ATOM     10  C   UNL d   1     -48.412  28.339  35.444  0.00  0.00     0.202 C 
ATOM     11  O   UNL d   1     -48.196  27.753  35.971  0.00  0.00    -0.286 OA
BRANCH  10  12
ATOM     12  C   UNL d   1     -48.029  29.058  35.394  0.00  0.00     0.040 A 
ATOM     13  C   UNL d   1     -48.465  29.732  35.104  0.00  0.00     0.003 A 
ATOM     14  C   UNL d   1     -48.119  30.439  35.046  0.00  0.00     0.000 A 
ATOM     15  C   UNL d   1     -47.330  30.545  35.263  0.00  0.00     0.000 A 
ATOM     16  C   UNL d   1     -46.909  29.908  35.539  0.00  0.00     0.000 A 
ATOM     17  C   UNL d   1     -47.240  29.164  35.611  0.00  0.00     0.003 A 
ENDBRANCH  10  12
ENDBRANCH   9  10
ENDBRANCH   8   9
ENDBRANCH   3   8
BRANCH   2  18
ATOM     18  N   UNL d   1     -50.647  25.493  33.498  0.00  0.00    -0.285 N 
ATOM     19  C   UNL d   1     -51.357  25.162  33.496  0.00  0.00     0.108 A 
ATOM     20  C   UNL d   1     -51.465  24.335  33.400  0.00  0.00     0.142 A 
ATOM     21  O   UNL d   1     -50.759  23.880  33.306  0.00  0.00    -0.300 OA
ATOM     22  C   UNL d   1     -50.066  24.248  33.313  0.00  0.00     0.142 A 
ATOM     23  C   UNL d   1     -49.957  25.038  33.404  0.00  0.00     0.108 A 
ENDBRANCH   2  18
TORSDOF 5
ENDMDL
MODEL 3
REMARK VINA RESULT:      58.0      1.203      1.831
REMARK  5 active torsions:
REMARK  status: ('A' for Active; 'I' for Inactive)
REMARK    1  A    between atoms: N_4  and  C_2 
REMARK    2  A    between atoms: S_8  and  C_3 
REMARK    3  A    between atoms: C_10  and  S_8 
REMARK    4  A    between atoms: C_9  and  C_10 
REMARK    5  A    between atoms: C_12  and  C_9 
ROOT
ATOM      1  N   UNL d   1     -50.301  26.148  33.553  0.00  0.00    -0.203 NA
ATOM      2  C   UNL d   1     -51.088  25.895  33.465  0.00  0.00     0.152 A 
ATOM      3  C   UNL d   1     -50.133  26.942  33.560  0.00  0.00     0.196 A 
ATOM      4  C   UNL d   1     -51.676  26.408  33.388  0.00  0.00     0.057 A 
ATOM      5  N   UNL d   1     -50.751  27.481  33.479  0.00  0.00    -0.221 NA
ATOM      6  C   UNL d   1     -51.538  27.228  33.391  0.00  0.00     0.087 A 
ATOM      7  C   UNL d   1     -52.184  27.746  33.307  0.00  0.00     0.021 C 
ENDROOT
BRANCH   3   8
ATOM      8  S   UNL d   1     -49.371  27.227  33.644  0.00  0.00    -0.045 SA
BRANCH   8   9
ATOM      9  C   UNL d   1     -49.204  27.731  34.276  0.00  0.00     0.080 C 
BRANCH   9  10
ATOM     10  C   UNL d   1     -48.533  28.233  34.280  0.00  0.00     0.202 C 
ATOM     11  O   UNL d   1     -48.106  28.394  33.601  0.00  0.00    -0.286 OA
BRANCH  10  12
ATOM     12  C   UNL d   1     -48.344  28.544  35.010  0.00  0.00     0.040 A 
ATOM     13  C   UNL d   1     -47.526  28.725  35.175  0.00  0.00     0.003 A 
ATOM     14  C   UNL d   1     -47.315  29.027  35.873  0.00  0.00     0.000 A 
ATOM     15  C   UNL d   1     -47.876  29.174  36.460  0.00  0.00     0.000 A 
ATOM     16  C   UNL d   1     -48.655  29.003  36.310  0.00  0.00     0.000 A 
ATOM     17  C   UNL d   1     -48.905  28.691  35.597  0.00  0.00     0.003 A 
ENDBRANCH  10  12
ENDBRANCH   9  10
ENDBRANCH   8   9
ENDBRANCH   3   8
BRANCH   2  18
ATOM     18  N   UNL d   1     -51.235  25.064  33.461  0.00  0.00    -0.285 N 
ATOM     19  C   UNL d   1     -51.953  24.782  33.600  0.00  0.00     0.108 A 
ATOM     20  C   UNL d   1     -52.118  23.959  33.600  0.00  0.00     0.142 A 
ATOM     21  O   UNL d   1     -51.461  23.452  33.442  0.00  0.00    -0.300 OA
ATOM     22  C   UNL d   1     -50.757  23.772  33.308  0.00  0.00     0.142 A 
ATOM     23  C   UNL d   1     -50.593  24.558  33.306  0.00  0.00     0.108 A 
ENDBRANCH   2  18
TORSDOF 5
ENDMDL
MODEL 4
REMARK VINA RESULT:      59.1      2.816      3.585
REMARK  5 active torsions:
REMARK  status: ('A' for Active; 'I' for Inactive)
REMARK    1  A    between atoms: N_4  and  C_2 
REMARK    2  A    between atoms: S_8  and  C_3 
REMARK    3  A    between atoms: C_10  and  S_8 
REMARK    4  A    between atoms: C_9  and  C_10 
REMARK    5  A    between atoms: C_12  and  C_9 
ROOT
ATOM      1  N   UNL d   1     -51.695  25.577  34.787  0.00  0.00    -0.203 NA
ATOM      2  C   UNL d   1     -51.494  25.277  34.038  0.00  0.00     0.152 A 
ATOM      3  C   UNL d   1     -51.350  26.263  35.051  0.00  0.00     0.196 A 
ATOM      4  C   UNL d   1     -50.975  25.643  33.578  0.00  0.00     0.057 A 
ATOM      5  N   UNL d   1     -50.805  26.647  34.567  0.00  0.00    -0.221 NA
ATOM      6  C   UNL d   1     -50.604  26.347  33.818  0.00  0.00     0.087 A 
ATOM      7  C   UNL d   1     -50.057  26.711  33.306  0.00  0.00     0.021 C 
ENDROOT
BRANCH   3   8
ATOM      8  S   UNL d   1     -51.524  26.586  35.782  0.00  0.00    -0.045 SA
BRANCH   8   9
ATOM      9  C   UNL d   1     -51.677  26.079  36.414  0.00  0.00     0.080 C 
BRANCH   9  10
ATOM     10  C   UNL d   1     -51.673  26.343  37.209  0.00  0.00     0.202 C 
ATOM     11  O   UNL d   1     -51.275  27.019  37.441  0.00  0.00    -0.286 OA
BRANCH  10  12
ATOM     12  C   UNL d   1     -52.095  25.875  37.727  0.00  0.00     0.040 A 
ATOM     13  C   UNL d   1     -51.664  25.389  38.281  0.00  0.00     0.003 A 
ATOM     14  C   UNL d   1     -52.046  24.927  38.792  0.00  0.00     0.000 A 
ATOM     15  C   UNL d   1     -52.870  24.899  38.806  0.00  0.00     0.000 A 
ATOM     16  C   UNL d   1     -53.288  25.358  38.283  0.00  0.00     0.000 A 
ATOM     17  C   UNL d   1     -52.920  25.847  37.741  0.00  0.00     0.003 A 
ENDBRANCH  10  12
ENDBRANCH   9  10
ENDBRANCH   8   9
ENDBRANCH   3   8
BRANCH   2  18
ATOM     18  N   UNL d   1     -51.868  24.564  33.788  0.00  0.00    -0.285 N 
ATOM     19  C   UNL d   1     -51.447  23.916  33.652  0.00  0.00     0.108 A 
ATOM     20  C   UNL d   1     -51.802  23.197  33.403  0.00  0.00     0.142 A 
ATOM     21  O   UNL d   1     -52.641  23.214  33.306  0.00  0.00    -0.300 OA
ATOM     22  C   UNL d   1     -53.027  23.882  33.451  0.00  0.00     0.142 A 
ATOM     23  C   UNL d   1     -52.693  24.573  33.690  0.00  0.00     0.108 A 
ENDBRANCH   2  18
TORSDOF 5
ENDMDL
