MODEL 1
REMARK VINA RESULT:     125.4      0.000      0.000
REMARK  4 active torsions:
REMARK  status: ('A' for Active; 'I' for Inactive)
REMARK    1  A    between atoms: S_5  and  C_3 
REMARK    2  A    between atoms: C_12  and  S_5 
REMARK    3  A    between atoms: C_23  and  N_6 
REMARK    4  A    between atoms: C_28  and  C_23 
ROOT
ATOM      1  C   UNL d   1      61.359  47.657  50.210  0.00  0.00     0.155 A 
ATOM      2  C   UNL d   1      60.702  47.234  49.973  0.00  0.00     0.092 A 
ATOM      3  C   UNL d   1      59.861  48.236  50.510  0.00  0.00     0.124 A 
ATOM      4  N   UNL d   1      62.114  47.363  50.059  0.00  0.00    -0.210 NA
ATOM      5  N   UNL d   1      61.272  48.365  50.595  0.00  0.00    -0.273 N 
ATOM      6  C   UNL d   1      60.524  48.664  50.749  0.00  0.00     0.181 A 
ATOM      7  C   UNL d   1      60.791  46.517  49.584  0.00  0.00     0.269 A 
ATOM      8  N   UNL d   1      61.544  46.227  49.434  0.00  0.00    -0.258 N 
ATOM      9  C   UNL d   1      59.952  47.521  50.122  0.00  0.00     0.022 A 
ATOM     10  C   UNL d   1      62.205  46.657  49.675  0.00  0.00     0.152 A 
ATOM     11  N   UNL d   1      60.441  49.388  51.143  0.00  0.00    -0.128 N 
ATOM     12  C   UNL d   1      61.645  45.508  49.044  0.00  0.00     0.084 A 
ATOM     13  O   UNL d   1      60.122  46.082  49.340  0.00  0.00    -0.266 OA
ATOM     14  C   UNL d   1      62.960  46.364  49.524  0.00  0.00     0.038 A 
ATOM     15  C   UNL d   1      62.395  45.221  48.896  0.00  0.00     0.019 A 
ATOM     16  C   UNL d   1      63.056  45.651  49.137  0.00  0.00     0.005 A 
ENDROOT
BRANCH   3  17
ATOM     17  S   UNL d   1      59.103  48.533  50.663  0.00  0.00     0.213 S 
ATOM     18  O   UNL d   1      59.412  49.068  51.222  0.00  0.00    -0.217 OA
ATOM     19  O   UNL d   1      58.784  48.005  50.110  0.00  0.00    -0.217 OA
BRANCH  17  20
ATOM     20  C   UNL d   1      58.333  48.824  50.810  0.00  0.00     0.088 A 
ATOM     21  C   UNL d   1      58.170  49.230  51.512  0.00  0.00     0.014 A 
ATOM     22  C   UNL d   1      57.401  49.522  51.658  0.00  0.00     0.030 A 
ATOM     23  C   UNL d   1      56.800  49.404  51.100  0.00  0.00     0.140 A 
ATOM     24  C   UNL d   1      56.972  48.991  50.389  0.00  0.00     0.030 A 
ATOM     25  F   UNL d   1      56.033  49.690  51.238  0.00  0.00    -0.204 F 
ATOM     26  C   UNL d   1      57.737  48.702  50.245  0.00  0.00     0.014 A 
ENDBRANCH  17  20
ENDBRANCH   3  17
BRANCH   5  27
ATOM     27  C   UNL d   1      61.947  48.800  50.838  0.00  0.00     0.083 C 
BRANCH  27  28
ATOM     28  C   UNL d   1      62.079  48.931  51.654  0.00  0.00     0.019 C 
ATOM     29  C   UNL d   1      62.247  49.698  51.938  0.00  0.00     0.002 C 
ENDBRANCH  27  28
ENDBRANCH   5  27
TORSDOF 4
ENDMDL
