MODEL 1
REMARK VINA RESULT:      -2.7      0.000      0.000
REMARK  7 active torsions:
REMARK  status: ('A' for Active; 'I' for Inactive)
REMARK    1  A    between atoms: C_8  and  N_1 
REMARK    2  A    between atoms: C_7  and  C_3 
REMARK    3  A    between atoms: C_10  and  C_6 
REMARK    4  A    between atoms: C_11  and  C_7 
REMARK    5  A    between atoms: C_14  and  C_8 
REMARK    6  A    between atoms: C_12  and  C_14 
REMARK       I    between atoms: N_17  and  C_12 
REMARK    7  A    between atoms: C_20  and  N_17 
ROOT
ATOM      1  C   UNL d   1      32.586  21.405 -20.987  0.00  0.00     0.089 C 
ENDROOT
BRANCH   1   2
ATOM      2  N   UNL d   1      32.680  22.088 -20.536  0.00  0.00    -0.259 N 
ATOM      3  C   UNL d   1      32.503  22.878 -20.751  0.00  0.00     0.153 A 
ATOM      4  S   UNL d   1      32.690  23.380 -20.112  0.00  0.00    -0.053 SA
ATOM      5  S   UNL d   1      32.187  23.116 -21.490  0.00  0.00    -0.052 SA
ATOM      6  C   UNL d   1      32.988  22.905 -19.490  0.00  0.00     0.090 A 
ATOM      7  C   UNL d   1      32.981  22.123 -19.749  0.00  0.00     0.272 A 
ATOM      8  O   UNL d   1      33.241  21.459 -19.283  0.00  0.00    -0.266 OA
BRANCH   6   9
ATOM      9  C   UNL d   1      33.238  23.190 -18.758  0.00  0.00     0.036 C 
BRANCH   9  10
ATOM     10  C   UNL d   1      32.663  23.348 -18.174  0.00  0.00     0.101 A 
ATOM     11  O   UNL d   1      31.847  23.489 -18.228  0.00  0.00    -0.305 OA
ATOM     12  C   UNL d   1      31.580  23.611 -17.434  0.00  0.00     0.123 A 
ATOM     13  C   UNL d   1      32.196  23.547 -16.949  0.00  0.00     0.029 A 
ATOM     14  C   UNL d   1      32.880  23.384 -17.377  0.00  0.00     0.027 A 
ENDBRANCH   9  10
ENDBRANCH   6   9
ENDBRANCH   1   2
BRANCH   1  15
ATOM     15  C   UNL d   1      33.239  21.077 -21.428  0.00  0.00     0.082 C 
BRANCH  15  16
ATOM     16  C   UNL d   1      33.092  20.589 -22.070  0.00  0.00     0.281 C 
ATOM     17  N   UNL d   1      33.138  19.768 -21.977  0.00  0.00    -0.208 NA
ATOM     18  O   UNL d   1      32.901  20.923 -22.801  0.00  0.00    -0.265 OA
BRANCH  17  19
ATOM     19  C   UNL d   1      32.990  19.278 -22.623  0.00  0.00     0.088 A 
ATOM     20  C   UNL d   1      32.633  18.558 -22.505  0.00  0.00     0.061 A 
ATOM     21  C   UNL d   1      32.478  18.058 -23.125  0.00  0.00     0.203 A 
ATOM     22  O   UNL d   1      32.105  17.313 -22.984  0.00  0.00    -0.286 OA
ATOM     23  C   UNL d   1      32.710  18.325 -23.913  0.00  0.00     0.103 A 
ATOM     24  C   UNL d   1      33.066  19.042 -24.034  0.00  0.00     0.011 A 
ATOM     25  C   UNL d   1      33.206  19.526 -23.360  0.00  0.00     0.020 A 
BRANCH  23  26
ATOM     26  C   UNL d   1      32.572  17.847 -24.580  0.00  0.00     0.214 C 
ATOM     27  O   UNL d   1      31.877  17.963 -25.051  0.00  0.00    -0.644 OA
ATOM     28  O   UNL d   1      33.094  17.254 -24.804  0.00  0.00    -0.644 OA
ENDBRANCH  23  26
ENDBRANCH  17  19
ENDBRANCH  15  16
ENDBRANCH   1  15
TORSDOF 7
ENDMDL
MODEL 2
REMARK VINA RESULT:      -2.6      1.972      6.321
REMARK  7 active torsions:
REMARK  status: ('A' for Active; 'I' for Inactive)
REMARK    1  A    between atoms: C_8  and  N_1 
REMARK    2  A    between atoms: C_7  and  C_3 
REMARK    3  A    between atoms: C_10  and  C_6 
REMARK    4  A    between atoms: C_11  and  C_7 
REMARK    5  A    between atoms: C_14  and  C_8 
REMARK    6  A    between atoms: C_12  and  C_14 
REMARK       I    between atoms: N_17  and  C_12 
REMARK    7  A    between atoms: C_20  and  N_17 
ROOT
ATOM      1  C   UNL d   1      32.587  19.917 -23.158  0.00  0.00     0.089 C 
ENDROOT
BRANCH   1   2
ATOM      2  N   UNL d   1      32.613  19.172 -23.509  0.00  0.00    -0.259 N 
ATOM      3  C   UNL d   1      32.621  18.986 -24.326  0.00  0.00     0.153 A 
ATOM      4  S   UNL d   1      32.649  18.157 -24.414  0.00  0.00    -0.053 SA
ATOM      5  S   UNL d   1      32.604  19.548 -24.947  0.00  0.00    -0.052 SA
ATOM      6  C   UNL d   1      32.659  17.817 -23.648  0.00  0.00     0.090 A 
ATOM      7  C   UNL d   1      32.637  18.434 -23.102  0.00  0.00     0.272 A 
ATOM      8  O   UNL d   1      32.638  18.329 -22.257  0.00  0.00    -0.266 OA
BRANCH   6   9
ATOM      9  C   UNL d   1      32.685  17.008 -23.492  0.00  0.00     0.036 C 
BRANCH   9  10
ATOM     10  C   UNL d   1      32.038  16.535 -23.725  0.00  0.00     0.101 A 
ATOM     11  O   UNL d   1      31.234  16.561 -23.521  0.00  0.00    -0.305 OA
ATOM     12  C   UNL d   1      30.866  15.929 -23.947  0.00  0.00     0.123 A 
ATOM     13  C   UNL d   1      31.416  15.559 -24.371  0.00  0.00     0.029 A 
ATOM     14  C   UNL d   1      32.150  15.910 -24.255  0.00  0.00     0.027 A 
ENDBRANCH   9  10
ENDBRANCH   6   9
ENDBRANCH   1   2
BRANCH   1  15
ATOM     15  C   UNL d   1      33.228  20.194 -22.669  0.00  0.00     0.082 C 
BRANCH  15  16
ATOM     16  C   UNL d   1      33.120  20.849 -22.187  0.00  0.00     0.281 C 
ATOM     17  N   UNL d   1      32.891  20.743 -21.400  0.00  0.00    -0.208 NA
ATOM     18  O   UNL d   1      33.241  21.606 -22.495  0.00  0.00    -0.265 OA
BRANCH  17  19
ATOM     19  C   UNL d   1      32.782  21.401 -20.916  0.00  0.00     0.088 A 
ATOM     20  C   UNL d   1      32.227  21.958 -21.118  0.00  0.00     0.061 A 
ATOM     21  C   UNL d   1      32.102  22.614 -20.657  0.00  0.00     0.203 A 
ATOM     22  O   UNL d   1      31.521  23.184 -20.882  0.00  0.00    -0.286 OA
ATOM     23  C   UNL d   1      32.585  22.692 -19.944  0.00  0.00     0.103 A 
ATOM     24  C   UNL d   1      33.139  22.138 -19.741  0.00  0.00     0.011 A 
ATOM     25  C   UNL d   1      33.232  21.475 -20.250  0.00  0.00     0.020 A 
BRANCH  23  26
ATOM     26  C   UNL d   1      32.493  23.348 -19.440  0.00  0.00     0.214 C 
ATOM     27  O   UNL d   1      33.169  23.702 -19.074  0.00  0.00    -0.644 OA
ATOM     28  O   UNL d   1      31.755  23.673 -19.282  0.00  0.00    -0.644 OA
ENDBRANCH  23  26
ENDBRANCH  17  19
ENDBRANCH  15  16
ENDBRANCH   1  15
TORSDOF 7
ENDMDL
MODEL 3
REMARK VINA RESULT:      -2.5      1.924      2.729
REMARK  7 active torsions:
REMARK  status: ('A' for Active; 'I' for Inactive)
REMARK    1  A    between atoms: C_8  and  N_1 
REMARK    2  A    between atoms: C_7  and  C_3 
REMARK    3  A    between atoms: C_10  and  C_6 
REMARK    4  A    between atoms: C_11  and  C_7 
REMARK    5  A    between atoms: C_14  and  C_8 
REMARK    6  A    between atoms: C_12  and  C_14 
REMARK       I    between atoms: N_17  and  C_12 
REMARK    7  A    between atoms: C_20  and  N_17 
ROOT
ATOM      1  C   UNL d   1      33.219  20.131 -23.188  0.00  0.00     0.089 C 
ENDROOT
BRANCH   1   2
ATOM      2  N   UNL d   1      33.225  20.912 -22.923  0.00  0.00    -0.259 N 
ATOM      3  C   UNL d   1      33.229  21.612 -23.381  0.00  0.00     0.153 A 
ATOM      4  S   UNL d   1      33.235  22.270 -22.869  0.00  0.00    -0.053 SA
ATOM      5  S   UNL d   1      33.229  21.639 -24.219  0.00  0.00    -0.052 SA
ATOM      6  C   UNL d   1      33.234  21.983 -22.082  0.00  0.00     0.090 A 
ATOM      7  C   UNL d   1      33.228  21.160 -22.118  0.00  0.00     0.272 A 
ATOM      8  O   UNL d   1      33.225  20.649 -21.436  0.00  0.00    -0.266 OA
BRANCH   6   9
ATOM      9  C   UNL d   1      33.238  22.458 -21.408  0.00  0.00     0.036 C 
BRANCH   9  10
ATOM     10  C   UNL d   1      32.556  22.905 -21.230  0.00  0.00     0.101 A 
ATOM     11  O   UNL d   1      31.903  23.122 -21.695  0.00  0.00    -0.305 OA
ATOM     12  C   UNL d   1      31.400  23.577 -21.188  0.00  0.00     0.123 A 
ATOM     13  C   UNL d   1      31.734  23.623 -20.478  0.00  0.00     0.029 A 
ATOM     14  C   UNL d   1      32.450  23.217 -20.473  0.00  0.00     0.027 A 
ENDBRANCH   9  10
ENDBRANCH   6   9
ENDBRANCH   1   2
BRANCH   1  15
ATOM     15  C   UNL d   1      32.805  19.524 -22.755  0.00  0.00     0.082 C 
BRANCH  15  16
ATOM     16  C   UNL d   1      32.552  18.847 -23.143  0.00  0.00     0.281 C 
ATOM     17  N   UNL d   1      31.847  18.483 -22.911  0.00  0.00    -0.208 NA
ATOM     18  O   UNL d   1      33.005  18.538 -23.762  0.00  0.00    -0.265 OA
BRANCH  17  19
ATOM     19  C   UNL d   1      31.592  17.804 -23.301  0.00  0.00     0.088 A 
ATOM     20  C   UNL d   1      31.832  17.075 -23.033  0.00  0.00     0.061 A 
ATOM     21  C   UNL d   1      31.595  16.392 -23.401  0.00  0.00     0.203 A 
ATOM     22  O   UNL d   1      31.854  15.643 -23.109  0.00  0.00    -0.286 OA
ATOM     23  C   UNL d   1      31.077  16.475 -24.088  0.00  0.00     0.103 A 
ATOM     24  C   UNL d   1      30.836  17.199 -24.357  0.00  0.00     0.011 A 
ATOM     25  C   UNL d   1      31.109  17.879 -23.943  0.00  0.00     0.020 A 
BRANCH  23  26
ATOM     26  C   UNL d   1      30.807  15.802 -24.498  0.00  0.00     0.214 C 
ATOM     27  O   UNL d   1      30.058  15.458 -24.306  0.00  0.00    -0.644 OA
ATOM     28  O   UNL d   1      31.250  15.453 -25.095  0.00  0.00    -0.644 OA
ENDBRANCH  23  26
ENDBRANCH  17  19
ENDBRANCH  15  16
ENDBRANCH   1  15
TORSDOF 7
ENDMDL
MODEL 4
REMARK VINA RESULT:       0.1      3.096      6.525
REMARK  7 active torsions:
REMARK  status: ('A' for Active; 'I' for Inactive)
REMARK    1  A    between atoms: C_8  and  N_1 
REMARK    2  A    between atoms: C_7  and  C_3 
REMARK    3  A    between atoms: C_10  and  C_6 
REMARK    4  A    between atoms: C_11  and  C_7 
REMARK    5  A    between atoms: C_14  and  C_8 
REMARK    6  A    between atoms: C_12  and  C_14 
REMARK       I    between atoms: N_17  and  C_12 
REMARK    7  A    between atoms: C_20  and  N_17 
ROOT
ATOM      1  C   UNL d   1      32.508  17.894 -22.877  0.00  0.00     0.089 C 
ENDROOT
BRANCH   1   2
ATOM      2  N   UNL d   1      32.201  17.505 -23.535  0.00  0.00    -0.259 N 
ATOM      3  C   UNL d   1      32.523  16.851 -23.946  0.00  0.00     0.153 A 
ATOM      4  S   UNL d   1      32.015  16.650 -24.576  0.00  0.00    -0.053 SA
ATOM      5  S   UNL d   1      33.241  16.465 -23.749  0.00  0.00    -0.052 SA
ATOM      6  C   UNL d   1      31.368  17.182 -24.563  0.00  0.00     0.090 A 
ATOM      7  C   UNL d   1      31.482  17.698 -23.932  0.00  0.00     0.272 A 
ATOM      8  O   UNL d   1      30.949  18.328 -23.722  0.00  0.00    -0.266 OA
BRANCH   6   9
ATOM      9  C   UNL d   1      30.739  17.171 -25.097  0.00  0.00     0.036 C 
BRANCH   9  10
ATOM     10  C   UNL d   1      30.051  16.744 -24.894  0.00  0.00     0.101 A 
ATOM     11  O   UNL d   1      29.927  15.938 -24.742  0.00  0.00    -0.305 OA
ATOM     12  C   UNL d   1      29.103  15.858 -24.568  0.00  0.00     0.123 A 
ATOM     13  C   UNL d   1      28.767  16.568 -24.615  0.00  0.00     0.029 A 
ATOM     14  C   UNL d   1      29.328  17.136 -24.815  0.00  0.00     0.027 A 
ENDBRANCH   9  10
ENDBRANCH   6   9
ENDBRANCH   1   2
BRANCH   1  15
ATOM     15  C   UNL d   1      33.203  18.385 -22.941  0.00  0.00     0.082 C 
BRANCH  15  16
ATOM     16  C   UNL d   1      33.194  19.145 -22.633  0.00  0.00     0.281 C 
ATOM     17  N   UNL d   1      33.233  19.793 -23.145  0.00  0.00    -0.208 NA
ATOM     18  O   UNL d   1      33.147  19.253 -21.815  0.00  0.00    -0.265 OA
BRANCH  17  19
ATOM     19  C   UNL d   1      33.225  20.556 -22.835  0.00  0.00     0.088 A 
ATOM     20  C   UNL d   1      33.201  21.192 -23.340  0.00  0.00     0.061 A 
ATOM     21  C   UNL d   1      33.193  21.953 -23.058  0.00  0.00     0.203 A 
ATOM     22  O   UNL d   1      33.168  22.603 -23.597  0.00  0.00    -0.286 OA
ATOM     23  C   UNL d   1      33.209  22.056 -22.200  0.00  0.00     0.103 A 
ATOM     24  C   UNL d   1      33.232  21.424 -21.695  0.00  0.00     0.011 A 
ATOM     25  C   UNL d   1      33.240  20.654 -22.034  0.00  0.00     0.020 A 
BRANCH  23  26
ATOM     26  C   UNL d   1      33.201  22.817 -21.864  0.00  0.00     0.214 C 
ATOM     27  O   UNL d   1      33.214  22.912 -21.023  0.00  0.00    -0.644 OA
ATOM     28  O   UNL d   1      33.181  23.495 -22.328  0.00  0.00    -0.644 OA
ENDBRANCH  23  26
ENDBRANCH  17  19
ENDBRANCH  15  16
ENDBRANCH   1  15
TORSDOF 7
ENDMDL
