MODEL 1
REMARK VINA RESULT:      -6.8      0.000      0.000
REMARK  5 active torsions:
REMARK  status: ('A' for Active; 'I' for Inactive)
REMARK    1  A    between atoms: C_10  and  C_3 
REMARK    2  A    between atoms: N_12  and  C_4 
REMARK    3  A    between atoms: N_11  and  C_21 
REMARK    4  A    between atoms: C_20  and  N_12 
REMARK    5  A    between atoms: C_21  and  C_20 
ROOT
ATOM      1  C   UNL d   1      52.337  34.087  53.697  0.00  0.00     0.168 A 
ATOM      2  N   UNL d   1      51.598  34.391  53.404  0.00  0.00    -0.184 N 
ATOM      3  C   UNL d   1      52.829  34.562  54.133  0.00  0.00     0.057 A 
ATOM      4  C   UNL d   1      51.122  33.903  52.972  0.00  0.00     0.218 A 
ATOM      5  N   UNL d   1      51.891  35.646  54.007  0.00  0.00    -0.160 NA
ATOM      6  N   UNL d   1      52.550  33.314  53.540  0.00  0.00    -0.227 NA
ATOM      7  C   UNL d   1      51.327  33.122  52.807  0.00  0.00     0.071 A 
ATOM      8  C   UNL d   1      52.607  35.351  54.292  0.00  0.00     0.124 A 
ATOM      9  C   UNL d   1      52.055  32.822  53.096  0.00  0.00     0.087 A 
ATOM     10  C   UNL d   1      52.278  32.009  52.930  0.00  0.00     0.021 C 
ENDROOT
BRANCH   4  11
ATOM     11  N   UNL d   1      50.375  34.207  52.674  0.00  0.00    -0.379 NA
BRANCH  11  12
ATOM     12  C   UNL d   1      49.552  34.414  52.558  0.00  0.00     0.182 C 
BRANCH  12  13
ATOM     13  C   UNL d   1      49.338  34.874  51.891  0.00  0.00     0.116 C 
BRANCH  13  14
ATOM     14  N   UNL d   1      48.535  35.188  51.832  0.00  0.00    -0.297 N 
ATOM     15  C   UNL d   1      48.042  34.963  51.184  0.00  0.00     0.107 A 
ATOM     16  C   UNL d   1      47.233  35.278  51.122  0.00  0.00     0.142 A 
ATOM     17  O   UNL d   1      46.937  35.805  51.700  0.00  0.00    -0.300 OA
ATOM     18  C   UNL d   1      47.433  36.044  52.370  0.00  0.00     0.142 A 
ATOM     19  C   UNL d   1      48.238  35.733  52.437  0.00  0.00     0.107 A 
ENDBRANCH  13  14
ENDBRANCH  12  13
ENDBRANCH  11  12
ENDBRANCH   4  11
BRANCH   3  20
ATOM     20  C   UNL d   1      53.545  34.267  54.417  0.00  0.00     0.005 A 
ATOM     21  C   UNL d   1      54.216  34.319  53.958  0.00  0.00     0.001 A 
ATOM     22  C   UNL d   1      54.920  34.028  54.238  0.00  0.00     0.011 A 
ATOM     23  C   UNL d   1      54.965  33.682  54.982  0.00  0.00     0.058 A 
ATOM     24  C   UNL d   1      54.293  33.631  55.441  0.00  0.00     0.011 A 
ATOM     25 CL   UNL d   1      55.715  33.372  55.280  0.00  0.00    -0.082 Cl
ATOM     26  C   UNL d   1      53.577  33.926  55.157  0.00  0.00     0.001 A 
ENDBRANCH   3  20
TORSDOF 5
ENDMDL
MODEL 2
REMARK VINA RESULT:      -6.2      0.802      1.650
REMARK  5 active torsions:
REMARK  status: ('A' for Active; 'I' for Inactive)
REMARK    1  A    between atoms: C_10  and  C_3 
REMARK    2  A    between atoms: N_12  and  C_4 
REMARK    3  A    between atoms: N_11  and  C_21 
REMARK    4  A    between atoms: C_20  and  N_12 
REMARK    5  A    between atoms: C_21  and  C_20 
ROOT
ATOM      1  C   UNL d   1      52.562  33.583  53.445  0.00  0.00     0.168 A 
ATOM      2  N   UNL d   1      51.852  33.468  52.991  0.00  0.00    -0.184 N 
ATOM      3  C   UNL d   1      53.096  32.977  53.527  0.00  0.00     0.057 A 
ATOM      4  C   UNL d   1      51.333  34.082  52.920  0.00  0.00     0.218 A 
ATOM      5  N   UNL d   1      52.255  32.130  52.724  0.00  0.00    -0.160 NA
ATOM      6  N   UNL d   1      52.707  34.305  53.799  0.00  0.00    -0.227 NA
ATOM      7  C   UNL d   1      51.469  34.815  53.273  0.00  0.00     0.071 A 
ATOM      8  C   UNL d   1      52.944  32.241  53.164  0.00  0.00     0.124 A 
ATOM      9  C   UNL d   1      52.169  34.928  53.720  0.00  0.00     0.087 A 
ATOM     10  C   UNL d   1      52.320  35.688  54.092  0.00  0.00     0.021 C 
ENDROOT
BRANCH   4  11
ATOM     11  N   UNL d   1      50.614  33.970  52.462  0.00  0.00    -0.379 NA
BRANCH  11  12
ATOM     12  C   UNL d   1      49.817  34.000  52.152  0.00  0.00     0.182 C 
BRANCH  12  13
ATOM     13  C   UNL d   1      49.632  34.560  51.558  0.00  0.00     0.116 C 
BRANCH  13  14
ATOM     14  N   UNL d   1      48.814  34.820  51.458  0.00  0.00    -0.297 N 
ATOM     15  C   UNL d   1      48.458  35.323  52.036  0.00  0.00     0.107 A 
ATOM     16  C   UNL d   1      47.635  35.586  51.938  0.00  0.00     0.142 A 
ATOM     17  O   UNL d   1      47.188  35.345  51.273  0.00  0.00    -0.300 OA
ATOM     18  C   UNL d   1      47.541  34.829  50.672  0.00  0.00     0.142 A 
ATOM     19  C   UNL d   1      48.360  34.564  50.765  0.00  0.00     0.107 A 
ENDBRANCH  13  14
ENDBRANCH  12  13
ENDBRANCH  11  12
ENDBRANCH   4  11
BRANCH   3  20
ATOM     20  C   UNL d   1      53.784  33.088  53.968  0.00  0.00     0.005 A 
ATOM     21  C   UNL d   1      54.464  33.347  53.599  0.00  0.00     0.001 A 
ATOM     22  C   UNL d   1      55.141  33.456  54.033  0.00  0.00     0.011 A 
ATOM     23  C   UNL d   1      55.150  33.310  54.841  0.00  0.00     0.058 A 
ATOM     24  C   UNL d   1      54.470  33.051  55.209  0.00  0.00     0.011 A 
ATOM     25 CL   UNL d   1      55.872  33.426  55.303  0.00  0.00    -0.082 Cl
ATOM     26  C   UNL d   1      53.781  32.940  54.769  0.00  0.00     0.001 A 
ENDBRANCH   3  20
TORSDOF 5
ENDMDL
MODEL 3
REMARK VINA RESULT:      -6.1      2.959      6.176
REMARK  5 active torsions:
REMARK  status: ('A' for Active; 'I' for Inactive)
REMARK    1  A    between atoms: C_10  and  C_3 
REMARK    2  A    between atoms: N_12  and  C_4 
REMARK    3  A    between atoms: N_11  and  C_21 
REMARK    4  A    between atoms: C_20  and  N_12 
REMARK    5  A    between atoms: C_21  and  C_20 
ROOT
ATOM      1  C   UNL d   1      48.428  35.359  52.563  0.00  0.00     0.168 A 
ATOM      2  N   UNL d   1      49.183  35.210  52.928  0.00  0.00    -0.184 N 
ATOM      3  C   UNL d   1      47.878  35.821  52.941  0.00  0.00     0.057 A 
ATOM      4  C   UNL d   1      49.717  34.747  52.537  0.00  0.00     0.218 A 
ATOM      5  N   UNL d   1      48.788  36.004  54.040  0.00  0.00    -0.160 NA
ATOM      6  N   UNL d   1      48.258  35.036  51.833  0.00  0.00    -0.227 NA
ATOM      7  C   UNL d   1      49.556  34.417  51.800  0.00  0.00     0.071 A 
ATOM      8  C   UNL d   1      48.056  36.149  53.687  0.00  0.00     0.124 A 
ATOM      9  C   UNL d   1      48.813  34.564  51.441  0.00  0.00     0.087 A 
ATOM     10  C   UNL d   1      48.634  34.224  50.672  0.00  0.00     0.021 C 
ENDROOT
BRANCH   4  11
ATOM     11  N   UNL d   1      50.481  34.594  52.902  0.00  0.00    -0.379 NA
BRANCH  11  12
ATOM     12  C   UNL d   1      51.188  34.233  53.223  0.00  0.00     0.182 C 
BRANCH  12  13
ATOM     13  C   UNL d   1      51.910  34.656  53.195  0.00  0.00     0.116 C 
BRANCH  13  14
ATOM     14  N   UNL d   1      52.603  34.342  53.602  0.00  0.00    -0.297 N 
ATOM     15  C   UNL d   1      52.959  33.624  53.335  0.00  0.00     0.107 A 
ATOM     16  C   UNL d   1      53.658  33.305  53.744  0.00  0.00     0.142 A 
ATOM     17  O   UNL d   1      53.983  33.704  54.403  0.00  0.00    -0.300 OA
ATOM     18  C   UNL d   1      53.628  34.442  54.688  0.00  0.00     0.142 A 
ATOM     19  C   UNL d   1      52.932  34.763  54.285  0.00  0.00     0.107 A 
ENDBRANCH  13  14
ENDBRANCH  12  13
ENDBRANCH  11  12
ENDBRANCH   4  11
BRANCH   3  20
ATOM     20  C   UNL d   1      47.147  35.966  52.588  0.00  0.00     0.005 A 
ATOM     21  C   UNL d   1      46.503  35.509  52.788  0.00  0.00     0.001 A 
ATOM     22  C   UNL d   1      45.783  35.652  52.441  0.00  0.00     0.011 A 
ATOM     23  C   UNL d   1      45.697  36.253  51.887  0.00  0.00     0.058 A 
ATOM     24  C   UNL d   1      46.342  36.709  51.687  0.00  0.00     0.011 A 
ATOM     25 CL   UNL d   1      44.930  36.405  51.517  0.00  0.00    -0.082 Cl
ATOM     26  C   UNL d   1      47.073  36.565  52.040  0.00  0.00     0.001 A 
ENDBRANCH   3  20
TORSDOF 5
ENDMDL
MODEL 4
REMARK VINA RESULT:      -5.5      3.047      6.505
REMARK  5 active torsions:
REMARK  status: ('A' for Active; 'I' for Inactive)
REMARK    1  A    between atoms: C_10  and  C_3 
REMARK    2  A    between atoms: N_12  and  C_4 
REMARK    3  A    between atoms: N_11  and  C_21 
REMARK    4  A    between atoms: C_20  and  N_12 
REMARK    5  A    between atoms: C_21  and  C_20 
ROOT
ATOM      1  C   UNL d   1      47.891  35.417  52.320  0.00  0.00     0.168 A 
ATOM      2  N   UNL d   1      48.677  35.090  52.309  0.00  0.00    -0.184 N 
ATOM      3  C   UNL d   1      47.391  35.298  51.692  0.00  0.00     0.057 A 
ATOM      4  C   UNL d   1      49.160  35.219  52.942  0.00  0.00     0.218 A 
ATOM      5  N   UNL d   1      48.413  34.536  51.025  0.00  0.00    -0.160 NA
ATOM      6  N   UNL d   1      47.641  35.852  52.965  0.00  0.00    -0.227 NA
ATOM      7  C   UNL d   1      48.917  35.656  53.598  0.00  0.00     0.071 A 
ATOM      8  C   UNL d   1      47.651  34.853  51.036  0.00  0.00     0.124 A 
ATOM      9  C   UNL d   1      48.144  35.978  53.609  0.00  0.00     0.087 A 
ATOM     10  C   UNL d   1      47.880  36.436  54.288  0.00  0.00     0.021 C 
ENDROOT
BRANCH   4  11
ATOM     11  N   UNL d   1      49.954  34.890  52.934  0.00  0.00    -0.379 NA
BRANCH  11  12
ATOM     12  C   UNL d   1      50.756  34.656  53.125  0.00  0.00     0.182 C 
BRANCH  12  13
ATOM     13  C   UNL d   1      51.153  34.118  52.621  0.00  0.00     0.116 C 
BRANCH  13  14
ATOM     14  N   UNL d   1      51.892  33.756  52.884  0.00  0.00    -0.297 N 
ATOM     15  C   UNL d   1      51.962  32.915  52.913  0.00  0.00     0.107 A 
ATOM     16  C   UNL d   1      52.705  32.548  53.177  0.00  0.00     0.142 A 
ATOM     17  O   UNL d   1      53.356  33.021  53.405  0.00  0.00    -0.300 OA
ATOM     18  C   UNL d   1      53.297  33.886  53.380  0.00  0.00     0.142 A 
ATOM     19  C   UNL d   1      52.560  34.257  53.118  0.00  0.00     0.107 A 
ENDBRANCH  13  14
ENDBRANCH  12  13
ENDBRANCH  11  12
ENDBRANCH   4  11
BRANCH   3  20
ATOM     20  C   UNL d   1      46.630  35.615  51.703  0.00  0.00     0.005 A 
ATOM     21  C   UNL d   1      46.496  36.359  51.397  0.00  0.00     0.001 A 
ATOM     22  C   UNL d   1      45.747  36.671  51.408  0.00  0.00     0.011 A 
ATOM     23  C   UNL d   1      45.120  36.244  51.725  0.00  0.00     0.058 A 
ATOM     24  C   UNL d   1      45.254  35.500  52.031  0.00  0.00     0.011 A 
ATOM     25 CL   UNL d   1      44.321  36.577  51.737  0.00  0.00    -0.082 Cl
ATOM     26  C   UNL d   1      46.016  35.183  52.020  0.00  0.00     0.001 A 
ENDBRANCH   3  20
TORSDOF 5
ENDMDL
MODEL 5
REMARK VINA RESULT:      -5.1     11.010     12.100
REMARK  5 active torsions:
REMARK  status: ('A' for Active; 'I' for Inactive)
REMARK    1  A    between atoms: C_10  and  C_3 
REMARK    2  A    between atoms: N_12  and  C_4 
REMARK    3  A    between atoms: N_11  and  C_21 
REMARK    4  A    between atoms: C_20  and  N_12 
REMARK    5  A    between atoms: C_21  and  C_20 
ROOT
ATOM      1  C   UNL d   1      44.785  27.942  58.307  0.00  0.00     0.168 A 
ATOM      2  N   UNL d   1      44.807  27.107  58.141  0.00  0.00    -0.184 N 
ATOM      3  C   UNL d   1      44.923  28.478  57.714  0.00  0.00     0.057 A 
ATOM      4  C   UNL d   1      44.667  26.588  58.744  0.00  0.00     0.218 A 
ATOM      5  N   UNL d   1      45.108  27.399  56.781  0.00  0.00    -0.160 NA
ATOM      6  N   UNL d   1      44.625  28.202  59.064  0.00  0.00    -0.227 NA
ATOM      7  C   UNL d   1      44.505  26.840  59.511  0.00  0.00     0.071 A 
ATOM      8  C   UNL d   1      45.087  28.208  56.942  0.00  0.00     0.124 A 
ATOM      9  C   UNL d   1      44.483  27.662  59.675  0.00  0.00     0.087 A 
ATOM     10  C   UNL d   1      44.314  27.936  60.472  0.00  0.00     0.021 C 
ENDROOT
BRANCH   4  11
ATOM     11  N   UNL d   1      44.688  25.744  58.580  0.00  0.00    -0.379 NA
BRANCH  11  12
ATOM     12  C   UNL d   1      44.918  24.948  58.364  0.00  0.00     0.182 C 
BRANCH  12  13
ATOM     13  C   UNL d   1      44.370  24.324  58.468  0.00  0.00     0.116 C 
BRANCH  13  14
ATOM     14  N   UNL d   1      44.613  23.512  58.301  0.00  0.00    -0.297 N 
ATOM     15  C   UNL d   1      44.720  22.965  58.936  0.00  0.00     0.107 A 
ATOM     16  C   UNL d   1      44.965  22.147  58.770  0.00  0.00     0.142 A 
ATOM     17  O   UNL d   1      45.097  21.894  57.984  0.00  0.00    -0.300 OA
ATOM     18  C   UNL d   1      44.991  22.445  57.323  0.00  0.00     0.142 A 
ATOM     19  C   UNL d   1      44.747  23.261  57.482  0.00  0.00     0.107 A 
ENDBRANCH  13  14
ENDBRANCH  12  13
ENDBRANCH  11  12
ENDBRANCH   4  11
BRANCH   3  20
ATOM     20  C   UNL d   1      44.902  29.287  57.875  0.00  0.00     0.005 A 
ATOM     21  C   UNL d   1      45.447  29.613  58.387  0.00  0.00     0.001 A 
ATOM     22  C   UNL d   1      45.426  30.409  58.545  0.00  0.00     0.011 A 
ATOM     23  C   UNL d   1      44.860  30.891  58.194  0.00  0.00     0.058 A 
ATOM     24  C   UNL d   1      44.316  30.565  57.682  0.00  0.00     0.011 A 
ATOM     25 CL   UNL d   1      44.838  31.739  58.363  0.00  0.00    -0.082 Cl
ATOM     26  C   UNL d   1      44.337  29.756  57.522  0.00  0.00     0.001 A 
ENDBRANCH   3  20
TORSDOF 5
ENDMDL
