MODEL 1
REMARK VINA RESULT:      -4.7      0.000      0.000
REMARK  3 active torsions:
REMARK  status: ('A' for Active; 'I' for Inactive)
REMARK    1  A    between atoms: C_8  and  C_6 
REMARK    2  A    between atoms: C_9  and  C_8 
REMARK       I    between atoms: N_10  and  C_9 
REMARK    3  A    between atoms: C_14  and  N_10 
ROOT
ATOM      1  N   UNL d   1      57.866   0.539  32.445  0.00  0.00    -0.207 NA
ATOM      2  N   UNL d   1      57.208  -0.647  31.459  0.00  0.00    -0.240 NA
ATOM      3  C   UNL d   1      58.053   0.286  31.693  0.00  0.00     0.297 A 
ATOM      4  C   UNL d   1      57.273   0.269  32.957  0.00  0.00     0.086 A 
ATOM      5  C   UNL d   1      56.718  -0.739  32.110  0.00  0.00     0.083 A 
ATOM      6  C   UNL d   1      57.828  -0.116  31.362  0.00  0.00     0.144 A 
ATOM      7  C   UNL d   1      56.721  -0.329  32.824  0.00  0.00     0.035 A 
ATOM      8  O   UNL d   1      58.684   0.682  31.340  0.00  0.00    -0.264 OA
ATOM      9  C   UNL d   1      56.169  -0.518  33.410  0.00  0.00     0.003 A 
ATOM     10  C   UNL d   1      56.169  -1.337  31.974  0.00  0.00     0.019 A 
ATOM     11  C   UNL d   1      57.272   0.681  33.681  0.00  0.00     0.019 A 
ATOM     12  C   UNL d   1      55.611  -1.528  32.564  0.00  0.00     0.002 A 
ATOM     13  C   UNL d   1      56.719   0.489  34.263  0.00  0.00     0.002 A 
ATOM     14  C   UNL d   1      55.612  -1.118  33.282  0.00  0.00     0.000 A 
ATOM     15  C   UNL d   1      56.171  -0.105  34.129  0.00  0.00     0.000 A 
ENDROOT
BRANCH   6  16
ATOM     16  C   UNL d   1      58.204  -0.176  30.632  0.00  0.00     0.086 C 
BRANCH  16  17
ATOM     17  C   UNL d   1      57.839   0.147  29.963  0.00  0.00     0.281 C 
ATOM     18  N   UNL d   1      58.106  -0.069  29.213  0.00  0.00    -0.208 NA
ATOM     19  O   UNL d   1      57.211   0.681  30.040  0.00  0.00    -0.265 OA
BRANCH  18  20
ATOM     20  C   UNL d   1      58.732  -0.602  29.122  0.00  0.00     0.085 A 
ATOM     21  C   UNL d   1      59.504  -0.337  29.106  0.00  0.00     0.019 A 
ATOM     22  C   UNL d   1      60.122  -0.868  29.016  0.00  0.00     0.002 A 
ATOM     23  C   UNL d   1      59.967  -1.678  28.941  0.00  0.00     0.000 A 
ATOM     24  C   UNL d   1      59.176  -1.942  28.959  0.00  0.00     0.002 A 
ATOM     25  C   UNL d   1      58.568  -1.402  29.049  0.00  0.00     0.019 A 
ENDBRANCH  18  20
ENDBRANCH  16  17
ENDBRANCH   6  16
TORSDOF 3
ENDMDL
MODEL 2
REMARK VINA RESULT:      -3.8      0.962      4.526
REMARK  3 active torsions:
REMARK  status: ('A' for Active; 'I' for Inactive)
REMARK    1  A    between atoms: C_8  and  C_6 
REMARK    2  A    between atoms: C_9  and  C_8 
REMARK       I    between atoms: N_10  and  C_9 
REMARK    3  A    between atoms: C_14  and  N_10 
ROOT
ATOM      1  N   UNL d   1      58.162  -1.683  29.906  0.00  0.00    -0.207 NA
ATOM      2  N   UNL d   1      58.536  -0.151  30.474  0.00  0.00    -0.240 NA
ATOM      3  C   UNL d   1      57.793  -1.193  30.442  0.00  0.00     0.297 A 
ATOM      4  C   UNL d   1      58.856  -1.558  29.470  0.00  0.00     0.086 A 
ATOM      5  C   UNL d   1      59.167  -0.251  29.960  0.00  0.00     0.083 A 
ATOM      6  C   UNL d   1      57.923  -0.675  30.632  0.00  0.00     0.144 A 
ATOM      7  C   UNL d   1      59.346  -0.894  29.477  0.00  0.00     0.035 A 
ATOM      8  O   UNL d   1      57.104  -1.498  30.776  0.00  0.00    -0.264 OA
ATOM      9  C   UNL d   1      60.019  -0.874  28.999  0.00  0.00     0.003 A 
ATOM     10  C   UNL d   1      59.654   0.412  29.970  0.00  0.00     0.019 A 
ATOM     11  C   UNL d   1      59.041  -2.204  28.981  0.00  0.00     0.019 A 
ATOM     12  C   UNL d   1      60.334   0.433  29.486  0.00  0.00     0.002 A 
ATOM     13  C   UNL d   1      59.715  -2.181  28.504  0.00  0.00     0.002 A 
ATOM     14  C   UNL d   1      60.516  -0.211  29.001  0.00  0.00     0.000 A 
ATOM     15  C   UNL d   1      60.201  -1.521  28.512  0.00  0.00     0.000 A 
ENDROOT
BRANCH   6  16
ATOM     16  C   UNL d   1      57.380  -0.391  31.182  0.00  0.00     0.086 C 
BRANCH  16  17
ATOM     17  C   UNL d   1      56.953   0.297  31.009  0.00  0.00     0.281 C 
ATOM     18  N   UNL d   1      56.544   0.682  31.614  0.00  0.00    -0.208 NA
ATOM     19  O   UNL d   1      56.933   0.600  30.239  0.00  0.00    -0.265 OA
BRANCH  18  20
ATOM     20  C   UNL d   1      56.556   0.390  32.387  0.00  0.00     0.085 A 
ATOM     21  C   UNL d   1      57.121   0.644  32.920  0.00  0.00     0.019 A 
ATOM     22  C   UNL d   1      57.129   0.352  33.686  0.00  0.00     0.002 A 
ATOM     23  C   UNL d   1      56.564  -0.204  33.925  0.00  0.00     0.000 A 
ATOM     24  C   UNL d   1      55.990  -0.460  33.377  0.00  0.00     0.002 A 
ATOM     25  C   UNL d   1      55.992  -0.161  32.615  0.00  0.00     0.019 A 
ENDBRANCH  18  20
ENDBRANCH  16  17
ENDBRANCH   6  16
TORSDOF 3
ENDMDL
