MODEL 1
REMARK VINA RESULT:      15.7      0.000      0.000
REMARK  3 active torsions:
REMARK  status: ('A' for Active; 'I' for Inactive)
REMARK    1  A    between atoms: C_2  and  C_4 
REMARK    2  A    between atoms: N_3  and  C_2 
REMARK    3  A    between atoms: C_5  and  N_3 
ROOT
ATOM      1  N   UNL d   1      46.234 -17.753  43.439  0.00  0.00    -0.243 NA
ATOM      2  C   UNL d   1      46.061 -17.329  44.139  0.00  0.00     0.109 A 
ATOM      3  C   UNL d   1      46.348 -18.569  43.470  0.00  0.00     0.081 A 
ATOM      4  C   UNL d   1      46.007 -17.729  44.858  0.00  0.00     0.021 A 
ATOM      5  C   UNL d   1      46.292 -18.967  44.199  0.00  0.00     0.018 A 
ATOM      6  C   UNL d   1      46.122 -18.548  44.891  0.00  0.00     0.003 A 
ATOM      7  C   UNL d   1      46.518 -18.993  42.785  0.00  0.00     0.019 A 
ATOM      8  C   UNL d   1      46.407 -19.781  44.227  0.00  0.00     0.002 A 
ATOM      9  C   UNL d   1      46.631 -19.801  42.821  0.00  0.00     0.002 A 
ATOM     10  C   UNL d   1      46.576 -20.196  43.542  0.00  0.00     0.000 A 
ENDROOT
BRANCH   2  11
ATOM     11  C   UNL d   1      45.946 -16.510  44.106  0.00  0.00     0.153 C 
ATOM     12  S   UNL d   1      46.259 -16.072  43.478  0.00  0.00    -0.056 SA
BRANCH  11  13
ATOM     13  N   UNL d   1      45.519 -16.132  44.701  0.00  0.00    -0.233 NA
BRANCH  13  14
ATOM     14  C   UNL d   1      45.528 -15.309  44.754  0.00  0.00     0.082 A 
ATOM     15  C   UNL d   1      44.819 -14.895  44.882  0.00  0.00     0.018 A 
ATOM     16  C   UNL d   1      44.111 -15.303  44.955  0.00  0.00     0.002 C 
ATOM     17  C   UNL d   1      44.836 -14.072  44.934  0.00  0.00     0.002 A 
ATOM     18  C   UNL d   1      45.547 -13.660  44.861  0.00  0.00     0.000 A 
ATOM     19  C   UNL d   1      46.250 -14.075  44.733  0.00  0.00     0.002 A 
ATOM     20  C   UNL d   1      46.240 -14.902  44.680  0.00  0.00     0.019 A 
ENDBRANCH  13  14
ENDBRANCH  11  13
ENDBRANCH   2  11
TORSDOF 3
ENDMDL
