MODEL 1
REMARK VINA RESULT:     118.7      0.000      0.000
REMARK  3 active torsions:
REMARK  status: ('A' for Active; 'I' for Inactive)
REMARK    1  A    between atoms: N_9  and  C_3 
REMARK    2  A    between atoms: C_12  and  C_5 
REMARK    3  A    between atoms: C_17  and  N_10 
ROOT
ATOM      1  N   UNL d   1     -55.926-100.788 -43.633  0.00  0.00    -0.196 N 
ATOM      2  C   UNL d   1     -56.008-100.633 -44.440  0.00  0.00     0.167 A 
ATOM      3  C   UNL d   1     -55.467-101.421 -43.380  0.00  0.00     0.152 A 
ATOM      4  N   UNL d   1     -56.360-100.227 -43.218  0.00  0.00    -0.163 NA
ATOM      5  C   UNL d   1     -56.492 -99.976 -44.526  0.00  0.00     0.055 A 
ATOM      6  C   UNL d   1     -56.710 -99.723 -43.777  0.00  0.00     0.104 A 
ATOM      7  N   UNL d   1     -55.630-101.112 -44.992  0.00  0.00    -0.227 NA
ATOM      8  C   UNL d   1     -55.084-101.907 -43.933  0.00  0.00     0.057 A 
ATOM      9  C   UNL d   1     -55.165-101.752 -44.740  0.00  0.00     0.086 A 
ATOM     10  C   UNL d   1     -57.196 -99.078 -43.604  0.00  0.00     0.023 C 
ATOM     11  C   UNL d   1     -54.785-102.234 -45.297  0.00  0.00     0.021 C 
ENDROOT
BRANCH   3  12
ATOM     12  N   UNL d   1     -55.385-101.577 -42.566  0.00  0.00    -0.286 N 
ATOM     13  C   UNL d   1     -54.888-102.193 -42.311  0.00  0.00     0.101 A 
ATOM     14  C   UNL d   1     -54.807-102.348 -41.505  0.00  0.00     0.100 A 
ATOM     15  N   UNL d   1     -55.222-101.886 -40.953  0.00  0.00    -0.301 N 
ATOM     16  C   UNL d   1     -55.712-101.277 -41.208  0.00  0.00     0.100 A 
ATOM     17  C   UNL d   1     -55.794-101.123 -42.015  0.00  0.00     0.101 A 
BRANCH  15  18
ATOM     18  C   UNL d   1     -55.140-102.042 -40.143  0.00  0.00     0.064 A 
ATOM     19  C   UNL d   1     -54.712-101.525 -39.664  0.00  0.00     0.018 A 
ATOM     20  C   UNL d   1     -54.727-101.822 -38.893  0.00  0.00     0.002 A 
ATOM     21  C   UNL d   1     -55.163-102.518 -38.901  0.00  0.00     0.002 A 
ATOM     22  C   UNL d   1     -55.417-102.657 -39.661  0.00  0.00     0.018 A 
ENDBRANCH  15  18
ENDBRANCH   3  12
BRANCH   5  23
ATOM     23  C   UNL d   1     -56.764 -99.572 -45.188  0.00  0.00     0.004 A 
ATOM     24  C   UNL d   1     -56.223 -99.288 -45.754  0.00  0.00     0.000 A 
ATOM     25  C   UNL d   1     -56.496 -98.884 -46.416  0.00  0.00     0.000 A 
ATOM     26  C   UNL d   1     -57.305 -98.759 -46.523  0.00  0.00     0.000 A 
ATOM     27  C   UNL d   1     -57.845 -99.038 -45.965  0.00  0.00     0.000 A 
ATOM     28  C   UNL d   1     -57.573 -99.446 -45.295  0.00  0.00     0.000 A 
ENDBRANCH   5  23
TORSDOF 3
ENDMDL
