MODEL 1
REMARK VINA RESULT:      -3.6      0.000      0.000
REMARK  4 active torsions:
REMARK  status: ('A' for Active; 'I' for Inactive)
REMARK    1  A    between atoms: C_6  and  C_1 
REMARK       I    between atoms: N_11  and  C_6 
REMARK    2  A    between atoms: O_14  and  C_9 
REMARK    3  A    between atoms: C_16  and  N_11 
REMARK    4  A    between atoms: C_12  and  C_16 
ROOT
ATOM      1  C   UNL d   1      57.070  -0.062  31.988  0.00  0.00     0.121 A 
ATOM      2  C   UNL d   1      56.972  -0.858  31.764  0.00  0.00     0.305 A 
ATOM      3  O   UNL d   1      57.329  -1.135  31.062  0.00  0.00    -0.271 OA
ATOM      4  C   UNL d   1      57.524   0.461  31.513  0.00  0.00     0.012 A 
ATOM      5  C   UNL d   1      57.776  -0.625  30.591  0.00  0.00     0.125 A 
ATOM      6  C   UNL d   1      57.871   0.170  30.819  0.00  0.00     0.025 A 
ATOM      7  O   UNL d   1      56.526  -1.372  32.231  0.00  0.00    -0.259 OA
ATOM      8  C   UNL d   1      58.127  -0.896  29.901  0.00  0.00     0.117 A 
ATOM      9  C   UNL d   1      58.320   0.681  30.346  0.00  0.00     0.002 A 
ATOM     10  C   UNL d   1      58.669   0.401  29.655  0.00  0.00     0.002 A 
ATOM     11  C   UNL d   1      58.573  -0.387  29.432  0.00  0.00     0.026 A 
ENDROOT
BRANCH   1  12
ATOM     12  C   UNL d   1      56.720   0.217  32.680  0.00  0.00     0.284 C 
ATOM     13  O   UNL d   1      57.174   0.316  33.362  0.00  0.00    -0.265 OA
ATOM     14  N   UNL d   1      55.917   0.398  32.689  0.00  0.00    -0.206 NA
BRANCH  14  15
ATOM     15  C   UNL d   1      55.561   0.680  33.385  0.00  0.00     0.102 C 
BRANCH  15  16
ATOM     16  C   UNL d   1      54.739   0.682  33.453  0.00  0.00     0.021 C 
ATOM     17  C   UNL d   1      54.383   0.440  34.155  0.00  0.00     0.002 C 
ENDBRANCH  15  16
ENDBRANCH  14  15
ENDBRANCH   1  12
BRANCH   8  18
ATOM     18  O   UNL d   1      58.030  -1.685  29.678  0.00  0.00    -0.326 OA
ATOM     19  C   UNL d   1      58.617  -2.066  29.243  0.00  0.00     0.181 C 
ENDBRANCH   8  18
TORSDOF 4
ENDMDL
MODEL 2
REMARK VINA RESULT:      -3.4      1.470      2.476
REMARK  4 active torsions:
REMARK  status: ('A' for Active; 'I' for Inactive)
REMARK    1  A    between atoms: C_6  and  C_1 
REMARK       I    between atoms: N_11  and  C_6 
REMARK    2  A    between atoms: O_14  and  C_9 
REMARK    3  A    between atoms: C_16  and  N_11 
REMARK    4  A    between atoms: C_12  and  C_16 
ROOT
ATOM      1  C   UNL d   1      57.960  -0.591  30.378  0.00  0.00     0.121 A 
ATOM      2  C   UNL d   1      58.589  -0.080  30.185  0.00  0.00     0.305 A 
ATOM      3  O   UNL d   1      59.190  -0.342  29.670  0.00  0.00    -0.271 OA
ATOM      4  C   UNL d   1      57.929  -1.367  30.055  0.00  0.00     0.012 A 
ATOM      5  C   UNL d   1      59.165  -1.103  29.350  0.00  0.00     0.125 A 
ATOM      6  C   UNL d   1      58.534  -1.612  29.545  0.00  0.00     0.025 A 
ATOM      7  O   UNL d   1      58.618   0.682  30.502  0.00  0.00    -0.259 OA
ATOM      8  C   UNL d   1      59.755  -1.362  28.844  0.00  0.00     0.117 A 
ATOM      9  C   UNL d   1      58.509  -2.374  29.224  0.00  0.00     0.002 A 
ATOM     10  C   UNL d   1      59.106  -2.627  28.716  0.00  0.00     0.002 A 
ATOM     11  C   UNL d   1      59.729  -2.121  28.525  0.00  0.00     0.026 A 
ENDROOT
BRANCH   1  12
ATOM     12  C   UNL d   1      57.363  -0.339  30.886  0.00  0.00     0.284 C 
ATOM     13  O   UNL d   1      57.029   0.410  30.792  0.00  0.00    -0.265 OA
ATOM     14  N   UNL d   1      57.101  -0.835  31.488  0.00  0.00    -0.206 NA
BRANCH  14  15
ATOM     15  C   UNL d   1      56.499  -0.583  32.003  0.00  0.00     0.102 C 
BRANCH  15  16
ATOM     16  C   UNL d   1      56.217  -1.095  32.585  0.00  0.00     0.021 C 
ATOM     17  C   UNL d   1      55.872  -0.792  33.268  0.00  0.00     0.002 C 
ENDBRANCH  15  16
ENDBRANCH  14  15
ENDBRANCH   1  12
BRANCH   8  18
ATOM     18  O   UNL d   1      60.378  -0.855  28.653  0.00  0.00    -0.326 OA
ATOM     19  C   UNL d   1      61.133  -1.159  28.527  0.00  0.00     0.181 C 
ENDBRANCH   8  18
TORSDOF 4
ENDMDL
MODEL 3
REMARK VINA RESULT:      -2.5      1.706      4.312
REMARK  4 active torsions:
REMARK  status: ('A' for Active; 'I' for Inactive)
REMARK    1  A    between atoms: C_6  and  C_1 
REMARK       I    between atoms: N_11  and  C_6 
REMARK    2  A    between atoms: O_14  and  C_9 
REMARK    3  A    between atoms: C_16  and  N_11 
REMARK    4  A    between atoms: C_12  and  C_16 
ROOT
ATOM      1  C   UNL d   1      58.481  -1.117  29.871  0.00  0.00     0.121 A 
ATOM      2  C   UNL d   1      57.918  -1.673  30.131  0.00  0.00     0.305 A 
ATOM      3  O   UNL d   1      57.433  -1.494  30.786  0.00  0.00    -0.271 OA
ATOM      4  C   UNL d   1      58.562  -0.379  30.265  0.00  0.00     0.012 A 
ATOM      5  C   UNL d   1      57.509  -0.770  31.177  0.00  0.00     0.125 A 
ATOM      6  C   UNL d   1      58.073  -0.217  30.915  0.00  0.00     0.025 A 
ATOM      7  O   UNL d   1      57.838  -2.398  29.744  0.00  0.00    -0.259 OA
ATOM      8  C   UNL d   1      57.033  -0.594  31.821  0.00  0.00     0.117 A 
ATOM      9  C   UNL d   1      58.148   0.508  31.306  0.00  0.00     0.002 A 
ATOM     10  C   UNL d   1      57.667   0.679  31.953  0.00  0.00     0.002 A 
ATOM     11  C   UNL d   1      57.109   0.128  32.210  0.00  0.00     0.026 A 
ENDROOT
BRANCH   1  12
ATOM     12  C   UNL d   1      58.962  -1.288  29.225  0.00  0.00     0.284 C 
ATOM     13  O   UNL d   1      58.676  -1.186  28.458  0.00  0.00    -0.265 OA
ATOM     14  N   UNL d   1      59.729  -1.560  29.347  0.00  0.00    -0.206 NA
BRANCH  14  15
ATOM     15  C   UNL d   1      60.218  -1.733  28.698  0.00  0.00     0.102 C 
BRANCH  15  16
ATOM     16  C   UNL d   1      60.990  -1.996  28.824  0.00  0.00     0.021 C 
ATOM     17  C   UNL d   1      61.133  -2.791  28.982  0.00  0.00     0.002 C 
ENDBRANCH  15  16
ENDBRANCH  14  15
ENDBRANCH   1  12
BRANCH   8  18
ATOM     18  O   UNL d   1      56.475  -1.144  32.078  0.00  0.00    -0.326 OA
ATOM     19  C   UNL d   1      56.091  -1.037  32.799  0.00  0.00     0.181 C 
ENDBRANCH   8  18
TORSDOF 4
ENDMDL
MODEL 4
REMARK VINA RESULT:      -1.6      9.712     10.459
REMARK  4 active torsions:
REMARK  status: ('A' for Active; 'I' for Inactive)
REMARK    1  A    between atoms: C_6  and  C_1 
REMARK       I    between atoms: N_11  and  C_6 
REMARK    2  A    between atoms: O_14  and  C_9 
REMARK    3  A    between atoms: C_16  and  N_11 
REMARK    4  A    between atoms: C_12  and  C_16 
ROOT
ATOM      1  C   UNL d   1      59.580  -9.655  32.840  0.00  0.00     0.121 A 
ATOM      2  C   UNL d   1      60.360  -9.454  33.052  0.00  0.00     0.305 A 
ATOM      3  O   UNL d   1      60.561  -9.375  33.857  0.00  0.00    -0.271 OA
ATOM      4  C   UNL d   1      58.997  -9.778  33.434  0.00  0.00     0.012 A 
ATOM      5  C   UNL d   1      59.993  -9.494  34.445  0.00  0.00     0.125 A 
ATOM      6  C   UNL d   1      59.214  -9.695  34.230  0.00  0.00     0.025 A 
ATOM      7  O   UNL d   1      60.932  -9.334  32.468  0.00  0.00    -0.259 OA
ATOM      8  C   UNL d   1      60.190  -9.416  35.236  0.00  0.00     0.117 A 
ATOM      9  C   UNL d   1      58.645  -9.815  34.818  0.00  0.00     0.002 A 
ATOM     10  C   UNL d   1      58.850  -9.734  35.612  0.00  0.00     0.002 A 
ATOM     11  C   UNL d   1      59.623  -9.535  35.821  0.00  0.00     0.026 A 
ENDROOT
BRANCH   1  12
ATOM     12  C   UNL d   1      59.374  -9.735  32.046  0.00  0.00     0.284 C 
ATOM     13  O   UNL d   1      59.962  -9.813  31.473  0.00  0.00    -0.265 OA
ATOM     14  N   UNL d   1      58.581  -9.737  31.827  0.00  0.00    -0.206 NA
BRANCH  14  15
ATOM     15  C   UNL d   1      58.370  -9.818  31.028  0.00  0.00     0.102 C 
BRANCH  15  16
ATOM     16  C   UNL d   1      57.622  -9.580  30.775  0.00  0.00     0.021 C 
ATOM     17  C   UNL d   1      57.378  -9.736  30.004  0.00  0.00     0.002 C 
ENDBRANCH  15  16
ENDBRANCH  14  15
ENDBRANCH   1  12
BRANCH   8  18
ATOM     18  O   UNL d   1      60.963  -9.217  35.445  0.00  0.00    -0.326 OA
ATOM     19  C   UNL d   1      61.113  -8.845  36.165  0.00  0.00     0.181 C 
ENDBRANCH   8  18
TORSDOF 4
ENDMDL
