MODEL 1
REMARK VINA RESULT:      -6.6      0.000      0.000
REMARK  5 active torsions:
REMARK  status: ('A' for Active; 'I' for Inactive)
REMARK    1  A    between atoms: N_2  and  C_1 
REMARK       I    between atoms: N_4  and  C_5 
REMARK    2  A    between atoms: C_5  and  C_9 
REMARK    3  A    between atoms: C_18  and  N_6 
REMARK    4  A    between atoms: C_10  and  C_8 
REMARK    5  A    between atoms: C_9  and  C_10 
ROOT
ATOM      1  N   UNL d   1     -48.151  12.239  23.458  0.00  0.00    -0.269 N 
ATOM      2  C   UNL d   1     -47.668  11.558  23.566  0.00  0.00     0.265 C 
ATOM      3  N   UNL d   1     -49.133  13.544  23.253  0.00  0.00    -0.301 N 
ATOM      4  C   UNL d   1     -47.823  12.985  23.327  0.00  0.00     0.102 A 
ATOM      5  C   UNL d   1     -48.974  12.147  23.487  0.00  0.00     0.102 A 
ATOM      6  C   UNL d   1     -48.307  13.635  23.225  0.00  0.00     0.100 A 
ATOM      7  C   UNL d   1     -49.477  12.802  23.385  0.00  0.00     0.100 A 
ATOM      8  O   UNL d   1     -48.013  10.816  23.697  0.00  0.00    -0.267 OA
ENDROOT
BRANCH   2   9
ATOM      9  C   UNL d   1     -46.845  11.640  23.538  0.00  0.00     0.062 C 
BRANCH   9  10
ATOM     10  C   UNL d   1     -46.344  10.998  23.697  0.00  0.00     0.011 C 
BRANCH  10  11
ATOM     11  C   UNL d   1     -45.547  10.999  23.471  0.00  0.00     0.031 A 
ATOM     12  S   UNL d   1     -45.109  11.542  23.018  0.00  0.00    -0.064 SA
ATOM     13  C   UNL d   1     -44.336  11.248  22.977  0.00  0.00     0.156 A 
ATOM     14  C   UNL d   1     -44.303  10.561  23.383  0.00  0.00     0.031 A 
ATOM     15  C   UNL d   1     -45.039  10.386  23.698  0.00  0.00     0.009 A 
BRANCH  13  16
ATOM     16  N   UNL d   1     -43.674  11.597  22.578  0.00  0.00    -0.107 N 
ATOM     17  O   UNL d   1     -43.813  12.172  22.009  0.00  0.00    -0.531 OA
ATOM     18  O   UNL d   1     -42.911  11.347  22.775  0.00  0.00    -0.531 OA
ENDBRANCH  13  16
ENDBRANCH  10  11
ENDBRANCH   9  10
ENDBRANCH   2   9
BRANCH   3  19
ATOM     19  C   UNL d   1     -49.623  14.198  23.151  0.00  0.00     0.064 A 
ATOM     20  C   UNL d   1     -50.245  14.164  22.624  0.00  0.00     0.018 A 
ATOM     21  C   UNL d   1     -50.745  14.832  22.519  0.00  0.00     0.002 A 
ATOM     22  C   UNL d   1     -50.600  15.508  22.947  0.00  0.00     0.000 A 
ATOM     23  C   UNL d   1     -49.972  15.546  23.481  0.00  0.00     0.002 A 
ATOM     24  C   UNL d   1     -49.484  14.889  23.580  0.00  0.00     0.018 A 
ENDBRANCH   3  19
TORSDOF 5
ENDMDL
MODEL 2
REMARK VINA RESULT:      -6.1      2.241      5.781
REMARK  5 active torsions:
REMARK  status: ('A' for Active; 'I' for Inactive)
REMARK    1  A    between atoms: N_2  and  C_1 
REMARK       I    between atoms: N_4  and  C_5 
REMARK    2  A    between atoms: C_5  and  C_9 
REMARK    3  A    between atoms: C_18  and  N_6 
REMARK    4  A    between atoms: C_10  and  C_8 
REMARK    5  A    between atoms: C_9  and  C_10 
ROOT
ATOM      1  N   UNL d   1     -46.226  13.310  22.782  0.00  0.00    -0.269 N 
ATOM      2  C   UNL d   1     -46.655  14.018  22.627  0.00  0.00     0.265 C 
ATOM      3  N   UNL d   1     -45.350  11.946  23.068  0.00  0.00    -0.301 N 
ATOM      4  C   UNL d   1     -46.587  12.654  23.130  0.00  0.00     0.102 A 
ATOM      5  C   UNL d   1     -45.424  13.283  22.577  0.00  0.00     0.102 A 
ATOM      6  C   UNL d   1     -46.155  11.975  23.273  0.00  0.00     0.100 A 
ATOM      7  C   UNL d   1     -44.974  12.597  22.718  0.00  0.00     0.100 A 
ATOM      8  O   UNL d   1     -46.278  14.668  22.278  0.00  0.00    -0.267 OA
ENDROOT
BRANCH   2   9
ATOM      9  C   UNL d   1     -47.457  14.055  22.829  0.00  0.00     0.062 C 
BRANCH   9  10
ATOM     10  C   UNL d   1     -47.921  14.712  22.625  0.00  0.00     0.011 C 
BRANCH  10  11
ATOM     11  C   UNL d   1     -48.746  14.666  22.573  0.00  0.00     0.031 A 
ATOM     12  S   UNL d   1     -49.237  14.319  21.998  0.00  0.00    -0.064 SA
ATOM     13  C   UNL d   1     -50.017  14.448  22.243  0.00  0.00     0.156 A 
ATOM     14  C   UNL d   1     -50.004  14.853  22.932  0.00  0.00     0.031 A 
ATOM     15  C   UNL d   1     -49.230  14.999  23.156  0.00  0.00     0.009 A 
BRANCH  13  16
ATOM     16  N   UNL d   1     -50.727  14.203  21.848  0.00  0.00    -0.107 N 
ATOM     17  O   UNL d   1     -51.063  14.703  21.291  0.00  0.00    -0.531 OA
ATOM     18  O   UNL d   1     -51.057  13.469  22.037  0.00  0.00    -0.531 OA
ENDBRANCH  13  16
ENDBRANCH  10  11
ENDBRANCH   9  10
ENDBRANCH   2   9
BRANCH   3  19
ATOM     19  C   UNL d   1     -44.913  11.262  23.211  0.00  0.00     0.064 A 
ATOM     20  C   UNL d   1     -45.272  10.612  23.549  0.00  0.00     0.018 A 
ATOM     21  C   UNL d   1     -44.827   9.914  23.696  0.00  0.00     0.002 A 
ATOM     22  C   UNL d   1     -44.038   9.898  23.497  0.00  0.00     0.000 A 
ATOM     23  C   UNL d   1     -43.672  10.553  23.156  0.00  0.00     0.002 A 
ATOM     24  C   UNL d   1     -44.113  11.235  23.014  0.00  0.00     0.018 A 
ENDBRANCH   3  19
TORSDOF 5
ENDMDL
MODEL 3
REMARK VINA RESULT:      -5.6      1.192      1.574
REMARK  5 active torsions:
REMARK  status: ('A' for Active; 'I' for Inactive)
REMARK    1  A    between atoms: N_2  and  C_1 
REMARK       I    between atoms: N_4  and  C_5 
REMARK    2  A    between atoms: C_5  and  C_9 
REMARK    3  A    between atoms: C_18  and  N_6 
REMARK    4  A    between atoms: C_10  and  C_8 
REMARK    5  A    between atoms: C_9  and  C_10 
ROOT
ATOM      1  N   UNL d   1     -47.873  13.181  23.173  0.00  0.00    -0.269 N 
ATOM      2  C   UNL d   1     -47.235  12.632  23.185  0.00  0.00     0.265 C 
ATOM      3  N   UNL d   1     -49.146  14.223  23.168  0.00  0.00    -0.301 N 
ATOM      4  C   UNL d   1     -47.782  13.941  22.864  0.00  0.00     0.102 A 
ATOM      5  C   UNL d   1     -48.604  12.942  23.481  0.00  0.00     0.102 A 
ATOM      6  C   UNL d   1     -48.412  14.461  22.860  0.00  0.00     0.100 A 
ATOM      7  C   UNL d   1     -49.253  13.464  23.482  0.00  0.00     0.100 A 
ATOM      8  O   UNL d   1     -47.342  11.873  23.499  0.00  0.00    -0.267 OA
ENDROOT
BRANCH   2   9
ATOM      9  C   UNL d   1     -46.500  12.861  22.880  0.00  0.00     0.062 C 
BRANCH   9  10
ATOM     10  C   UNL d   1     -45.871  12.323  22.826  0.00  0.00     0.011 C 
BRANCH  10  11
ATOM     11  C   UNL d   1     -45.173  12.505  22.418  0.00  0.00     0.031 A 
ATOM     12  S   UNL d   1     -44.467  12.076  22.329  0.00  0.00    -0.064 SA
ATOM     13  C   UNL d   1     -43.965  12.539  21.860  0.00  0.00     0.156 A 
ATOM     14  C   UNL d   1     -44.345  13.217  21.673  0.00  0.00     0.031 A 
ATOM     15  C   UNL d   1     -45.094  13.219  22.006  0.00  0.00     0.009 A 
BRANCH  13  16
ATOM     16  N   UNL d   1     -43.178  12.350  21.608  0.00  0.00    -0.107 N 
ATOM     17  O   UNL d   1     -42.717  11.862  22.080  0.00  0.00    -0.531 OA
ATOM     18  O   UNL d   1     -42.900  12.663  20.894  0.00  0.00    -0.531 OA
ENDBRANCH  13  16
ENDBRANCH  10  11
ENDBRANCH   9  10
ENDBRANCH   2   9
BRANCH   3  19
ATOM     19  C   UNL d   1     -49.783  14.747  23.165  0.00  0.00     0.064 A 
ATOM     20  C   UNL d   1     -49.798  15.374  23.686  0.00  0.00     0.018 A 
ATOM     21  C   UNL d   1     -50.447  15.908  23.683  0.00  0.00     0.002 A 
ATOM     22  C   UNL d   1     -51.056  15.790  23.157  0.00  0.00     0.000 A 
ATOM     23  C   UNL d   1     -51.044  15.157  22.629  0.00  0.00     0.002 A 
ATOM     24  C   UNL d   1     -50.405  14.636  22.636  0.00  0.00     0.018 A 
ENDBRANCH   3  19
TORSDOF 5
ENDMDL
MODEL 4
REMARK VINA RESULT:      -5.5      8.591     10.202
REMARK  5 active torsions:
REMARK  status: ('A' for Active; 'I' for Inactive)
REMARK    1  A    between atoms: N_2  and  C_1 
REMARK       I    between atoms: N_4  and  C_5 
REMARK    2  A    between atoms: C_5  and  C_9 
REMARK    3  A    between atoms: C_18  and  N_6 
REMARK    4  A    between atoms: C_10  and  C_8 
REMARK    5  A    between atoms: C_9  and  C_10 
ROOT
ATOM      1  N   UNL d   1     -39.742  14.822  19.809  0.00  0.00    -0.269 N 
ATOM      2  C   UNL d   1     -40.000  14.991  19.026  0.00  0.00     0.265 C 
ATOM      3  N   UNL d   1     -39.280  14.498  21.355  0.00  0.00    -0.301 N 
ATOM      4  C   UNL d   1     -38.952  14.650  19.976  0.00  0.00     0.102 A 
ATOM      5  C   UNL d   1     -40.302  14.833  20.419  0.00  0.00     0.102 A 
ATOM      6  C   UNL d   1     -38.719  14.488  20.742  0.00  0.00     0.100 A 
ATOM      7  C   UNL d   1     -40.076  14.670  21.204  0.00  0.00     0.100 A 
ATOM      8  O   UNL d   1     -40.796  15.162  18.875  0.00  0.00    -0.267 OA
ENDROOT
BRANCH   2   9
ATOM      9  C   UNL d   1     -39.447  14.983  18.409  0.00  0.00     0.062 C 
BRANCH   9  10
ATOM     10  C   UNL d   1     -39.683  15.079  17.620  0.00  0.00     0.011 C 
BRANCH  10  11
ATOM     11  C   UNL d   1     -39.168  14.933  16.988  0.00  0.00     0.031 A 
ATOM     12  S   UNL d   1     -39.016  14.237  16.559  0.00  0.00    -0.064 SA
ATOM     13  C   UNL d   1     -38.445  14.429  15.991  0.00  0.00     0.156 A 
ATOM     14  C   UNL d   1     -38.259  15.202  16.067  0.00  0.00     0.031 A 
ATOM     15  C   UNL d   1     -38.692  15.535  16.677  0.00  0.00     0.009 A 
BRANCH  13  16
ATOM     16  N   UNL d   1     -38.101  13.911  15.413  0.00  0.00    -0.107 N 
ATOM     17  O   UNL d   1     -37.940  13.135  15.623  0.00  0.00    -0.531 OA
ATOM     18  O   UNL d   1     -37.940  14.207  14.657  0.00  0.00    -0.531 OA
ENDBRANCH  13  16
ENDBRANCH  10  11
ENDBRANCH   9  10
ENDBRANCH   2   9
BRANCH   3  19
ATOM     19  C   UNL d   1     -39.047  14.336  22.129  0.00  0.00     0.064 A 
ATOM     20  C   UNL d   1     -38.827  14.944  22.625  0.00  0.00     0.018 A 
ATOM     21  C   UNL d   1     -38.589  14.779  23.415  0.00  0.00     0.002 A 
ATOM     22  C   UNL d   1     -38.582  14.008  23.674  0.00  0.00     0.000 A 
ATOM     23  C   UNL d   1     -38.803  13.390  23.175  0.00  0.00     0.002 A 
ATOM     24  C   UNL d   1     -39.035  13.557  22.401  0.00  0.00     0.018 A 
ENDBRANCH   3  19
TORSDOF 5
ENDMDL
MODEL 5
REMARK VINA RESULT:      -5.0      2.476      5.569
REMARK  5 active torsions:
REMARK  status: ('A' for Active; 'I' for Inactive)
REMARK    1  A    between atoms: N_2  and  C_1 
REMARK       I    between atoms: N_4  and  C_5 
REMARK    2  A    between atoms: C_5  and  C_9 
REMARK    3  A    between atoms: C_18  and  N_6 
REMARK    4  A    between atoms: C_10  and  C_8 
REMARK    5  A    between atoms: C_9  and  C_10 
ROOT
ATOM      1  N   UNL d   1     -46.802  12.529  22.927  0.00  0.00    -0.269 N 
ATOM      2  C   UNL d   1     -47.577  12.441  23.242  0.00  0.00     0.265 C 
ATOM      3  N   UNL d   1     -45.274  12.663  22.330  0.00  0.00    -0.301 N 
ATOM      4  C   UNL d   1     -46.593  13.185  22.471  0.00  0.00     0.102 A 
ATOM      5  C   UNL d   1     -46.243  11.939  23.085  0.00  0.00     0.102 A 
ATOM      6  C   UNL d   1     -45.836  13.255  22.173  0.00  0.00     0.100 A 
ATOM      7  C   UNL d   1     -45.468  11.999  22.787  0.00  0.00     0.100 A 
ATOM      8  O   UNL d   1     -47.771  11.777  23.698  0.00  0.00    -0.267 OA
ENDROOT
BRANCH   2   9
ATOM      9  C   UNL d   1     -48.143  13.026  23.089  0.00  0.00     0.062 C 
BRANCH   9  10
ATOM     10  C   UNL d   1     -48.952  12.845  23.067  0.00  0.00     0.011 C 
BRANCH  10  11
ATOM     11  C   UNL d   1     -49.534  13.432  23.122  0.00  0.00     0.031 A 
ATOM     12  S   UNL d   1     -49.591  14.178  22.758  0.00  0.00    -0.064 SA
ATOM     13  C   UNL d   1     -50.297  14.519  23.024  0.00  0.00     0.156 A 
ATOM     14  C   UNL d   1     -50.654  14.008  23.525  0.00  0.00     0.031 A 
ATOM     15  C   UNL d   1     -50.201  13.329  23.601  0.00  0.00     0.009 A 
BRANCH  13  16
ATOM     16  N   UNL d   1     -50.611  15.279  22.816  0.00  0.00    -0.107 N 
ATOM     17  O   UNL d   1     -51.049  15.351  22.126  0.00  0.00    -0.531 OA
ATOM     18  O   UNL d   1     -50.466  15.922  23.315  0.00  0.00    -0.531 OA
ENDBRANCH  13  16
ENDBRANCH  10  11
ENDBRANCH   9  10
ENDBRANCH   2   9
BRANCH   3  19
ATOM     19  C   UNL d   1     -44.509  12.732  22.031  0.00  0.00     0.064 A 
ATOM     20  C   UNL d   1     -44.293  13.397  21.611  0.00  0.00     0.018 A 
ATOM     21  C   UNL d   1     -43.513  13.467  21.305  0.00  0.00     0.002 A 
ATOM     22  C   UNL d   1     -42.981  12.866  21.434  0.00  0.00     0.000 A 
ATOM     23  C   UNL d   1     -43.195  12.192  21.858  0.00  0.00     0.002 A 
ATOM     24  C   UNL d   1     -43.961  12.128  22.156  0.00  0.00     0.018 A 
ENDBRANCH   3  19
TORSDOF 5
ENDMDL
MODEL 6
REMARK VINA RESULT:      -4.6      3.249      4.447
REMARK  5 active torsions:
REMARK  status: ('A' for Active; 'I' for Inactive)
REMARK    1  A    between atoms: N_2  and  C_1 
REMARK       I    between atoms: N_4  and  C_5 
REMARK    2  A    between atoms: C_5  and  C_9 
REMARK    3  A    between atoms: C_18  and  N_6 
REMARK    4  A    between atoms: C_10  and  C_8 
REMARK    5  A    between atoms: C_9  and  C_10 
ROOT
ATOM      1  N   UNL d   1     -44.344  12.774  22.001  0.00  0.00    -0.269 N 
ATOM      2  C   UNL d   1     -43.550  12.569  21.811  0.00  0.00     0.265 C 
ATOM      3  N   UNL d   1     -45.900  13.136  22.393  0.00  0.00    -0.301 N 
ATOM      4  C   UNL d   1     -44.671  13.494  21.765  0.00  0.00     0.102 A 
ATOM      5  C   UNL d   1     -44.798  12.234  22.434  0.00  0.00     0.102 A 
ATOM      6  C   UNL d   1     -45.444  13.678  21.958  0.00  0.00     0.100 A 
ATOM      7  C   UNL d   1     -45.586  12.409  22.637  0.00  0.00     0.100 A 
ATOM      8  O   UNL d   1     -43.236  11.842  22.054  0.00  0.00    -0.267 OA
ENDROOT
BRANCH   2   9
ATOM      9  C   UNL d   1     -43.088  13.102  21.378  0.00  0.00     0.062 C 
BRANCH   9  10
ATOM     10  C   UNL d   1     -42.261  13.039  21.361  0.00  0.00     0.011 C 
BRANCH  10  11
ATOM     11  C   UNL d   1     -41.790  13.573  20.938  0.00  0.00     0.031 A 
ATOM     12  S   UNL d   1     -41.655  13.652  20.121  0.00  0.00    -0.064 SA
ATOM     13  C   UNL d   1     -41.130  14.285  20.027  0.00  0.00     0.156 A 
ATOM     14  C   UNL d   1     -40.954  14.579  20.749  0.00  0.00     0.031 A 
ATOM     15  C   UNL d   1     -41.349  14.155  21.328  0.00  0.00     0.009 A 
BRANCH  13  16
ATOM     16  N   UNL d   1     -40.819  14.591  19.300  0.00  0.00    -0.107 N 
ATOM     17  O   UNL d   1     -40.715  15.401  19.222  0.00  0.00    -0.531 OA
ATOM     18  O   UNL d   1     -40.629  14.062  18.693  0.00  0.00    -0.531 OA
ENDBRANCH  13  16
ENDBRANCH  10  11
ENDBRANCH   9  10
ENDBRANCH   2   9
BRANCH   3  19
ATOM     19  C   UNL d   1     -46.680  13.320  22.589  0.00  0.00     0.064 A 
ATOM     20  C   UNL d   1     -46.878  14.081  22.805  0.00  0.00     0.018 A 
ATOM     21  C   UNL d   1     -47.673  14.268  23.004  0.00  0.00     0.002 A 
ATOM     22  C   UNL d   1     -48.237  13.682  22.979  0.00  0.00     0.000 A 
ATOM     23  C   UNL d   1     -48.040  12.912  22.761  0.00  0.00     0.002 A 
ATOM     24  C   UNL d   1     -47.259  12.733  22.566  0.00  0.00     0.018 A 
ENDBRANCH   3  19
TORSDOF 5
ENDMDL
MODEL 7
REMARK VINA RESULT:      -3.9      3.971      6.783
REMARK  5 active torsions:
REMARK  status: ('A' for Active; 'I' for Inactive)
REMARK    1  A    between atoms: N_2  and  C_1 
REMARK       I    between atoms: N_4  and  C_5 
REMARK    2  A    between atoms: C_5  and  C_9 
REMARK    3  A    between atoms: C_18  and  N_6 
REMARK    4  A    between atoms: C_10  and  C_8 
REMARK    5  A    between atoms: C_9  and  C_10 
ROOT
ATOM      1  N   UNL d   1     -42.794  13.257  21.378  0.00  0.00    -0.269 N 
ATOM      2  C   UNL d   1     -43.424  12.766  21.644  0.00  0.00     0.265 C 
ATOM      3  N   UNL d   1     -41.536  14.181  20.858  0.00  0.00    -0.301 N 
ATOM      4  C   UNL d   1     -42.901  14.066  21.252  0.00  0.00     0.102 A 
ATOM      5  C   UNL d   1     -42.054  12.910  21.243  0.00  0.00     0.102 A 
ATOM      6  C   UNL d   1     -42.279  14.528  20.994  0.00  0.00     0.100 A 
ATOM      7  C   UNL d   1     -41.412  13.371  20.980  0.00  0.00     0.100 A 
ATOM      8  O   UNL d   1     -43.301  11.956  21.766  0.00  0.00    -0.267 OA
ENDROOT
BRANCH   2   9
ATOM      9  C   UNL d   1     -44.167  13.103  21.782  0.00  0.00     0.062 C 
BRANCH   9  10
ATOM     10  C   UNL d   1     -44.812  12.639  22.022  0.00  0.00     0.011 C 
BRANCH  10  11
ATOM     11  C   UNL d   1     -45.485  12.972  22.369  0.00  0.00     0.031 A 
ATOM     12  S   UNL d   1     -45.895  13.677  22.200  0.00  0.00    -0.064 SA
ATOM     13  C   UNL d   1     -46.527  13.717  22.733  0.00  0.00     0.156 A 
ATOM     14  C   UNL d   1     -46.506  13.071  23.204  0.00  0.00     0.031 A 
ATOM     15  C   UNL d   1     -45.871  12.596  22.998  0.00  0.00     0.009 A 
BRANCH  13  16
ATOM     16  N   UNL d   1     -47.112  14.329  22.791  0.00  0.00    -0.107 N 
ATOM     17  O   UNL d   1     -47.876  14.127  23.011  0.00  0.00    -0.531 OA
ATOM     18  O   UNL d   1     -46.893  15.109  22.623  0.00  0.00    -0.531 OA
ENDBRANCH  13  16
ENDBRANCH  10  11
ENDBRANCH   9  10
ENDBRANCH   2   9
BRANCH   3  19
ATOM     19  C   UNL d   1     -40.906  14.646  20.598  0.00  0.00     0.064 A 
ATOM     20  C   UNL d   1     -40.591  14.526  19.855  0.00  0.00     0.018 A 
ATOM     21  C   UNL d   1     -39.950  15.000  19.589  0.00  0.00     0.002 A 
ATOM     22  C   UNL d   1     -39.650  15.575  20.080  0.00  0.00     0.000 A 
ATOM     23  C   UNL d   1     -39.966  15.698  20.832  0.00  0.00     0.002 A 
ATOM     24  C   UNL d   1     -40.595  15.231  21.088  0.00  0.00     0.018 A 
ENDBRANCH   3  19
TORSDOF 5
ENDMDL
