MODEL 1
REMARK VINA RESULT:      -5.4      0.000      0.000
REMARK  4 active torsions:
REMARK  status: ('A' for Active; 'I' for Inactive)
REMARK    1  A    between atoms: N_2  and  S_1 
REMARK    2  A    between atoms: C_3  and  S_1 
REMARK    3  A    between atoms: O_16  and  C_8 
REMARK    4  A    between atoms: O_17  and  C_11 
ROOT
ATOM      1  S   UNL d   1     -41.574-122.972 -52.056  0.00  0.00     0.271 S 
ATOM      2  O   UNL d   1     -41.144-122.275 -51.978  0.00  0.00    -0.200 OA
ATOM      3  O   UNL d   1     -42.009-123.676 -52.136  0.00  0.00    -0.200 OA
ENDROOT
BRANCH   1   4
ATOM      4  N   UNL d   1     -41.562-122.893 -52.878  0.00  0.00    -0.229 N 
ATOM      5  C   UNL d   1     -41.976-122.276 -53.237  0.00  0.00     0.092 A 
ATOM      6  C   UNL d   1     -41.964-122.197 -54.058  0.00  0.00     0.018 A 
ATOM      7  C   UNL d   1     -42.378-121.580 -54.417  0.00  0.00     0.002 A 
ATOM      8  C   UNL d   1     -41.538-122.733 -54.520  0.00  0.00     0.003 A 
ATOM      9  C   UNL d   1     -42.366-121.501 -55.238  0.00  0.00     0.000 A 
ATOM     10  C   UNL d   1     -41.940-122.037 -55.700  0.00  0.00     0.000 A 
ATOM     11  C   UNL d   1     -41.525-122.654 -55.341  0.00  0.00     0.000 A 
ATOM     12  C   UNL d   1     -41.123-123.350 -54.161  0.00  0.00     0.020 A 
ATOM     13  C   UNL d   1     -41.136-123.429 -53.339  0.00  0.00     0.092 A 
ENDBRANCH   1   4
BRANCH   1  14
ATOM     14  C   UNL d   1     -41.591-123.057 -51.240  0.00  0.00     0.106 A 
ATOM     15  C   UNL d   1     -42.086-122.572 -50.789  0.00  0.00     0.039 A 
ATOM     16  C   UNL d   1     -42.105-122.655 -49.971  0.00  0.00     0.117 A 
ATOM     17  C   UNL d   1     -41.634-123.218 -49.598  0.00  0.00     0.116 A 
ATOM     18  C   UNL d   1     -41.139-123.703 -50.049  0.00  0.00     0.027 A 
ATOM     19  C   UNL d   1     -41.123-123.618 -50.866  0.00  0.00     0.015 A 
BRANCH  16  20
ATOM     20  O   UNL d   1     -42.599-122.170 -49.520  0.00  0.00    -0.326 OA
ATOM     21  C   UNL d   1     -43.419-122.187 -49.642  0.00  0.00     0.181 C 
ENDBRANCH  16  20
BRANCH  17  22
ATOM     22  O   UNL d   1     -41.654-123.300 -48.774  0.00  0.00    -0.326 OA
ATOM     23  C   UNL d   1     -41.130-123.814 -48.398  0.00  0.00     0.181 C 
ENDBRANCH  17  22
ENDBRANCH   1  14
TORSDOF 4
ENDMDL
