MODEL 1
REMARK VINA RESULT:       1.2      0.000      0.000
REMARK  6 active torsions:
REMARK  status: ('A' for Active; 'I' for Inactive)
REMARK    1  A    between atoms: C_13  and  S_1 
REMARK    2  A    between atoms: C_2  and  C_6 
REMARK       I    between atoms: N_3  and  C_2 
REMARK    3  A    between atoms: C_4  and  N_3 
REMARK    4  A    between atoms: N_5  and  C_6 
REMARK       I    between atoms: C_7  and  N_5 
REMARK    5  A    between atoms: C_6  and  C_9 
REMARK    6  A    between atoms: C_9  and  C_13 
ROOT
ATOM      1  C   UNL d   1     -42.539-122.410 -50.751  0.00  0.00     0.297 C 
ATOM      2  N   UNL d   1     -42.173-122.829 -50.144  0.00  0.00    -0.207 NA
ATOM      3  O   UNL d   1     -43.363-122.315 -50.748  0.00  0.00    -0.264 OA
ENDROOT
BRANCH   1   4
ATOM      4  C   UNL d   1     -42.084-122.085 -51.365  0.00  0.00     0.143 C 
BRANCH   4   5
ATOM      5  N   UNL d   1     -42.083-121.269 -51.486  0.00  0.00    -0.203 NA
ATOM      6  C   UNL d   1     -41.602-120.785 -51.025  0.00  0.00     0.280 C 
ATOM      7  O   UNL d   1     -41.123-121.116 -50.444  0.00  0.00    -0.265 OA
ATOM      8  C   UNL d   1     -41.600-119.969 -51.146  0.00  0.00     0.068 C 
ENDBRANCH   4   5
BRANCH   4   9
ATOM      9  C   UNL d   1     -41.636-122.575 -51.852  0.00  0.00     0.036 C 
BRANCH   9  10
ATOM     10  C   UNL d   1     -41.998-122.977 -52.473  0.00  0.00     0.096 C 
BRANCH  10  11
ATOM     11  S   UNL d   1     -41.582-123.113 -53.171  0.00  0.00     0.192 S 
ATOM     12  O   UNL d   1     -41.123-123.445 -53.782  0.00  0.00    -0.222 OA
ATOM     13  O   UNL d   1     -41.493-123.814 -52.735  0.00  0.00    -0.222 OA
ATOM     14  C   UNL d   1     -41.548-122.527 -53.748  0.00  0.00     0.145 C 
ENDBRANCH  10  11
ENDBRANCH   9  10
ENDBRANCH   4   9
ENDBRANCH   1   4
BRANCH   2  15
ATOM     15  C   UNL d   1     -42.628-123.152 -49.533  0.00  0.00     0.085 A 
ATOM     16  C   UNL d   1     -42.280-123.322 -48.798  0.00  0.00     0.018 A 
ATOM     17  C   UNL d   1     -42.726-123.644 -48.186  0.00  0.00     0.002 A 
ATOM     18  C   UNL d   1     -41.478-123.163 -48.689  0.00  0.00     0.002 A 
ATOM     19  C   UNL d   1     -42.387-123.813 -47.459  0.00  0.00     0.000 A 
ATOM     20  C   UNL d   1     -43.540-123.801 -48.308  0.00  0.00     0.000 A 
ATOM     21  C   UNL d   1     -41.578-123.655 -47.342  0.00  0.00     0.000 A 
ATOM     22  C   UNL d   1     -41.132-123.332 -47.957  0.00  0.00     0.000 A 
ATOM     23  C   UNL d   1     -43.875-123.630 -49.038  0.00  0.00     0.002 A 
ATOM     24  C   UNL d   1     -43.430-123.310 -49.646  0.00  0.00     0.019 A 
ENDBRANCH   2  15
TORSDOF 6
ENDMDL
MODEL 2
REMARK VINA RESULT:       1.3      1.343      2.013
REMARK  6 active torsions:
REMARK  status: ('A' for Active; 'I' for Inactive)
REMARK    1  A    between atoms: C_13  and  S_1 
REMARK    2  A    between atoms: C_2  and  C_6 
REMARK       I    between atoms: N_3  and  C_2 
REMARK    3  A    between atoms: C_4  and  N_3 
REMARK    4  A    between atoms: N_5  and  C_6 
REMARK       I    between atoms: C_7  and  N_5 
REMARK    5  A    between atoms: C_6  and  C_9 
REMARK    6  A    between atoms: C_9  and  C_13 
ROOT
ATOM      1  C   UNL d   1     -41.509-122.690 -51.921  0.00  0.00     0.297 C 
ATOM      2  N   UNL d   1     -41.763-122.382 -51.202  0.00  0.00    -0.207 NA
ATOM      3  O   UNL d   1     -41.256-123.478 -51.966  0.00  0.00    -0.264 OA
ENDROOT
BRANCH   1   4
ATOM      4  C   UNL d   1     -41.506-122.212 -52.601  0.00  0.00     0.143 C 
BRANCH   4   5
ATOM      5  N   UNL d   1     -41.226-121.438 -52.557  0.00  0.00    -0.203 NA
ATOM      6  C   UNL d   1     -41.727-120.808 -52.729  0.00  0.00     0.280 C 
ATOM      7  O   UNL d   1     -42.508-120.951 -52.944  0.00  0.00    -0.265 OA
ATOM      8  C   UNL d   1     -41.447-120.033 -52.685  0.00  0.00     0.068 C 
ENDBRANCH   4   5
BRANCH   4   9
ATOM      9  C   UNL d   1     -41.783-122.511 -53.318  0.00  0.00     0.036 C 
BRANCH   9  10
ATOM     10  C   UNL d   1     -41.266-122.594 -53.953  0.00  0.00     0.096 C 
BRANCH  10  11
ATOM     11  S   UNL d   1     -41.503-123.014 -54.621  0.00  0.00     0.192 S 
ATOM     12  O   UNL d   1     -41.659-123.265 -55.400  0.00  0.00    -0.222 OA
ATOM     13  O   UNL d   1     -41.165-122.318 -54.922  0.00  0.00    -0.222 OA
ATOM     14  C   UNL d   1     -41.868-123.747 -54.536  0.00  0.00     0.145 C 
ENDBRANCH  10  11
ENDBRANCH   9  10
ENDBRANCH   4   9
ENDBRANCH   1   4
BRANCH   2  15
ATOM     15  C   UNL d   1     -41.765-122.859 -50.526  0.00  0.00     0.085 A 
ATOM     16  C   UNL d   1     -42.416-122.850 -50.010  0.00  0.00     0.018 A 
ATOM     17  C   UNL d   1     -42.425-123.322 -49.336  0.00  0.00     0.002 A 
ATOM     18  C   UNL d   1     -43.057-122.360 -50.183  0.00  0.00     0.002 A 
ATOM     19  C   UNL d   1     -43.065-123.316 -48.825  0.00  0.00     0.000 A 
ATOM     20  C   UNL d   1     -41.768-123.815 -49.170  0.00  0.00     0.000 A 
ATOM     21  C   UNL d   1     -43.716-122.823 -48.993  0.00  0.00     0.000 A 
ATOM     22  C   UNL d   1     -43.705-122.351 -49.670  0.00  0.00     0.000 A 
ATOM     23  C   UNL d   1     -41.129-123.817 -49.686  0.00  0.00     0.002 A 
ATOM     24  C   UNL d   1     -41.123-123.347 -50.356  0.00  0.00     0.019 A 
ENDBRANCH   2  15
TORSDOF 6
ENDMDL
MODEL 3
REMARK VINA RESULT:       1.5      1.652      4.604
REMARK  6 active torsions:
REMARK  status: ('A' for Active; 'I' for Inactive)
REMARK    1  A    between atoms: C_13  and  S_1 
REMARK    2  A    between atoms: C_2  and  C_6 
REMARK       I    between atoms: N_3  and  C_2 
REMARK    3  A    between atoms: C_4  and  N_3 
REMARK    4  A    between atoms: N_5  and  C_6 
REMARK       I    between atoms: C_7  and  N_5 
REMARK    5  A    between atoms: C_6  and  C_9 
REMARK    6  A    between atoms: C_9  and  C_13 
ROOT
ATOM      1  C   UNL d   1     -41.648-122.571 -52.055  0.00  0.00     0.297 C 
ATOM      2  N   UNL d   1     -41.207-122.356 -52.716  0.00  0.00    -0.207 NA
ATOM      3  O   UNL d   1     -42.263-123.122 -52.131  0.00  0.00    -0.264 OA
ENDROOT
BRANCH   1   4
ATOM      4  C   UNL d   1     -41.477-122.238 -51.314  0.00  0.00     0.143 C 
BRANCH   4   5
ATOM      5  N   UNL d   1     -41.132-121.489 -51.270  0.00  0.00    -0.203 NA
ATOM      6  C   UNL d   1     -41.590-120.837 -51.064  0.00  0.00     0.280 C 
ATOM      7  O   UNL d   1     -42.391-120.932 -50.901  0.00  0.00    -0.265 OA
ATOM      8  C   UNL d   1     -41.245-120.088 -51.021  0.00  0.00     0.068 C 
ENDBRANCH   4   5
BRANCH   4   9
ATOM      9  C   UNL d   1     -41.651-122.653 -50.624  0.00  0.00     0.036 C 
BRANCH   9  10
ATOM     10  C   UNL d   1     -41.123-122.637 -49.993  0.00  0.00     0.096 C 
BRANCH  10  11
ATOM     11  S   UNL d   1     -41.228-123.151 -49.357  0.00  0.00     0.192 S 
ATOM     12  O   UNL d   1     -41.369-123.815 -48.875  0.00  0.00    -0.222 OA
ATOM     13  O   UNL d   1     -41.341-123.625 -50.029  0.00  0.00    -0.222 OA
ATOM     14  C   UNL d   1     -41.157-122.869 -48.587  0.00  0.00     0.145 C 
ENDBRANCH  10  11
ENDBRANCH   9  10
ENDBRANCH   4   9
ENDBRANCH   1   4
BRANCH   2  15
ATOM     15  C   UNL d   1     -41.379-122.689 -53.454  0.00  0.00     0.085 A 
ATOM     16  C   UNL d   1     -41.689-122.218 -54.063  0.00  0.00     0.018 A 
ATOM     17  C   UNL d   1     -41.862-122.543 -54.799  0.00  0.00     0.002 A 
ATOM     18  C   UNL d   1     -41.822-121.417 -53.921  0.00  0.00     0.002 A 
ATOM     19  C   UNL d   1     -42.168-122.081 -55.403  0.00  0.00     0.000 A 
ATOM     20  C   UNL d   1     -41.723-123.359 -54.932  0.00  0.00     0.000 A 
ATOM     21  C   UNL d   1     -42.305-121.271 -55.266  0.00  0.00     0.000 A 
ATOM     22  C   UNL d   1     -42.131-120.947 -54.527  0.00  0.00     0.000 A 
ATOM     23  C   UNL d   1     -41.416-123.817 -54.324  0.00  0.00     0.002 A 
ATOM     24  C   UNL d   1     -41.245-123.492 -53.592  0.00  0.00     0.019 A 
ENDBRANCH   2  15
TORSDOF 6
ENDMDL
MODEL 4
REMARK VINA RESULT:       2.8      1.117      2.038
REMARK  6 active torsions:
REMARK  status: ('A' for Active; 'I' for Inactive)
REMARK    1  A    between atoms: C_13  and  S_1 
REMARK    2  A    between atoms: C_2  and  C_6 
REMARK       I    between atoms: N_3  and  C_2 
REMARK    3  A    between atoms: C_4  and  N_3 
REMARK    4  A    between atoms: N_5  and  C_6 
REMARK       I    between atoms: C_7  and  N_5 
REMARK    5  A    between atoms: C_6  and  C_9 
REMARK    6  A    between atoms: C_9  and  C_13 
ROOT
ATOM      1  C   UNL d   1     -42.064-122.763 -50.865  0.00  0.00     0.297 C 
ATOM      2  N   UNL d   1     -41.892-123.316 -50.280  0.00  0.00    -0.207 NA
ATOM      3  O   UNL d   1     -42.781-122.347 -50.840  0.00  0.00    -0.264 OA
ENDROOT
BRANCH   1   4
ATOM      4  C   UNL d   1     -41.522-122.623 -51.479  0.00  0.00     0.143 C 
BRANCH   4   5
ATOM      5  N   UNL d   1     -41.296-123.241 -51.975  0.00  0.00    -0.203 NA
ATOM      6  C   UNL d   1     -41.433-123.190 -52.786  0.00  0.00     0.280 C 
ATOM      7  O   UNL d   1     -41.796-122.522 -53.099  0.00  0.00    -0.265 OA
ATOM      8  C   UNL d   1     -41.207-123.809 -53.283  0.00  0.00     0.068 C 
ENDBRANCH   4   5
BRANCH   4   9
ATOM      9  C   UNL d   1     -41.211-121.868 -51.591  0.00  0.00     0.036 C 
BRANCH   9  10
ATOM     10  C   UNL d   1     -41.715-121.218 -51.623  0.00  0.00     0.096 C 
BRANCH  10  11
ATOM     11  S   UNL d   1     -41.401-120.459 -51.687  0.00  0.00     0.192 S 
ATOM     12  O   UNL d   1     -41.132-119.721 -51.963  0.00  0.00    -0.222 OA
ATOM     13  O   UNL d   1     -41.618-120.661 -52.463  0.00  0.00    -0.222 OA
ATOM     14  C   UNL d   1     -41.124-120.073 -51.015  0.00  0.00     0.145 C 
ENDBRANCH  10  11
ENDBRANCH   9  10
ENDBRANCH   4   9
ENDBRANCH   1   4
BRANCH   2  15
ATOM     15  C   UNL d   1     -42.433-123.454 -49.670  0.00  0.00     0.085 A 
ATOM     16  C   UNL d   1     -42.182-123.446 -48.879  0.00  0.00     0.018 A 
ATOM     17  C   UNL d   1     -42.714-123.582 -48.266  0.00  0.00     0.002 A 
ATOM     18  C   UNL d   1     -41.387-123.297 -48.713  0.00  0.00     0.002 A 
ATOM     19  C   UNL d   1     -42.470-123.575 -47.484  0.00  0.00     0.000 A 
ATOM     20  C   UNL d   1     -43.519-123.732 -48.447  0.00  0.00     0.000 A 
ATOM     21  C   UNL d   1     -41.669-123.426 -47.310  0.00  0.00     0.000 A 
ATOM     22  C   UNL d   1     -41.136-123.289 -47.925  0.00  0.00     0.000 A 
ATOM     23  C   UNL d   1     -43.758-123.738 -49.232  0.00  0.00     0.002 A 
ATOM     24  C   UNL d   1     -43.227-123.602 -49.839  0.00  0.00     0.019 A 
ENDBRANCH   2  15
TORSDOF 6
ENDMDL
