MODEL 1
REMARK VINA RESULT:      -4.0      0.000      0.000
REMARK  2 active torsions:
REMARK  status: ('A' for Active; 'I' for Inactive)
REMARK    1  A    between atoms: N_4  and  C_1 
REMARK    2  A    between atoms: C_11  and  C_3 
ROOT
ATOM      1  C   UNL d   1      58.032  -0.486  30.520  0.00  0.00     0.148 A 
ATOM      2  N   UNL d   1      58.461   0.135  30.237  0.00  0.00    -0.228 NA
ATOM      3  C   UNL d   1      58.731  -1.347  29.608  0.00  0.00     0.004 A 
ATOM      4  C   UNL d   1      58.169  -1.239  30.200  0.00  0.00     0.037 A 
ATOM      5  C   UNL d   1      59.158  -0.691  29.336  0.00  0.00     0.018 A 
ATOM      6  C   UNL d   1      59.021   0.061  29.656  0.00  0.00     0.083 A 
ATOM      7  C   UNL d   1      59.717  -0.801  28.745  0.00  0.00     0.002 A 
ATOM      8  C   UNL d   1      59.447   0.681  29.375  0.00  0.00     0.019 A 
ATOM      9  C   UNL d   1      60.146  -0.144  28.471  0.00  0.00     0.000 A 
ATOM     10  C   UNL d   1      60.009   0.609  28.791  0.00  0.00     0.002 A 
ENDROOT
BRANCH   1  11
ATOM     11  N   UNL d   1      57.478  -0.409  31.097  0.00  0.00    -0.286 N 
ATOM     12  C   UNL d   1      57.146  -1.050  31.511  0.00  0.00     0.101 A 
ATOM     13  C   UNL d   1      56.590  -0.975  32.091  0.00  0.00     0.100 A 
ATOM     14  N   UNL d   1      56.328  -0.214  32.291  0.00  0.00    -0.299 N 
ATOM     15  C   UNL d   1      56.639   0.427  31.898  0.00  0.00     0.100 A 
ATOM     16  C   UNL d   1      55.766  -0.129  32.876  0.00  0.00     0.100 C 
ATOM     17  C   UNL d   1      57.216   0.352  31.297  0.00  0.00     0.101 A 
ENDBRANCH   1  11
BRANCH   3  18
ATOM     18  C   UNL d   1      58.864  -2.078  29.297  0.00  0.00     0.000 A 
ATOM     19  C   UNL d   1      58.334  -2.410  28.760  0.00  0.00     0.000 A 
ATOM     20  C   UNL d   1      58.465  -3.129  28.455  0.00  0.00     0.000 A 
ATOM     21  C   UNL d   1      59.137  -3.572  28.662  0.00  0.00     0.000 A 
ATOM     22  C   UNL d   1      59.669  -3.229  29.206  0.00  0.00     0.000 A 
ATOM     23  C   UNL d   1      59.538  -2.510  29.512  0.00  0.00     0.000 A 
ENDBRANCH   3  18
TORSDOF 2
ENDMDL
MODEL 2
REMARK VINA RESULT:      -3.8      0.730      2.388
REMARK  2 active torsions:
REMARK  status: ('A' for Active; 'I' for Inactive)
REMARK    1  A    between atoms: N_4  and  C_1 
REMARK    2  A    between atoms: C_11  and  C_3 
ROOT
ATOM      1  C   UNL d   1      57.901  -0.774  30.475  0.00  0.00     0.148 A 
ATOM      2  N   UNL d   1      57.792  -1.511  30.167  0.00  0.00    -0.228 NA
ATOM      3  C   UNL d   1      59.069  -0.634  29.651  0.00  0.00     0.004 A 
ATOM      4  C   UNL d   1      58.549  -0.329  30.212  0.00  0.00     0.037 A 
ATOM      5  C   UNL d   1      58.933  -1.395  29.352  0.00  0.00     0.018 A 
ATOM      6  C   UNL d   1      58.285  -1.840  29.614  0.00  0.00     0.083 A 
ATOM      7  C   UNL d   1      59.452  -1.698  28.793  0.00  0.00     0.002 A 
ATOM      8  C   UNL d   1      58.175  -2.575  29.309  0.00  0.00     0.019 A 
ATOM      9  C   UNL d   1      59.317  -2.461  28.492  0.00  0.00     0.000 A 
ATOM     10  C   UNL d   1      58.669  -2.907  28.754  0.00  0.00     0.002 A 
ENDROOT
BRANCH   1  11
ATOM     11  N   UNL d   1      57.410  -0.451  31.023  0.00  0.00    -0.286 N 
ATOM     12  C   UNL d   1      57.195   0.353  31.039  0.00  0.00     0.101 A 
ATOM     13  C   UNL d   1      56.702   0.679  31.589  0.00  0.00     0.100 A 
ATOM     14  N   UNL d   1      56.387   0.186  32.177  0.00  0.00    -0.299 N 
ATOM     15  C   UNL d   1      56.583  -0.603  32.180  0.00  0.00     0.100 A 
ATOM     16  C   UNL d   1      55.888   0.508  32.737  0.00  0.00     0.100 C 
ATOM     17  C   UNL d   1      57.094  -0.943  31.611  0.00  0.00     0.101 A 
ENDBRANCH   1  11
BRANCH   3  18
ATOM     18  C   UNL d   1      59.698  -0.202  29.396  0.00  0.00     0.000 A 
ATOM     19  C   UNL d   1      60.408  -0.204  29.816  0.00  0.00     0.000 A 
ATOM     20  C   UNL d   1      61.027   0.222  29.566  0.00  0.00     0.000 A 
ATOM     21  C   UNL d   1      60.985   0.682  28.875  0.00  0.00     0.000 A 
ATOM     22  C   UNL d   1      60.264   0.679  28.455  0.00  0.00     0.000 A 
ATOM     23  C   UNL d   1      59.645   0.253  28.706  0.00  0.00     0.000 A 
ENDBRANCH   3  18
TORSDOF 2
ENDMDL
MODEL 3
REMARK VINA RESULT:      -1.7      1.587      2.422
REMARK  2 active torsions:
REMARK  status: ('A' for Active; 'I' for Inactive)
REMARK    1  A    between atoms: N_4  and  C_1 
REMARK    2  A    between atoms: C_11  and  C_3 
ROOT
ATOM      1  C   UNL d   1      57.447   0.113  32.144  0.00  0.00     0.148 A 
ATOM      2  N   UNL d   1      58.135   0.295  32.522  0.00  0.00    -0.228 NA
ATOM      3  C   UNL d   1      58.162   0.123  30.898  0.00  0.00     0.004 A 
ATOM      4  C   UNL d   1      57.460   0.026  31.319  0.00  0.00     0.037 A 
ATOM      5  C   UNL d   1      58.854   0.310  31.313  0.00  0.00     0.018 A 
ATOM      6  C   UNL d   1      58.841   0.397  32.137  0.00  0.00     0.083 A 
ATOM      7  C   UNL d   1      59.552   0.407  30.891  0.00  0.00     0.002 A 
ATOM      8  C   UNL d   1      59.525   0.579  32.515  0.00  0.00     0.019 A 
ATOM      9  C   UNL d   1      60.249   0.595  31.306  0.00  0.00     0.000 A 
ATOM     10  C   UNL d   1      60.235   0.682  32.130  0.00  0.00     0.002 A 
ENDROOT
BRANCH   1  11
ATOM     11  N   UNL d   1      56.748   0.012  32.529  0.00  0.00    -0.286 N 
ATOM     12  C   UNL d   1      56.452  -0.728  32.767  0.00  0.00     0.101 A 
ATOM     13  C   UNL d   1      55.751  -0.831  33.154  0.00  0.00     0.100 A 
ATOM     14  N   UNL d   1      55.294  -0.162  33.328  0.00  0.00    -0.299 N 
ATOM     15  C   UNL d   1      55.565   0.572  33.105  0.00  0.00     0.100 A 
ATOM     16  C   UNL d   1      54.584  -0.258  33.719  0.00  0.00     0.100 C 
ATOM     17  C   UNL d   1      56.292   0.681  32.703  0.00  0.00     0.101 A 
ENDBRANCH   1  11
BRANCH   3  18
ATOM     18  C   UNL d   1      58.175   0.039  30.098  0.00  0.00     0.000 A 
ATOM     19  C   UNL d   1      57.927   0.652  29.606  0.00  0.00     0.000 A 
ATOM     20  C   UNL d   1      57.941   0.569  28.818  0.00  0.00     0.000 A 
ATOM     21  C   UNL d   1      58.202  -0.134  28.461  0.00  0.00     0.000 A 
ATOM     22  C   UNL d   1      58.451  -0.751  28.966  0.00  0.00     0.000 A 
ATOM     23  C   UNL d   1      58.438  -0.667  29.753  0.00  0.00     0.000 A 
ENDBRANCH   3  18
TORSDOF 2
ENDMDL
