MODEL 1
REMARK VINA RESULT:      -7.1      0.000      0.000
REMARK  7 active torsions:
REMARK  status: ('A' for Active; 'I' for Inactive)
REMARK    1  A    between atoms: C_5  and  N_1 
REMARK    2  A    between atoms: C_3  and  N_2 
REMARK    3  A    between atoms: N_4  and  C_11 
REMARK    4  A    between atoms: C_11  and  C_17 
REMARK    5  A    between atoms: O_16  and  C_18 
REMARK    6  A    between atoms: C_20  and  O_16 
REMARK    7  A    between atoms: C_17  and  C_20 
ROOT
ATOM      1  C   UNL d   1      52.133  33.548  53.309  0.00  0.00     0.125 C 
ENDROOT
BRANCH   1   2
ATOM      2  N   UNL d   1      51.458  33.827  52.995  0.00  0.00    -0.297 N 
ATOM      3  C   UNL d   1      51.446  34.303  52.329  0.00  0.00     0.100 A 
ATOM      4  C   UNL d   1      50.764  34.585  52.012  0.00  0.00     0.100 A 
ATOM      5  N   UNL d   1      50.028  34.390  52.372  0.00  0.00    -0.299 N 
ATOM      6  C   UNL d   1      50.025  33.914  53.039  0.00  0.00     0.100 A 
ATOM      7  C   UNL d   1      50.718  33.628  53.361  0.00  0.00     0.100 A 
BRANCH   5   8
ATOM      8  C   UNL d   1      49.327  34.679  52.047  0.00  0.00     0.092 A 
ATOM      9  C   UNL d   1      48.884  35.234  52.480  0.00  0.00     0.156 A 
ATOM     10  F   UNL d   1      49.134  35.495  53.223  0.00  0.00    -0.203 F 
ATOM     11  C   UNL d   1      48.186  35.522  52.156  0.00  0.00     0.031 A 
ATOM     12  C   UNL d   1      47.925  35.277  51.427  0.00  0.00     0.002 A 
ATOM     13  C   UNL d   1      48.371  34.717  50.987  0.00  0.00     0.002 A 
ATOM     14  C   UNL d   1      49.072  34.427  51.312  0.00  0.00     0.020 A 
ENDBRANCH   5   8
ENDBRANCH   1   2
BRANCH   1  15
ATOM     15  C   UNL d   1      52.552  32.941  52.918  0.00  0.00     0.238 C 
ATOM     16  O   UNL d   1      53.065  33.181  52.168  0.00  0.00    -0.283 OA
BRANCH  15  17
ATOM     17  C   UNL d   1      52.505  32.174  53.192  0.00  0.00     0.166 C 
BRANCH  17  18
ATOM     18  O   UNL d   1      53.107  31.629  52.992  0.00  0.00    -0.302 OA
BRANCH  18  19
ATOM     19  C   UNL d   1      53.169  30.925  53.402  0.00  0.00     0.100 A 
ATOM     20  C   UNL d   1      53.595  30.878  54.107  0.00  0.00     0.026 A 
ATOM     21  C   UNL d   1      53.661  30.165  54.526  0.00  0.00     0.026 A 
ATOM     22  C   UNL d   1      53.282  29.472  54.226  0.00  0.00     0.127 A 
ATOM     23  C   UNL d   1      52.856  29.519  53.521  0.00  0.00     0.026 A 
ATOM     24  C   UNL d   1      52.796  30.248  53.104  0.00  0.00     0.026 A 
BRANCH  22  25
ATOM     25  N   UNL d   1      53.333  28.752  54.625  0.00  0.00    -0.114 N 
ATOM     26  O   UNL d   1      53.155  28.641  55.424  0.00  0.00    -0.532 OA
ATOM     27  O   UNL d   1      53.570  28.046  54.278  0.00  0.00    -0.532 OA
ENDBRANCH  22  25
ENDBRANCH  18  19
ENDBRANCH  17  18
ENDBRANCH  15  17
ENDBRANCH   1  15
TORSDOF 7
ENDMDL
MODEL 2
REMARK VINA RESULT:      -7.0      2.380      3.094
REMARK  7 active torsions:
REMARK  status: ('A' for Active; 'I' for Inactive)
REMARK    1  A    between atoms: C_5  and  N_1 
REMARK    2  A    between atoms: C_3  and  N_2 
REMARK    3  A    between atoms: N_4  and  C_11 
REMARK    4  A    between atoms: C_11  and  C_17 
REMARK    5  A    between atoms: O_16  and  C_18 
REMARK    6  A    between atoms: C_20  and  O_16 
REMARK    7  A    between atoms: C_17  and  C_20 
ROOT
ATOM      1  C   UNL d   1      50.846  34.062  52.347  0.00  0.00     0.125 C 
ENDROOT
BRANCH   1   2
ATOM      2  N   UNL d   1      50.148  34.445  52.342  0.00  0.00    -0.297 N 
ATOM      3  C   UNL d   1      49.859  34.841  52.998  0.00  0.00     0.100 A 
ATOM      4  C   UNL d   1      49.155  35.227  52.993  0.00  0.00     0.100 A 
ATOM      5  N   UNL d   1      48.689  35.231  52.292  0.00  0.00    -0.299 N 
ATOM      6  C   UNL d   1      48.966  34.839  51.628  0.00  0.00     0.100 A 
ATOM      7  C   UNL d   1      49.681  34.446  51.633  0.00  0.00     0.100 A 
BRANCH   5   8
ATOM      8  C   UNL d   1      47.966  35.627  52.287  0.00  0.00     0.092 A 
ATOM      9  C   UNL d   1      47.414  35.448  51.691  0.00  0.00     0.156 A 
ATOM     10  F   UNL d   1      47.580  34.882  51.111  0.00  0.00    -0.203 F 
ATOM     11  C   UNL d   1      46.694  35.842  51.686  0.00  0.00     0.031 A 
ATOM     12  C   UNL d   1      46.514  36.401  52.249  0.00  0.00     0.002 A 
ATOM     13  C   UNL d   1      47.069  36.585  52.851  0.00  0.00     0.002 A 
ATOM     14  C   UNL d   1      47.792  36.188  52.856  0.00  0.00     0.020 A 
ENDBRANCH   5   8
ENDBRANCH   1   2
BRANCH   1  15
ATOM     15  C   UNL d   1      51.072  33.622  53.018  0.00  0.00     0.238 C 
ATOM     16  O   UNL d   1      50.487  32.949  53.314  0.00  0.00    -0.283 OA
BRANCH  15  17
ATOM     17  C   UNL d   1      51.781  33.784  53.390  0.00  0.00     0.166 C 
BRANCH  17  18
ATOM     18  O   UNL d   1      52.248  33.153  53.675  0.00  0.00    -0.302 OA
BRANCH  18  19
ATOM     19  C   UNL d   1      52.963  33.310  54.038  0.00  0.00     0.100 A 
ATOM     20  C   UNL d   1      53.627  32.841  53.893  0.00  0.00     0.026 A 
ATOM     21  C   UNL d   1      54.354  32.996  54.259  0.00  0.00     0.026 A 
ATOM     22  C   UNL d   1      54.419  33.649  54.792  0.00  0.00     0.127 A 
ATOM     23  C   UNL d   1      53.755  34.117  54.937  0.00  0.00     0.026 A 
ATOM     24  C   UNL d   1      53.022  33.950  54.560  0.00  0.00     0.026 A 
BRANCH  22  25
ATOM     25  N   UNL d   1      55.132  33.823  55.168  0.00  0.00    -0.114 N 
ATOM     26  O   UNL d   1      55.816  34.085  54.787  0.00  0.00    -0.532 OA
ATOM     27  O   UNL d   1      55.256  33.757  55.978  0.00  0.00    -0.532 OA
ENDBRANCH  22  25
ENDBRANCH  18  19
ENDBRANCH  17  18
ENDBRANCH  15  17
ENDBRANCH   1  15
TORSDOF 7
ENDMDL
MODEL 3
REMARK VINA RESULT:      -6.8      2.787      4.480
REMARK  7 active torsions:
REMARK  status: ('A' for Active; 'I' for Inactive)
REMARK    1  A    between atoms: C_5  and  N_1 
REMARK    2  A    between atoms: C_3  and  N_2 
REMARK    3  A    between atoms: N_4  and  C_11 
REMARK    4  A    between atoms: C_11  and  C_17 
REMARK    5  A    between atoms: O_16  and  C_18 
REMARK    6  A    between atoms: C_20  and  O_16 
REMARK    7  A    between atoms: C_17  and  C_20 
ROOT
ATOM      1  C   UNL d   1      48.634  35.954  52.800  0.00  0.00     0.125 C 
ENDROOT
BRANCH   1   2
ATOM      2  N   UNL d   1      47.944  35.980  53.194  0.00  0.00    -0.297 N 
ATOM      3  C   UNL d   1      47.903  35.946  54.012  0.00  0.00     0.100 A 
ATOM      4  C   UNL d   1      47.206  35.974  54.409  0.00  0.00     0.100 A 
ATOM      5  N   UNL d   1      46.485  36.039  53.979  0.00  0.00    -0.299 N 
ATOM      6  C   UNL d   1      46.511  36.074  53.161  0.00  0.00     0.100 A 
ATOM      7  C   UNL d   1      47.219  36.047  52.757  0.00  0.00     0.100 A 
BRANCH   5   8
ATOM      8  C   UNL d   1      45.769  36.067  54.388  0.00  0.00     0.092 A 
ATOM      9  C   UNL d   1      45.214  35.460  54.268  0.00  0.00     0.156 A 
ATOM     10  F   UNL d   1      45.371  34.835  53.749  0.00  0.00    -0.203 F 
ATOM     11  C   UNL d   1      44.502  35.488  54.675  0.00  0.00     0.031 A 
ATOM     12  C   UNL d   1      44.331  36.094  55.189  0.00  0.00     0.002 A 
ATOM     13  C   UNL d   1      44.889  36.709  55.312  0.00  0.00     0.002 A 
ATOM     14  C   UNL d   1      45.605  36.681  54.904  0.00  0.00     0.020 A 
ENDBRANCH   5   8
ENDBRANCH   1   2
BRANCH   1  15
ATOM     15  C   UNL d   1      48.915  35.226  52.503  0.00  0.00     0.238 C 
ATOM     16  O   UNL d   1      48.464  34.855  51.767  0.00  0.00    -0.283 OA
BRANCH  15  17
ATOM     17  C   UNL d   1      49.557  34.865  52.854  0.00  0.00     0.166 C 
BRANCH  17  18
ATOM     18  O   UNL d   1      50.108  34.456  52.377  0.00  0.00    -0.302 OA
BRANCH  18  19
ATOM     19  C   UNL d   1      50.770  34.120  52.719  0.00  0.00     0.100 A 
ATOM     20  C   UNL d   1      50.726  33.394  53.108  0.00  0.00     0.026 A 
ATOM     21  C   UNL d   1      51.395  33.049  53.457  0.00  0.00     0.026 A 
ATOM     22  C   UNL d   1      52.138  33.450  53.413  0.00  0.00     0.127 A 
ATOM     23  C   UNL d   1      52.181  34.176  53.024  0.00  0.00     0.026 A 
ATOM     24  C   UNL d   1      51.496  34.516  52.674  0.00  0.00     0.026 A 
BRANCH  22  25
ATOM     25  N   UNL d   1      52.817  33.126  53.753  0.00  0.00    -0.114 N 
ATOM     26  O   UNL d   1      53.253  32.501  53.435  0.00  0.00    -0.532 OA
ATOM     27  O   UNL d   1      53.149  33.385  54.458  0.00  0.00    -0.532 OA
ENDBRANCH  22  25
ENDBRANCH  18  19
ENDBRANCH  17  18
ENDBRANCH  15  17
ENDBRANCH   1  15
TORSDOF 7
ENDMDL
MODEL 4
REMARK VINA RESULT:      -6.3      2.137      3.709
REMARK  7 active torsions:
REMARK  status: ('A' for Active; 'I' for Inactive)
REMARK    1  A    between atoms: C_5  and  N_1 
REMARK    2  A    between atoms: C_3  and  N_2 
REMARK    3  A    between atoms: N_4  and  C_11 
REMARK    4  A    between atoms: C_11  and  C_17 
REMARK    5  A    between atoms: O_16  and  C_18 
REMARK    6  A    between atoms: C_20  and  O_16 
REMARK    7  A    between atoms: C_17  and  C_20 
ROOT
ATOM      1  C   UNL d   1      49.179  35.257  51.876  0.00  0.00     0.125 C 
ENDROOT
BRANCH   1   2
ATOM      2  N   UNL d   1      48.398  35.367  51.779  0.00  0.00    -0.297 N 
ATOM      3  C   UNL d   1      47.983  35.954  52.173  0.00  0.00     0.100 A 
ATOM      4  C   UNL d   1      47.194  36.064  52.075  0.00  0.00     0.100 A 
ATOM      5  N   UNL d   1      46.767  35.562  51.550  0.00  0.00    -0.299 N 
ATOM      6  C   UNL d   1      47.168  34.971  51.150  0.00  0.00     0.100 A 
ATOM      7  C   UNL d   1      47.970  34.859  51.249  0.00  0.00     0.100 A 
BRANCH   5   8
ATOM      8  C   UNL d   1      45.956  35.676  51.450  0.00  0.00     0.092 A 
ATOM      9  C   UNL d   1      45.437  35.400  52.038  0.00  0.00     0.156 A 
ATOM     10  F   UNL d   1      45.721  35.017  52.714  0.00  0.00    -0.203 F 
ATOM     11  C   UNL d   1      44.630  35.512  51.938  0.00  0.00     0.031 A 
ATOM     12  C   UNL d   1      44.333  35.886  51.280  0.00  0.00     0.002 A 
ATOM     13  C   UNL d   1      44.854  36.166  50.685  0.00  0.00     0.002 A 
ATOM     14  C   UNL d   1      45.665  36.053  50.785  0.00  0.00     0.020 A 
ENDBRANCH   5   8
ENDBRANCH   1   2
BRANCH   1  15
ATOM     15  C   UNL d   1      49.476  35.015  52.617  0.00  0.00     0.238 C 
ATOM     16  O   UNL d   1      49.201  35.500  53.374  0.00  0.00    -0.283 OA
BRANCH  15  17
ATOM     17  C   UNL d   1      49.985  34.379  52.663  0.00  0.00     0.166 C 
BRANCH  17  18
ATOM     18  O   UNL d   1      50.691  34.450  53.103  0.00  0.00    -0.302 OA
BRANCH  18  19
ATOM     19  C   UNL d   1      51.247  33.852  53.077  0.00  0.00     0.100 A 
ATOM     20  C   UNL d   1      51.051  33.077  53.285  0.00  0.00     0.026 A 
ATOM     21  C   UNL d   1      51.612  32.467  53.259  0.00  0.00     0.026 A 
ATOM     22  C   UNL d   1      52.402  32.641  53.015  0.00  0.00     0.127 A 
ATOM     23  C   UNL d   1      52.598  33.415  52.806  0.00  0.00     0.026 A 
ATOM     24  C   UNL d   1      52.020  34.026  52.836  0.00  0.00     0.026 A 
BRANCH  22  25
ATOM     25  N   UNL d   1      52.977  32.050  52.981  0.00  0.00    -0.114 N 
ATOM     26  O   UNL d   1      53.712  32.083  53.357  0.00  0.00    -0.532 OA
ATOM     27  O   UNL d   1      52.893  31.346  52.566  0.00  0.00    -0.532 OA
ENDBRANCH  22  25
ENDBRANCH  18  19
ENDBRANCH  17  18
ENDBRANCH  15  17
ENDBRANCH   1  15
TORSDOF 7
ENDMDL
MODEL 5
REMARK VINA RESULT:      -5.7      2.993      6.445
REMARK  7 active torsions:
REMARK  status: ('A' for Active; 'I' for Inactive)
REMARK    1  A    between atoms: C_5  and  N_1 
REMARK    2  A    between atoms: C_3  and  N_2 
REMARK    3  A    between atoms: N_4  and  C_11 
REMARK    4  A    between atoms: C_11  and  C_17 
REMARK    5  A    between atoms: O_16  and  C_18 
REMARK    6  A    between atoms: C_20  and  O_16 
REMARK    7  A    between atoms: C_17  and  C_20 
ROOT
ATOM      1  C   UNL d   1      50.733  33.467  52.913  0.00  0.00     0.125 C 
ENDROOT
BRANCH   1   2
ATOM      2  N   UNL d   1      51.452  33.456  53.253  0.00  0.00    -0.297 N 
ATOM      3  C   UNL d   1      51.798  34.126  53.571  0.00  0.00     0.100 A 
ATOM      4  C   UNL d   1      52.525  34.114  53.914  0.00  0.00     0.100 A 
ATOM      5  N   UNL d   1      52.954  33.391  53.952  0.00  0.00    -0.299 N 
ATOM      6  C   UNL d   1      52.620  32.712  53.637  0.00  0.00     0.100 A 
ATOM      7  C   UNL d   1      51.882  32.724  53.289  0.00  0.00     0.100 A 
BRANCH   5   8
ATOM      8  C   UNL d   1      53.700  33.379  54.304  0.00  0.00     0.092 A 
ATOM      9  C   UNL d   1      54.373  33.359  53.817  0.00  0.00     0.156 A 
ATOM     10  F   UNL d   1      54.304  33.352  52.993  0.00  0.00    -0.203 F 
ATOM     11  C   UNL d   1      55.116  33.348  54.167  0.00  0.00     0.031 A 
ATOM     12  C   UNL d   1      55.202  33.354  54.975  0.00  0.00     0.002 A 
ATOM     13  C   UNL d   1      54.524  33.374  55.470  0.00  0.00     0.002 A 
ATOM     14  C   UNL d   1      53.778  33.386  55.118  0.00  0.00     0.020 A 
ENDBRANCH   5   8
ENDBRANCH   1   2
BRANCH   1  15
ATOM     15  C   UNL d   1      50.522  34.097  52.408  0.00  0.00     0.238 C 
ATOM     16  O   UNL d   1      51.068  34.255  51.660  0.00  0.00    -0.283 OA
BRANCH  15  17
ATOM     17  C   UNL d   1      49.863  34.548  52.575  0.00  0.00     0.166 C 
BRANCH  17  18
ATOM     18  O   UNL d   1      49.348  34.768  51.955  0.00  0.00    -0.302 OA
BRANCH  18  19
ATOM     19  C   UNL d   1      48.663  35.179  52.124  0.00  0.00     0.100 A 
ATOM     20  C   UNL d   1      48.576  35.592  52.833  0.00  0.00     0.026 A 
ATOM     21  C   UNL d   1      47.883  36.011  53.009  0.00  0.00     0.026 A 
ATOM     22  C   UNL d   1      47.250  36.017  52.449  0.00  0.00     0.127 A 
ATOM     23  C   UNL d   1      47.336  35.604  51.739  0.00  0.00     0.026 A 
ATOM     24  C   UNL d   1      48.045  35.183  51.573  0.00  0.00     0.026 A 
BRANCH  22  25
ATOM     25  N   UNL d   1      46.550  36.427  52.601  0.00  0.00    -0.114 N 
ATOM     26  O   UNL d   1      46.264  36.609  53.354  0.00  0.00    -0.532 OA
ATOM     27  O   UNL d   1      46.044  36.710  52.019  0.00  0.00    -0.532 OA
ENDBRANCH  22  25
ENDBRANCH  18  19
ENDBRANCH  17  18
ENDBRANCH  15  17
ENDBRANCH   1  15
TORSDOF 7
ENDMDL
