MODEL 1
REMARK VINA RESULT:      33.2      0.000      0.000
REMARK  3 active torsions:
REMARK  status: ('A' for Active; 'I' for Inactive)
REMARK    1  A    between atoms: N_2  and  S_1 
REMARK    2  A    between atoms: C_3  and  S_1 
REMARK    3  A    between atoms: O_16  and  C_9 
ROOT
ATOM      1  S   UNL d   1      46.015 -17.798  43.348  0.00  0.00     0.274 S 
ATOM      2  O   UNL d   1      45.397 -17.541  42.866  0.00  0.00    -0.199 OA
ATOM      3  O   UNL d   1      46.634 -18.050  43.838  0.00  0.00    -0.199 OA
ENDROOT
BRANCH   1   4
ATOM      4  N   UNL d   1      45.856 -17.182  43.881  0.00  0.00    -0.214 N 
ATOM      5  C   UNL d   1      45.483 -17.259  44.613  0.00  0.00     0.157 A 
ATOM      6  N   UNL d   1      45.440 -16.509  44.954  0.00  0.00    -0.226 NA
ATOM      7  C   UNL d   1      45.201 -17.957  44.949  0.00  0.00     0.041 C 
ATOM      8  C   UNL d   1      45.787 -15.969  44.434  0.00  0.00     0.100 A 
ATOM      9  C   UNL d   1      46.041 -16.383  43.776  0.00  0.00     0.094 A 
ATOM     10  C   UNL d   1      45.899 -15.153  44.483  0.00  0.00     0.021 A 
ATOM     11  C   UNL d   1      46.414 -15.983  43.154  0.00  0.00     0.020 A 
ATOM     12  C   UNL d   1      46.531 -15.170  43.194  0.00  0.00     0.002 A 
ATOM     13  C   UNL d   1      46.272 -14.753  43.862  0.00  0.00     0.002 A 
ENDBRANCH   1   4
BRANCH   1  14
ATOM     14  C   UNL d   1      46.174 -18.411  42.817  0.00  0.00     0.126 A 
ATOM     15  C   UNL d   1      46.281 -18.248  42.017  0.00  0.00     0.015 A 
ATOM     16  C   UNL d   1      46.440 -18.861  41.487  0.00  0.00     0.001 A 
ATOM     17  C   UNL d   1      46.545 -18.696  40.698  0.00  0.00     0.000 C 
ATOM     18  C   UNL d   1      46.490 -19.641  41.763  0.00  0.00     0.002 A 
ATOM     19  C   UNL d   1      46.383 -19.804  42.563  0.00  0.00     0.025 A 
ATOM     20  C   UNL d   1      46.647 -20.244  41.238  0.00  0.00     0.000 C 
ATOM     21  C   UNL d   1      46.225 -19.189  43.090  0.00  0.00     0.106 A 
BRANCH  21  22
ATOM     22  O   UNL d   1      46.117 -19.349  43.887  0.00  0.00    -0.327 OA
ATOM     23  C   UNL d   1      46.383 -20.053  44.199  0.00  0.00     0.181 C 
ENDBRANCH  21  22
ENDBRANCH   1  14
TORSDOF 3
ENDMDL
MODEL 2
REMARK VINA RESULT:      33.4      1.207      2.013
REMARK  3 active torsions:
REMARK  status: ('A' for Active; 'I' for Inactive)
REMARK    1  A    between atoms: N_2  and  S_1 
REMARK    2  A    between atoms: C_3  and  S_1 
REMARK    3  A    between atoms: O_16  and  C_9 
ROOT
ATOM      1  S   UNL d   1      45.531 -16.865  44.152  0.00  0.00     0.274 S 
ATOM      2  O   UNL d   1      46.126 -16.821  44.723  0.00  0.00    -0.199 OA
ATOM      3  O   UNL d   1      44.931 -16.902  43.582  0.00  0.00    -0.199 OA
ENDROOT
BRANCH   1   4
ATOM      4  N   UNL d   1      45.250 -16.120  44.387  0.00  0.00    -0.214 N 
ATOM      5  C   UNL d   1      44.526 -15.968  44.751  0.00  0.00     0.157 A 
ATOM      6  N   UNL d   1      44.476 -15.156  44.885  0.00  0.00    -0.226 NA
ATOM      7  C   UNL d   1      43.949 -16.524  44.948  0.00  0.00     0.041 C 
ATOM      8  C   UNL d   1      45.170 -14.806  44.605  0.00  0.00     0.100 A 
ATOM      9  C   UNL d   1      45.644 -15.399  44.300  0.00  0.00     0.094 A 
ATOM     10  C   UNL d   1      45.423 -14.021  44.592  0.00  0.00     0.021 A 
ATOM     11  C   UNL d   1      46.383 -15.211  43.976  0.00  0.00     0.020 A 
ATOM     12  C   UNL d   1      46.644 -14.432  43.958  0.00  0.00     0.002 A 
ATOM     13  C   UNL d   1      46.162 -13.833  44.269  0.00  0.00     0.002 A 
ENDBRANCH   1   4
BRANCH   1  14
ATOM     14  C   UNL d   1      45.810 -17.607  43.919  0.00  0.00     0.126 A 
ATOM     15  C   UNL d   1      46.084 -18.142  44.482  0.00  0.00     0.015 A 
ATOM     16  C   UNL d   1      46.363 -18.884  44.248  0.00  0.00     0.001 A 
ATOM     17  C   UNL d   1      46.632 -19.408  44.807  0.00  0.00     0.000 C 
ATOM     18  C   UNL d   1      46.367 -19.086  43.445  0.00  0.00     0.002 A 
ATOM     19  C   UNL d   1      46.094 -18.551  42.881  0.00  0.00     0.025 A 
ATOM     20  C   UNL d   1      46.643 -19.818  43.216  0.00  0.00     0.000 C 
ATOM     21  C   UNL d   1      45.815 -17.811  43.119  0.00  0.00     0.106 A 
BRANCH  21  22
ATOM     22  O   UNL d   1      45.543 -17.277  42.559  0.00  0.00    -0.327 OA
ATOM     23  C   UNL d   1      45.470 -17.505  41.781  0.00  0.00     0.181 C 
ENDBRANCH  21  22
ENDBRANCH   1  14
TORSDOF 3
ENDMDL
MODEL 3
REMARK VINA RESULT:      34.3      2.611      3.876
REMARK  3 active torsions:
REMARK  status: ('A' for Active; 'I' for Inactive)
REMARK    1  A    between atoms: N_2  and  S_1 
REMARK    2  A    between atoms: C_3  and  S_1 
REMARK    3  A    between atoms: O_16  and  C_9 
ROOT
ATOM      1  S   UNL d   1      45.611 -14.586  44.093  0.00  0.00     0.274 S 
ATOM      2  O   UNL d   1      46.352 -14.736  43.763  0.00  0.00    -0.199 OA
ATOM      3  O   UNL d   1      44.867 -14.428  44.423  0.00  0.00    -0.199 OA
ENDROOT
BRANCH   1   4
ATOM      4  N   UNL d   1      45.683 -13.784  43.892  0.00  0.00    -0.214 N 
ATOM      5  C   UNL d   1      46.143 -13.225  44.286  0.00  0.00     0.157 A 
ATOM      6  N   UNL d   1      46.050 -12.503  43.899  0.00  0.00    -0.226 NA
ATOM      7  C   UNL d   1      46.615 -13.358  44.950  0.00  0.00     0.041 C 
ATOM      8  C   UNL d   1      45.532 -12.615  43.265  0.00  0.00     0.100 A 
ATOM      9  C   UNL d   1      45.308 -13.402  43.262  0.00  0.00     0.094 A 
ATOM     10  C   UNL d   1      45.242 -12.095  42.694  0.00  0.00     0.021 A 
ATOM     11  C   UNL d   1      44.785 -13.680  42.683  0.00  0.00     0.020 A 
ATOM     12  C   UNL d   1      44.490 -13.170  42.110  0.00  0.00     0.002 A 
ATOM     13  C   UNL d   1      44.719 -12.373  42.115  0.00  0.00     0.002 A 
ENDBRANCH   1   4
BRANCH   1  14
ATOM     14  C   UNL d   1      45.539 -15.385  44.294  0.00  0.00     0.126 A 
ATOM     15  C   UNL d   1      46.122 -15.921  44.068  0.00  0.00     0.015 A 
ATOM     16  C   UNL d   1      46.050 -16.720  44.269  0.00  0.00     0.001 A 
ATOM     17  C   UNL d   1      46.627 -17.246  44.045  0.00  0.00     0.000 C 
ATOM     18  C   UNL d   1      45.389 -16.977  44.697  0.00  0.00     0.002 A 
ATOM     19  C   UNL d   1      44.806 -16.441  44.922  0.00  0.00     0.025 A 
ATOM     20  C   UNL d   1      45.320 -17.765  44.894  0.00  0.00     0.000 C 
ATOM     21  C   UNL d   1      44.881 -15.644  44.720  0.00  0.00     0.106 A 
BRANCH  21  22
ATOM     22  O   UNL d   1      44.302 -15.108  44.944  0.00  0.00    -0.327 OA
ATOM     23  C   UNL d   1      43.518 -15.327  44.928  0.00  0.00     0.181 C 
ENDBRANCH  21  22
ENDBRANCH   1  14
TORSDOF 3
ENDMDL
