MODEL 1
REMARK VINA RESULT:      58.0      0.000      0.000
REMARK  7 active torsions:
REMARK  status: ('A' for Active; 'I' for Inactive)
REMARK    1  A    between atoms: C_2  and  C_1 
REMARK    2  A    between atoms: C_16  and  N_4 
REMARK    3  A    between atoms: C_14  and  C_21 
REMARK    4  A    between atoms: C_22  and  C_16 
REMARK    5  A    between atoms: C_21  and  C_23 
REMARK    6  A    between atoms: C_25  and  C_22 
REMARK    7  A    between atoms: C_23  and  C_25 
ROOT
ATOM      1  C   UNL d   1      58.943  49.255  50.936  0.00  0.00     0.093 A 
ATOM      2  N   UNL d   1      60.107  48.696  50.716  0.00  0.00    -0.259 N 
ATOM      3  C   UNL d   1      60.229  49.354  51.176  0.00  0.00     0.153 A 
ATOM      4  C   UNL d   1      59.315  48.638  50.570  0.00  0.00     0.272 A 
ATOM      5  S   UNL d   1      59.503  49.702  51.312  0.00  0.00    -0.053 SA
ATOM      6  S   UNL d   1      60.971  49.608  51.447  0.00  0.00    -0.052 SA
ATOM      7  O   UNL d   1      58.942  48.031  50.112  0.00  0.00    -0.266 OA
ENDROOT
BRANCH   1   8
ATOM      8  C   UNL d   1      58.114  49.336  50.879  0.00  0.00     0.069 A 
ATOM      9  C   UNL d   1      57.604  49.299  51.526  0.00  0.00     0.265 A 
ATOM     10  N   UNL d   1      56.846  49.398  51.269  0.00  0.00    -0.272 N 
ATOM     11  O   UNL d   1      57.831  49.179  52.322  0.00  0.00    -0.267 OA
ATOM     12  C   UNL d   1      56.164  49.397  51.758  0.00  0.00     0.102 C 
ATOM     13  C   UNL d   1      56.867  49.499  50.456  0.00  0.00     0.067 A 
ATOM     14  C   UNL d   1      57.663  49.460  50.211  0.00  0.00     0.021 A 
ATOM     15  C   UNL d   1      56.281  49.620  49.906  0.00  0.00     0.018 A 
ATOM     16  C   UNL d   1      57.850  49.544  49.412  0.00  0.00     0.002 A 
ATOM     17  C   UNL d   1      57.274  49.667  48.836  0.00  0.00     0.000 A 
ATOM     18  C   UNL d   1      56.471  49.705  49.099  0.00  0.00     0.002 A 
ENDBRANCH   1   8
BRANCH   2  19
ATOM     19  C   UNL d   1      60.705  48.176  50.447  0.00  0.00     0.084 C 
BRANCH  19  20
ATOM     20  C   UNL d   1      60.781  47.447  50.791  0.00  0.00     0.019 C 
BRANCH  20  21
ATOM     21  C   UNL d   1      61.544  47.142  50.938  0.00  0.00     0.002 C 
BRANCH  21  22
ATOM     22  C   UNL d   1      61.709  46.374  50.741  0.00  0.00     0.006 C 
BRANCH  22  23
ATOM     23  C   UNL d   1      61.157  45.941  50.287  0.00  0.00     0.070 C 
BRANCH  23  24
ATOM     24  C   UNL d   1      61.415  45.367  49.777  0.00  0.00     0.211 C 
ATOM     25  O   UNL d   1      61.285  44.567  49.949  0.00  0.00    -0.644 OA
ATOM     26  O   UNL d   1      61.808  45.560  49.083  0.00  0.00    -0.644 OA
ENDBRANCH  23  24
ENDBRANCH  22  23
ENDBRANCH  21  22
ENDBRANCH  20  21
ENDBRANCH  19  20
ENDBRANCH   2  19
TORSDOF 7
ENDMDL
