MODEL 1
REMARK VINA RESULT:      29.3      0.000      0.000
REMARK  3 active torsions:
REMARK  status: ('A' for Active; 'I' for Inactive)
REMARK    1  A    between atoms: C_15  and  N_5 
REMARK    2  A    between atoms: C_21  and  C_15 
REMARK    3  A    between atoms: O_20  and  C_21 
ROOT
ATOM      1  C   UNL d   1      46.041 -16.795  43.714  0.00  0.00     0.137 A 
ATOM      2  C   UNL d   1      45.802 -16.853  44.502  0.00  0.00     0.192 A 
ATOM      3  C   UNL d   1      46.067 -16.070  43.341  0.00  0.00     0.272 A 
ATOM      4  N   UNL d   1      45.587 -16.176  44.919  0.00  0.00    -0.204 NA
ATOM      5  N   UNL d   1      45.848 -15.380  43.762  0.00  0.00    -0.256 N 
ATOM      6  C   UNL d   1      46.257 -17.473  43.297  0.00  0.00     0.205 A 
ATOM      7  C   UNL d   1      45.613 -15.443  44.541  0.00  0.00     0.152 A 
ATOM      8  C   UNL d   1      46.234 -18.210  43.667  0.00  0.00     0.062 A 
ATOM      9  O   UNL d   1      45.782 -17.594  44.865  0.00  0.00    -0.289 OA
ATOM     10  C   UNL d   1      45.995 -18.268  44.455  0.00  0.00     0.105 A 
ATOM     11  O   UNL d   1      46.306 -16.012  42.553  0.00  0.00    -0.266 OA
ATOM     12  O   UNL d   1      46.496 -17.423  42.513  0.00  0.00    -0.286 OA
ATOM     13  C   UNL d   1      46.450 -18.884  43.247  0.00  0.00     0.012 A 
ATOM     14  C   UNL d   1      45.973 -19.001  44.823  0.00  0.00     0.025 A 
ATOM     15  C   UNL d   1      46.427 -19.625  43.619  0.00  0.00     0.035 A 
ATOM     16  C   UNL d   1      45.398 -14.766  44.955  0.00  0.00     0.041 C 
ATOM     17  C   UNL d   1      46.188 -19.680  44.405  0.00  0.00     0.009 A 
ATOM     18 BR   UNL d   1      46.646 -20.315  43.198  0.00  0.00    -0.049 Br
ENDROOT
BRANCH   5  19
ATOM     19  C   UNL d   1      45.872 -14.639  43.390  0.00  0.00     0.111 C 
BRANCH  19  20
ATOM     20  C   UNL d   1      45.355 -14.042  43.629  0.00  0.00     0.135 C 
BRANCH  20  21
ATOM     21  O   UNL d   1      45.498 -13.260  43.406  0.00  0.00    -0.325 OA
ATOM     22  C   UNL d   1      44.883 -12.797  43.111  0.00  0.00     0.182 C 
ENDBRANCH  20  21
ENDBRANCH  19  20
ENDBRANCH   5  19
TORSDOF 3
ENDMDL
MODEL 2
REMARK VINA RESULT:      32.1      0.739      1.002
REMARK  3 active torsions:
REMARK  status: ('A' for Active; 'I' for Inactive)
REMARK    1  A    between atoms: C_15  and  N_5 
REMARK    2  A    between atoms: C_21  and  C_15 
REMARK    3  A    between atoms: O_20  and  C_21 
ROOT
ATOM      1  C   UNL d   1      46.046 -15.801  43.773  0.00  0.00     0.137 A 
ATOM      2  C   UNL d   1      45.753 -15.820  44.544  0.00  0.00     0.192 A 
ATOM      3  C   UNL d   1      46.122 -15.092  43.375  0.00  0.00     0.272 A 
ATOM      4  N   UNL d   1      45.534 -15.120  44.920  0.00  0.00    -0.204 NA
ATOM      5  N   UNL d   1      45.900 -14.379  43.755  0.00  0.00    -0.256 N 
ATOM      6  C   UNL d   1      46.267 -16.501  43.396  0.00  0.00     0.205 A 
ATOM      7  C   UNL d   1      45.610 -14.404  44.518  0.00  0.00     0.152 A 
ATOM      8  C   UNL d   1      46.193 -17.222  43.791  0.00  0.00     0.062 A 
ATOM      9  O   UNL d   1      45.684 -16.545  44.932  0.00  0.00    -0.289 OA
ATOM     10  C   UNL d   1      45.900 -17.241  44.562  0.00  0.00     0.105 A 
ATOM     11  O   UNL d   1      46.415 -15.073  42.604  0.00  0.00    -0.266 OA
ATOM     12  O   UNL d   1      46.559 -16.489  42.629  0.00  0.00    -0.286 OA
ATOM     13  C   UNL d   1      46.414 -17.918  43.411  0.00  0.00     0.012 A 
ATOM     14  C   UNL d   1      45.828 -17.958  44.954  0.00  0.00     0.025 A 
ATOM     15  C   UNL d   1      46.340 -18.643  43.809  0.00  0.00     0.035 A 
ATOM     16  C   UNL d   1      45.392 -13.705  44.891  0.00  0.00     0.041 C 
ATOM     17  C   UNL d   1      46.048 -18.659  44.578  0.00  0.00     0.009 A 
ATOM     18 BR   UNL d   1      46.563 -19.355  43.429  0.00  0.00    -0.049 Br
ENDROOT
BRANCH   5  19
ATOM     19  C   UNL d   1      45.973 -13.654  43.358  0.00  0.00     0.111 C 
BRANCH  19  20
ATOM     20  C   UNL d   1      45.334 -13.133  43.330  0.00  0.00     0.135 C 
BRANCH  20  21
ATOM     21  O   UNL d   1      45.169 -12.720  42.635  0.00  0.00    -0.325 OA
ATOM     22  C   UNL d   1      44.586 -12.137  42.631  0.00  0.00     0.182 C 
ENDBRANCH  20  21
ENDBRANCH  19  20
ENDBRANCH   5  19
TORSDOF 3
ENDMDL
MODEL 3
REMARK VINA RESULT:      32.1      1.994      4.096
REMARK  3 active torsions:
REMARK  status: ('A' for Active; 'I' for Inactive)
REMARK    1  A    between atoms: C_15  and  N_5 
REMARK    2  A    between atoms: C_21  and  C_15 
REMARK    3  A    between atoms: O_20  and  C_21 
ROOT
ATOM      1  C   UNL d   1      45.834 -17.725  43.567  0.00  0.00     0.137 A 
ATOM      2  C   UNL d   1      46.187 -17.766  44.311  0.00  0.00     0.192 A 
ATOM      3  C   UNL d   1      45.749 -18.395  43.109  0.00  0.00     0.272 A 
ATOM      4  N   UNL d   1      46.459 -18.489  44.599  0.00  0.00    -0.204 NA
ATOM      5  N   UNL d   1      46.024 -19.132  43.399  0.00  0.00    -0.256 N 
ATOM      6  C   UNL d   1      45.561 -17.001  43.277  0.00  0.00     0.205 A 
ATOM      7  C   UNL d   1      46.374 -19.167  44.137  0.00  0.00     0.152 A 
ATOM      8  C   UNL d   1      45.643 -16.319  43.733  0.00  0.00     0.062 A 
ATOM      9  O   UNL d   1      46.265 -17.078  44.760  0.00  0.00    -0.289 OA
ATOM     10  C   UNL d   1      45.997 -16.360  44.477  0.00  0.00     0.105 A 
ATOM     11  O   UNL d   1      45.395 -18.354  42.365  0.00  0.00    -0.266 OA
ATOM     12  O   UNL d   1      45.208 -16.953  42.538  0.00  0.00    -0.286 OA
ATOM     13  C   UNL d   1      45.370 -15.599  43.441  0.00  0.00     0.012 A 
ATOM     14  C   UNL d   1      46.078 -15.681  44.930  0.00  0.00     0.025 A 
ATOM     15  C   UNL d   1      45.452 -14.912  43.900  0.00  0.00     0.035 A 
ATOM     16  C   UNL d   1      46.644 -19.888  44.422  0.00  0.00     0.041 C 
ATOM     17  C   UNL d   1      45.805 -14.957  44.642  0.00  0.00     0.009 A 
ATOM     18 BR   UNL d   1      45.176 -14.177  43.609  0.00  0.00    -0.049 Br
ENDROOT
BRANCH   5  19
ATOM     19  C   UNL d   1      45.942 -19.818  42.942  0.00  0.00     0.111 C 
BRANCH  19  20
ATOM     20  C   UNL d   1      45.936 -19.765  42.118  0.00  0.00     0.135 C 
BRANCH  20  21
ATOM     21  O   UNL d   1      46.525 -20.137  41.677  0.00  0.00    -0.325 OA
ATOM     22  C   UNL d   1      46.644 -19.926  40.888  0.00  0.00     0.182 C 
ENDBRANCH  20  21
ENDBRANCH  19  20
ENDBRANCH   5  19
TORSDOF 3
ENDMDL
