MODEL 1
REMARK VINA RESULT:      64.8      0.000      0.000
REMARK  2 active torsions:
REMARK  status: ('A' for Active; 'I' for Inactive)
REMARK    1  A    between atoms: N_2  and  S_1 
REMARK    2  A    between atoms: C_4  and  S_1 
ROOT
ATOM      1  S   UNL d   1     -55.216-100.574 -43.284  0.00  0.00     0.273 S 
ATOM      2  O   UNL d   1     -54.961-101.336 -43.463  0.00  0.00    -0.200 OA
ATOM      3  O   UNL d   1     -55.347-100.362 -42.498  0.00  0.00    -0.200 OA
ENDROOT
BRANCH   1   4
ATOM      4  N   UNL d   1     -55.339-100.027 -43.889  0.00  0.00    -0.212 N 
ATOM      5  C   UNL d   1     -54.713 -99.836 -44.405  0.00  0.00     0.193 A 
ATOM      6  N   UNL d   1     -54.837 -99.283 -45.015  0.00  0.00    -0.223 NA
ATOM      7  C   UNL d   1     -56.200 -99.120 -44.592  0.00  0.00     0.100 A 
ATOM      8  C   UNL d   1     -56.089 -99.666 -43.984  0.00  0.00     0.094 A 
ATOM      9  C   UNL d   1     -56.949 -98.762 -44.684  0.00  0.00     0.021 A 
ATOM     10  C   UNL d   1     -56.703 -99.859 -43.471  0.00  0.00     0.020 A 
ATOM     11  C   UNL d   1     -57.445 -99.504 -43.562  0.00  0.00     0.002 A 
ATOM     12  C   UNL d   1     -57.568 -98.955 -44.169  0.00  0.00     0.002 A 
ENDBRANCH   1   4
BRANCH   1  13
ATOM     13  C   UNL d   1     -55.091-101.125 -42.694  0.00  0.00     0.104 A 
ATOM     14  C   UNL d   1     -54.977-101.919 -42.894  0.00  0.00     0.012 A 
ATOM     15  C   UNL d   1     -54.851-102.476 -42.310  0.00  0.00     0.001 A 
ATOM     16  C   UNL d   1     -54.991-102.142 -43.685  0.00  0.00     0.001 C 
ATOM     17  C   UNL d   1     -54.837-102.247 -41.513  0.00  0.00     0.000 A 
ATOM     18  C   UNL d   1     -54.951-101.454 -41.310  0.00  0.00     0.001 A 
ATOM     19  C   UNL d   1     -54.711-102.805 -40.926  0.00  0.00     0.000 C 
ATOM     20  C   UNL d   1     -55.077-100.898 -41.906  0.00  0.00     0.013 A 
ENDBRANCH   1  13
TORSDOF 2
ENDMDL
