MODEL 1
REMARK VINA RESULT:      68.7      0.000      0.000
REMARK  3 active torsions:
REMARK  status: ('A' for Active; 'I' for Inactive)
REMARK    1  A    between atoms: C_9  and  S_1 
REMARK    2  A    between atoms: S_2  and  C_8 
REMARK    3  A    between atoms: N_14  and  C_5 
ROOT
ATOM      1  C   UNL d   1     -55.108-101.430 -42.011  0.00  0.00     0.021 A 
ATOM      2  C   UNL d   1     -55.086-100.784 -43.201  0.00  0.00     0.021 A 
ATOM      3  C   UNL d   1     -55.220-101.512 -42.802  0.00  0.00     0.111 A 
ATOM      4  C   UNL d   1     -54.886-100.250 -42.611  0.00  0.00     0.002 A 
ATOM      5  C   UNL d   1     -54.889-100.609 -41.870  0.00  0.00     0.002 A 
ATOM      6  C   UNL d   1     -54.959 -99.796 -44.220  0.00  0.00     0.107 A 
ATOM      7  C   UNL d   1     -55.001-101.651 -40.607  0.00  0.00     0.107 A 
ATOM      8  C   UNL d   1     -55.125-100.577 -43.984  0.00  0.00     0.015 A 
ATOM      9  C   UNL d   1     -55.164-101.946 -41.389  0.00  0.00     0.015 A 
ATOM     10  C   UNL d   1     -54.738-100.346 -41.119  0.00  0.00     0.001 A 
ATOM     11  C   UNL d   1     -54.716 -99.448 -42.863  0.00  0.00     0.001 A 
ATOM     12  C   UNL d   1     -54.791-100.858 -40.483  0.00  0.00     0.013 A 
ATOM     13  C   UNL d   1     -54.756 -99.246 -43.640  0.00  0.00     0.013 A 
ENDROOT
BRANCH   6  14
ATOM     14  S   UNL d   1     -55.006 -99.604 -45.043  0.00  0.00     0.302 S 
ATOM     15  O   UNL d   1     -55.141-100.407 -45.209  0.00  0.00    -0.197 OA
ATOM     16  O   UNL d   1     -54.868 -98.775 -44.885  0.00  0.00    -0.197 OA
ATOM     17  N   UNL d   1     -55.054 -99.413 -45.872  0.00  0.00    -0.043 N 
ENDBRANCH   6  14
BRANCH   3  18
ATOM     18  N   UNL d   1     -55.448-102.285 -43.122  0.00  0.00    -0.096 NA
ATOM     19  O   UNL d   1     -54.898-102.747 -43.541  0.00  0.00    -0.061 OA
ENDBRANCH   3  18
BRANCH   7  20
ATOM     20  S   UNL d   1     -55.068-102.225 -39.958  0.00  0.00     0.302 S 
ATOM     21  O   UNL d   1     -54.714-101.625 -39.459  0.00  0.00    -0.197 OA
ATOM     22  O   UNL d   1     -55.416-102.787 -40.492  0.00  0.00    -0.197 OA
ATOM     23  N   UNL d   1     -55.121-102.743 -39.337  0.00  0.00    -0.043 N 
ENDBRANCH   7  20
TORSDOF 3
ENDMDL
