MODEL 1
REMARK VINA RESULT:      95.5      0.000      0.000
REMARK  5 active torsions:
REMARK  status: ('A' for Active; 'I' for Inactive)
REMARK    1  A    between atoms: N_10  and  C_3 
REMARK    2  A    between atoms: C_11  and  C_5 
REMARK    3  A    between atoms: C_16  and  C_7 
REMARK    4  A    between atoms: C_15  and  N_10 
REMARK       I    between atoms: C_12  and  N_13 
REMARK    5  A    between atoms: N_13  and  C_17 
ROOT
ATOM      1  N   UNL d   1     -50.279  26.609  34.275  0.00  0.00    -0.184 N 
ATOM      2  C   UNL d   1     -50.596  25.890  34.022  0.00  0.00     0.168 A 
ATOM      3  C   UNL d   1     -49.487  26.724  34.252  0.00  0.00     0.217 A 
ATOM      4  N   UNL d   1     -51.550  27.070  34.562  0.00  0.00    -0.162 NA
ATOM      5  C   UNL d   1     -51.377  25.776  34.045  0.00  0.00     0.055 A 
ATOM      6  N   UNL d   1     -50.109  25.317  33.758  0.00  0.00    -0.227 NA
ATOM      7  C   UNL d   1     -48.999  26.145  33.985  0.00  0.00     0.066 A 
ATOM      8  C   UNL d   1     -51.863  26.363  34.314  0.00  0.00     0.104 A 
ATOM      9  C   UNL d   1     -49.316  25.426  33.733  0.00  0.00     0.087 A 
ATOM     10  C   UNL d   1     -52.654  26.239  34.333  0.00  0.00     0.023 C 
ATOM     11  C   UNL d   1     -48.808  24.819  33.453  0.00  0.00     0.021 C 
ENDROOT
BRANCH   3  12
ATOM     12  N   UNL d   1     -49.176  27.448  34.507  0.00  0.00    -0.383 NA
BRANCH  12  13
ATOM     13  C   UNL d   1     -48.780  28.138  34.738  0.00  0.00     0.134 A 
ATOM     14  C   UNL d   1     -48.662  28.747  34.193  0.00  0.00     0.034 A 
ATOM     15  C   UNL d   1     -48.264  29.435  34.433  0.00  0.00     0.022 A 
ATOM     16  C   UNL d   1     -47.989  29.510  35.207  0.00  0.00     0.085 A 
ATOM     17  C   UNL d   1     -48.105  28.902  35.757  0.00  0.00     0.022 A 
ATOM     18  C   UNL d   1     -48.505  28.207  35.523  0.00  0.00     0.034 A 
BRANCH  16  19
ATOM     19  N   UNL d   1     -47.592  30.207  35.431  0.00  0.00    -0.208 NA
ATOM     20  C   UNL d   1     -47.187  30.223  36.159  0.00  0.00     0.279 C 
ATOM     21  O   UNL d   1     -46.794  30.901  36.390  0.00  0.00    -0.265 OA
ATOM     22  C   UNL d   1     -47.178  29.560  36.652  0.00  0.00     0.068 C 
ENDBRANCH  16  19
ENDBRANCH  12  13
ENDBRANCH   3  12
BRANCH   7  23
ATOM     23  C   UNL d   1     -48.176  26.249  33.955  0.00  0.00     0.006 C 
ATOM     24  C   UNL d   1     -47.727  25.954  33.313  0.00  0.00     0.000 C 
ENDBRANCH   7  23
BRANCH   5  25
ATOM     25  C   UNL d   1     -51.685  25.080  33.800  0.00  0.00     0.004 A 
ATOM     26  C   UNL d   1     -52.475  24.978  33.756  0.00  0.00     0.000 A 
ATOM     27  C   UNL d   1     -52.787  24.271  33.508  0.00  0.00     0.000 A 
ATOM     28  C   UNL d   1     -52.306  23.676  33.307  0.00  0.00     0.000 A 
ATOM     29  C   UNL d   1     -51.505  23.774  33.349  0.00  0.00     0.000 A 
ATOM     30  C   UNL d   1     -51.197  24.470  33.594  0.00  0.00     0.000 A 
ENDBRANCH   5  25
TORSDOF 5
ENDMDL
