MODEL 1
REMARK VINA RESULT:      85.6      0.000      0.000
REMARK  4 active torsions:
REMARK  status: ('A' for Active; 'I' for Inactive)
REMARK    1  A    between atoms: S_12  and  C_5 
REMARK       I    between atoms: N_7  and  C_9 
REMARK    2  A    between atoms: C_19  and  N_8 
REMARK    3  A    between atoms: C_9  and  C_14 
REMARK    4  A    between atoms: C_14  and  S_12 
ROOT
ATOM      1  C   UNL d   1     -54.842-101.765 -39.712  0.00  0.00     0.098 C 
ENDROOT
BRANCH   1   2
ATOM      2  C   UNL d   1     -54.887-102.064 -40.479  0.00  0.00     0.272 C 
ATOM      3  N   UNL d   1     -54.927-101.548 -41.124  0.00  0.00    -0.269 N 
ATOM      4  C   UNL d   1     -54.921-100.735 -40.997  0.00  0.00     0.102 A 
ATOM      5  C   UNL d   1     -54.971-101.844 -41.888  0.00  0.00     0.102 A 
ATOM      6  C   UNL d   1     -54.960-100.219 -41.642  0.00  0.00     0.100 A 
ATOM      7  N   UNL d   1     -55.005-100.518 -42.409  0.00  0.00    -0.301 N 
ATOM      8  C   UNL d   1     -55.011-101.331 -42.529  0.00  0.00     0.100 A 
ATOM      9  O   UNL d   1     -54.892-102.880 -40.596  0.00  0.00    -0.266 OA
BRANCH   7  10
ATOM     10  C   UNL d   1     -55.045-100.006 -43.050  0.00  0.00     0.064 A 
ATOM     11  C   UNL d   1     -54.711-100.217 -43.771  0.00  0.00     0.018 A 
ATOM     12  C   UNL d   1     -54.752 -99.701 -44.414  0.00  0.00     0.002 A 
ATOM     13  C   UNL d   1     -55.124 -98.977 -44.336  0.00  0.00     0.000 A 
ATOM     14  C   UNL d   1     -55.460 -98.763 -43.613  0.00  0.00     0.002 A 
ATOM     15  C   UNL d   1     -55.420 -99.275 -42.972  0.00  0.00     0.018 A 
ENDBRANCH   7  10
ENDBRANCH   1   2
BRANCH   1  16
ATOM     16  S   UNL d   1     -55.460-101.897 -39.178  0.00  0.00    -0.060 SA
BRANCH  16  17
ATOM     17  C   UNL d   1     -55.295-101.960 -38.365  0.00  0.00     0.137 A 
ATOM     18  C   UNL d   1     -55.245-101.288 -37.893  0.00  0.00     0.141 A 
ATOM     19  O   UNL d   1     -55.331-100.486 -38.070  0.00  0.00    -0.303 OA
ATOM     20  C   UNL d   1     -55.080-101.358 -37.085  0.00  0.00     0.110 A 
ATOM     21  C   UNL d   1     -55.218-100.057 -37.367  0.00  0.00     0.102 A 
ATOM     22  C   UNL d   1     -55.238 -99.245 -37.204  0.00  0.00     0.025 A 
ATOM     23  C   UNL d   1     -55.064-100.601 -36.763  0.00  0.00     0.043 A 
ATOM     24  C   UNL d   1     -55.101 -98.983 -36.431  0.00  0.00     0.002 A 
ATOM     25  C   UNL d   1     -54.947 -99.521 -35.825  0.00  0.00     0.000 A 
ATOM     26  C   UNL d   1     -54.927-100.335 -35.988  0.00  0.00     0.004 A 
ATOM     27  N   UNL d   1     -54.967-102.106 -36.757  0.00  0.00    -0.222 NA
ATOM     28  C   UNL d   1     -55.018-102.780 -37.227  0.00  0.00     0.200 A 
ATOM     29  N   UNL d   1     -55.181-102.712 -38.029  0.00  0.00    -0.215 NA
ENDBRANCH  16  17
ENDBRANCH   1  16
TORSDOF 4
ENDMDL
