MODEL 1
REMARK VINA RESULT:     148.3      0.000      0.000
REMARK  4 active torsions:
REMARK  status: ('A' for Active; 'I' for Inactive)
REMARK    1  A    between atoms: C_18  and  N_4 
REMARK    2  A    between atoms: C_11  and  C_6 
REMARK       I    between atoms: N_15  and  C_11 
REMARK    3  A    between atoms: C_26  and  N_15 
REMARK    4  A    between atoms: C_17  and  C_26 
ROOT
ATOM      1  C   UNL d   1     -57.658 -99.287 -44.617  0.00  0.00     0.155 A 
ATOM      2  C   UNL d   1     -56.945 -99.167 -45.014  0.00  0.00     0.091 A 
ATOM      3  N   UNL d   1     -58.368 -99.242 -45.039  0.00  0.00    -0.210 NA
ATOM      4  N   UNL d   1     -57.655 -99.446 -43.821  0.00  0.00    -0.275 N 
ATOM      5  C   UNL d   1     -56.955 -99.491 -43.404  0.00  0.00     0.175 A 
ATOM      6  C   UNL d   1     -56.244 -99.372 -43.799  0.00  0.00     0.094 A 
ATOM      7  N   UNL d   1     -57.653 -98.959 -46.247  0.00  0.00    -0.258 N 
ATOM      8  C   UNL d   1     -58.376 -99.080 -45.845  0.00  0.00     0.152 A 
ATOM      9  C   UNL d   1     -56.934 -99.001 -45.837  0.00  0.00     0.269 A 
ATOM     10  C   UNL d   1     -56.230 -99.209 -44.604  0.00  0.00     0.016 A 
ATOM     11  C   UNL d   1     -59.080 -99.037 -46.257  0.00  0.00     0.035 A 
ATOM     12  N   UNL d   1     -56.950 -99.654 -42.589  0.00  0.00    -0.128 N 
ATOM     13  C   UNL d   1     -57.646 -98.797 -47.055  0.00  0.00     0.084 A 
ATOM     14  O   UNL d   1     -56.224 -98.884 -46.222  0.00  0.00    -0.266 OA
ATOM     15  C   UNL d   1     -58.364 -98.755 -47.463  0.00  0.00     0.019 A 
ATOM     16  C   UNL d   1     -59.087 -98.876 -47.060  0.00  0.00     0.005 A 
ATOM     17  C   UNL d   1     -59.797 -99.158 -45.857  0.00  0.00     0.003 C 
ENDROOT
BRANCH   6  18
ATOM     18  C   UNL d   1     -55.527 -99.415 -43.381  0.00  0.00     0.282 C 
ATOM     19  N   UNL d   1     -55.519 -99.333 -42.560  0.00  0.00    -0.204 NA
ATOM     20  O   UNL d   1     -54.819 -99.542 -43.791  0.00  0.00    -0.265 OA
BRANCH  19  21
ATOM     21  C   UNL d   1     -54.811 -99.377 -42.147  0.00  0.00     0.127 C 
BRANCH  21  22
ATOM     22  C   UNL d   1     -54.810 -99.404 -41.318  0.00  0.00     0.119 A 
ATOM     23  O   UNL d   1     -54.907 -98.760 -40.809  0.00  0.00    -0.304 OA
ATOM     24  C   UNL d   1     -54.868 -99.044 -40.033  0.00  0.00     0.123 A 
ATOM     25  C   UNL d   1     -54.747 -99.858 -40.067  0.00  0.00     0.029 A 
ATOM     26  C   UNL d   1     -54.712-100.080 -40.865  0.00  0.00     0.028 A 
ENDBRANCH  21  22
ENDBRANCH  19  21
ENDBRANCH   6  18
BRANCH   4  27
ATOM     27  C   UNL d   1     -58.373 -99.566 -43.422  0.00  0.00     0.067 A 
ATOM     28  C   UNL d   1     -58.782 -98.992 -42.995  0.00  0.00     0.018 A 
ATOM     29  C   UNL d   1     -59.463 -99.345 -42.690  0.00  0.00     0.002 A 
ATOM     30  C   UNL d   1     -59.475-100.146 -42.930  0.00  0.00     0.002 A 
ATOM     31  C   UNL d   1     -58.798-100.270 -43.380  0.00  0.00     0.018 A 
ENDBRANCH   4  27
TORSDOF 4
ENDMDL
