MODEL 1
REMARK VINA RESULT:      -9.9      0.000      0.000
REMARK  7 active torsions:
REMARK  status: ('A' for Active; 'I' for Inactive)
REMARK    1  A    between atoms: S_10  and  C_4 
REMARK    2  A    between atoms: C_19  and  C_9 
REMARK    3  A    between atoms: C_13  and  S_10 
REMARK    4  A    between atoms: C_11  and  C_13 
REMARK       I    between atoms: N_14  and  C_11 
REMARK    5  A    between atoms: C_16  and  N_14 
REMARK    6  A    between atoms: C_20  and  C_16 
REMARK    7  A    between atoms: C_18  and  C_20 
ROOT
ATOM      1  C   UNL d   1      52.876  32.288  53.316  0.00  0.00     0.141 A 
ATOM      2  C   UNL d   1      53.393  31.894  53.822  0.00  0.00     0.110 A 
ATOM      3  O   UNL d   1      52.516  31.726  52.830  0.00  0.00    -0.303 OA
ATOM      4  C   UNL d   1      52.797  33.108  53.362  0.00  0.00     0.137 A 
ATOM      5  N   UNL d   1      53.237  33.535  53.915  0.00  0.00    -0.218 NA
ATOM      6  C   UNL d   1      53.354  31.089  53.650  0.00  0.00     0.043 A 
ATOM      7  N   UNL d   1      53.833  32.321  54.376  0.00  0.00    -0.225 NA
ATOM      8  C   UNL d   1      52.812  30.984  53.037  0.00  0.00     0.102 A 
ATOM      9  C   UNL d   1      53.754  33.140  54.421  0.00  0.00     0.163 A 
ATOM     10  C   UNL d   1      53.743  30.435  53.973  0.00  0.00     0.004 A 
ATOM     11  C   UNL d   1      52.659  30.228  52.746  0.00  0.00     0.025 A 
ATOM     12  C   UNL d   1      53.589  29.679  53.681  0.00  0.00     0.000 A 
ATOM     13  C   UNL d   1      53.047  29.575  53.068  0.00  0.00     0.002 A 
ENDROOT
BRANCH   4  14
ATOM     14  S   UNL d   1      52.279  33.503  52.854  0.00  0.00    -0.060 SA
BRANCH  14  15
ATOM     15  C   UNL d   1      51.800  34.108  53.144  0.00  0.00     0.099 C 
BRANCH  15  16
ATOM     16  C   UNL d   1      51.159  34.375  52.698  0.00  0.00     0.286 C 
ATOM     17  O   UNL d   1      51.227  34.440  51.877  0.00  0.00    -0.265 OA
ATOM     18  N   UNL d   1      50.451  34.576  53.071  0.00  0.00    -0.206 NA
BRANCH  18  19
ATOM     19  C   UNL d   1      49.811  34.842  52.625  0.00  0.00     0.102 C 
BRANCH  19  20
ATOM     20  C   UNL d   1      49.058  34.871  52.959  0.00  0.00     0.021 C 
BRANCH  20  21
ATOM     21  C   UNL d   1      48.477  35.355  52.629  0.00  0.00     0.002 A 
ATOM     22  C   UNL d   1      48.219  36.028  53.034  0.00  0.00     0.000 A 
ATOM     23  C   UNL d   1      47.639  36.511  52.704  0.00  0.00     0.000 A 
ATOM     24  C   UNL d   1      47.315  36.323  51.969  0.00  0.00     0.000 A 
ATOM     25  C   UNL d   1      47.570  35.653  51.564  0.00  0.00     0.000 A 
ATOM     26  C   UNL d   1      48.152  35.168  51.894  0.00  0.00     0.000 A 
ENDBRANCH  20  21
ENDBRANCH  19  20
ENDBRANCH  18  19
ENDBRANCH  15  16
ENDBRANCH  14  15
ENDBRANCH   4  14
BRANCH   9  27
ATOM     27  C   UNL d   1      54.195  33.566  54.975  0.00  0.00     0.039 C 
ATOM     28  C   UNL d   1      55.005  33.673  54.863  0.00  0.00     0.003 C 
ENDBRANCH   9  27
TORSDOF 7
ENDMDL
MODEL 2
REMARK VINA RESULT:      -9.2      0.931      2.369
REMARK  7 active torsions:
REMARK  status: ('A' for Active; 'I' for Inactive)
REMARK    1  A    between atoms: S_10  and  C_4 
REMARK    2  A    between atoms: C_19  and  C_9 
REMARK    3  A    between atoms: C_13  and  S_10 
REMARK    4  A    between atoms: C_11  and  C_13 
REMARK       I    between atoms: N_14  and  C_11 
REMARK    5  A    between atoms: C_16  and  N_14 
REMARK    6  A    between atoms: C_20  and  C_16 
REMARK    7  A    between atoms: C_18  and  C_20 
ROOT
ATOM      1  C   UNL d   1      52.797  33.406  53.578  0.00  0.00     0.141 A 
ATOM      2  C   UNL d   1      53.335  32.834  53.827  0.00  0.00     0.110 A 
ATOM      3  O   UNL d   1      52.985  34.116  53.958  0.00  0.00    -0.303 OA
ATOM      4  C   UNL d   1      52.204  33.211  53.039  0.00  0.00     0.137 A 
ATOM      5  N   UNL d   1      52.150  32.440  52.748  0.00  0.00    -0.218 NA
ATOM      6  C   UNL d   1      53.856  33.188  54.359  0.00  0.00     0.043 A 
ATOM      7  N   UNL d   1      53.281  32.064  53.535  0.00  0.00    -0.225 NA
ATOM      8  C   UNL d   1      53.640  33.980  54.441  0.00  0.00     0.102 A 
ATOM      9  C   UNL d   1      52.689  31.868  52.996  0.00  0.00     0.163 A 
ATOM     10  C   UNL d   1      54.501  32.891  54.782  0.00  0.00     0.004 A 
ATOM     11  C   UNL d   1      54.066  34.475  54.943  0.00  0.00     0.025 A 
ATOM     12  C   UNL d   1      54.927  33.387  55.285  0.00  0.00     0.000 A 
ATOM     13  C   UNL d   1      54.711  34.178  55.366  0.00  0.00     0.002 A 
ENDROOT
BRANCH   4  14
ATOM     14  S   UNL d   1      51.665  33.784  52.791  0.00  0.00    -0.060 SA
BRANCH  14  15
ATOM     15  C   UNL d   1      50.858  33.675  52.921  0.00  0.00     0.099 C 
BRANCH  15  16
ATOM     16  C   UNL d   1      50.314  34.206  52.599  0.00  0.00     0.286 C 
ATOM     17  O   UNL d   1      50.344  34.390  51.794  0.00  0.00    -0.265 OA
ATOM     18  N   UNL d   1      49.742  34.554  53.081  0.00  0.00    -0.206 NA
BRANCH  18  19
ATOM     19  C   UNL d   1      49.199  35.084  52.759  0.00  0.00     0.102 C 
BRANCH  19  20
ATOM     20  C   UNL d   1      48.802  35.617  53.248  0.00  0.00     0.021 C 
BRANCH  20  21
ATOM     21  C   UNL d   1      48.062  35.908  53.029  0.00  0.00     0.002 A 
ATOM     22  C   UNL d   1      47.511  36.115  53.609  0.00  0.00     0.000 A 
ATOM     23  C   UNL d   1      46.771  36.406  53.390  0.00  0.00     0.000 A 
ATOM     24  C   UNL d   1      46.581  36.489  52.592  0.00  0.00     0.000 A 
ATOM     25  C   UNL d   1      47.129  36.283  52.012  0.00  0.00     0.000 A 
ATOM     26  C   UNL d   1      47.871  35.992  52.232  0.00  0.00     0.000 A 
ENDBRANCH  20  21
ENDBRANCH  19  20
ENDBRANCH  18  19
ENDBRANCH  15  16
ENDBRANCH  14  15
ENDBRANCH   4  14
BRANCH   9  27
ATOM     27  C   UNL d   1      52.636  31.097  52.705  0.00  0.00     0.039 C 
ATOM     28  C   UNL d   1      52.885  30.462  53.170  0.00  0.00     0.003 C 
ENDBRANCH   9  27
TORSDOF 7
ENDMDL
MODEL 3
REMARK VINA RESULT:      -7.5      1.716      6.701
REMARK  7 active torsions:
REMARK  status: ('A' for Active; 'I' for Inactive)
REMARK    1  A    between atoms: S_10  and  C_4 
REMARK    2  A    between atoms: C_19  and  C_9 
REMARK    3  A    between atoms: C_13  and  S_10 
REMARK    4  A    between atoms: C_11  and  C_13 
REMARK       I    between atoms: N_14  and  C_11 
REMARK    5  A    between atoms: C_16  and  N_14 
REMARK    6  A    between atoms: C_20  and  C_16 
REMARK    7  A    between atoms: C_18  and  C_20 
ROOT
ATOM      1  C   UNL d   1      47.633  35.617  52.322  0.00  0.00     0.141 A 
ATOM      2  C   UNL d   1      47.001  36.060  52.611  0.00  0.00     0.110 A 
ATOM      3  O   UNL d   1      47.420  35.323  51.579  0.00  0.00    -0.303 OA
ATOM      4  C   UNL d   1      48.321  35.537  52.770  0.00  0.00     0.137 A 
ATOM      5  N   UNL d   1      48.377  35.901  53.508  0.00  0.00    -0.218 NA
ATOM      6  C   UNL d   1      46.398  36.041  52.049  0.00  0.00     0.043 A 
ATOM      7  N   UNL d   1      47.057  36.425  53.349  0.00  0.00    -0.225 NA
ATOM      8  C   UNL d   1      46.656  35.586  51.411  0.00  0.00     0.102 A 
ATOM      9  C   UNL d   1      47.745  36.345  53.797  0.00  0.00     0.163 A 
ATOM     10  C   UNL d   1      45.645  36.381  52.035  0.00  0.00     0.004 A 
ATOM     11  C   UNL d   1      46.164  35.469  50.761  0.00  0.00     0.025 A 
ATOM     12  C   UNL d   1      45.152  36.263  51.383  0.00  0.00     0.000 A 
ATOM     13  C   UNL d   1      45.411  35.808  50.746  0.00  0.00     0.002 A 
ENDROOT
BRANCH   4  14
ATOM     14  S   UNL d   1      48.954  35.092  52.480  0.00  0.00    -0.060 SA
BRANCH  14  15
ATOM     15  C   UNL d   1      49.636  35.003  52.933  0.00  0.00     0.099 C 
BRANCH  15  16
ATOM     16  C   UNL d   1      50.226  34.479  52.690  0.00  0.00     0.286 C 
ATOM     17  O   UNL d   1      50.156  34.088  51.965  0.00  0.00    -0.265 OA
ATOM     18  N   UNL d   1      50.884  34.346  53.169  0.00  0.00    -0.206 NA
BRANCH  18  19
ATOM     19  C   UNL d   1      51.472  33.823  52.926  0.00  0.00     0.102 C 
BRANCH  19  20
ATOM     20  C   UNL d   1      52.262  33.972  53.113  0.00  0.00     0.021 C 
BRANCH  20  21
ATOM     21  C   UNL d   1      52.748  33.360  53.375  0.00  0.00     0.002 A 
ATOM     22  C   UNL d   1      52.788  32.653  52.948  0.00  0.00     0.000 A 
ATOM     23  C   UNL d   1      53.274  32.040  53.209  0.00  0.00     0.000 A 
ATOM     24  C   UNL d   1      53.720  32.133  53.897  0.00  0.00     0.000 A 
ATOM     25  C   UNL d   1      53.681  32.837  54.323  0.00  0.00     0.000 A 
ATOM     26  C   UNL d   1      53.194  33.451  54.061  0.00  0.00     0.000 A 
ENDBRANCH  20  21
ENDBRANCH  19  20
ENDBRANCH  18  19
ENDBRANCH  15  16
ENDBRANCH  14  15
ENDBRANCH   4  14
BRANCH   9  27
ATOM     27  C   UNL d   1      47.800  36.709  54.536  0.00  0.00     0.039 C 
ATOM     28  C   UNL d   1      47.162  36.683  55.058  0.00  0.00     0.003 C 
ENDBRANCH   9  27
TORSDOF 7
ENDMDL
