MODEL 1
REMARK VINA RESULT:      43.1      0.000      0.000
REMARK  3 active torsions:
REMARK  status: ('A' for Active; 'I' for Inactive)
REMARK    1  A    between atoms: C_4  and  C_1 
REMARK    2  A    between atoms: C_13  and  N_2 
REMARK    3  A    between atoms: C_10  and  C_13 
ROOT
ATOM      1  C   UNL d   1     -51.177  24.361  33.398  0.00  0.00     0.171 A 
ATOM      2  N   UNL d   1     -51.738  25.070  33.357  0.00  0.00    -0.286 N 
ATOM      3  N   UNL d   1     -51.692  23.618  33.417  0.00  0.00    -0.225 NA
ATOM      4  C   UNL d   1     -52.585  24.770  33.350  0.00  0.00     0.083 A 
ATOM      5  C   UNL d   1     -52.556  23.855  33.388  0.00  0.00     0.099 A 
ATOM      6  C   UNL d   1     -53.378  25.207  33.314  0.00  0.00     0.019 A 
ATOM      7  C   UNL d   1     -53.322  23.394  33.390  0.00  0.00     0.021 A 
ATOM      8  C   UNL d   1     -54.131  24.720  33.318  0.00  0.00     0.002 A 
ATOM      9  C   UNL d   1     -54.103  23.806  33.356  0.00  0.00     0.002 A 
ENDROOT
BRANCH   2  10
ATOM     10  C   UNL d   1     -52.159  25.713  33.321  0.00  0.00     0.106 C 
BRANCH  10  11
ATOM     11  C   UNL d   1     -51.785  26.430  33.374  0.00  0.00     0.118 A 
ATOM     12  O   UNL d   1     -52.122  27.131  33.498  0.00  0.00    -0.299 OA
ATOM     13  C   UNL d   1     -51.566  27.716  33.515  0.00  0.00     0.134 A 
ATOM     14 BR   UNL d   1     -51.604  28.513  33.621  0.00  0.00    -0.022 Br
ATOM     15  C   UNL d   1     -50.855  27.359  33.397  0.00  0.00     0.034 A 
ATOM     16  C   UNL d   1     -50.972  26.557  33.306  0.00  0.00     0.029 A 
ENDBRANCH  10  11
ENDBRANCH   2  10
BRANCH   1  17
ATOM     17  C   UNL d   1     -50.284  24.390  33.417  0.00  0.00     0.135 A 
ATOM     18  O   UNL d   1     -49.848  25.068  33.311  0.00  0.00    -0.297 OA
ATOM     19  C   UNL d   1     -49.069  24.837  33.372  0.00  0.00     0.134 A 
ATOM     20 BR   UNL d   1     -48.290  25.064  33.353  0.00  0.00    -0.022 Br
ATOM     21  C   UNL d   1     -49.046  24.034  33.512  0.00  0.00     0.034 A 
ATOM     22  C   UNL d   1     -49.811  23.770  33.537  0.00  0.00     0.030 A 
ENDBRANCH   1  17
TORSDOF 3
ENDMDL
