MODEL 1
REMARK VINA RESULT:      -3.2      0.000      0.000
REMARK  3 active torsions:
REMARK  status: ('A' for Active; 'I' for Inactive)
REMARK    1  A    between atoms: N_3  and  C_1 
REMARK       I    between atoms: C_5  and  N_3 
REMARK    2  A    between atoms: C_14  and  C_4 
REMARK       I    between atoms: N_8  and  C_5 
REMARK    3  A    between atoms: C_11  and  N_8 
ROOT
ATOM      1  N   UNL d   1      31.519  17.443 -23.905  0.00  0.00    -0.166 NA
ATOM      2  C   UNL d   1      31.599  17.269 -24.672  0.00  0.00     0.370 C 
ATOM      3  N   UNL d   1      31.028  16.851 -25.058  0.00  0.00    -0.191 NA
ATOM      4  O   UNL d   1      32.267  17.510 -25.094  0.00  0.00    -0.242 OA
ENDROOT
BRANCH   1   5
ATOM      5  C   UNL d   1      32.094  17.862 -23.521  0.00  0.00     0.199 A 
ATOM      6  N   UNL d   1      32.016  18.615 -23.249  0.00  0.00    -0.221 NA
ATOM      7  C   UNL d   1      32.726  18.826 -22.897  0.00  0.00     0.090 A 
ATOM      8  C   UNL d   1      33.236  18.181 -22.964  0.00  0.00     0.058 A 
ATOM      9  S   UNL d   1      32.824  17.589 -23.356  0.00  0.00    -0.046 SA
BRANCH   7  10
ATOM     10  C   UNL d   1      32.895  19.537 -22.548  0.00  0.00     0.018 A 
ATOM     11  C   UNL d   1      32.946  19.606 -21.722  0.00  0.00     0.002 A 
ATOM     12  C   UNL d   1      33.119  20.332 -21.369  0.00  0.00     0.000 A 
ATOM     13  C   UNL d   1      33.241  20.990 -21.828  0.00  0.00     0.000 A 
ATOM     14  C   UNL d   1      33.193  20.936 -22.657  0.00  0.00     0.000 A 
ATOM     15  C   UNL d   1      33.019  20.206 -23.023  0.00  0.00     0.002 A 
ENDBRANCH   7  10
ENDBRANCH   1   5
BRANCH   3  16
ATOM     16  C   UNL d   1      30.349  16.601 -24.649  0.00  0.00     0.087 A 
ATOM     17  C   UNL d   1      29.703  17.061 -24.638  0.00  0.00     0.032 A 
ATOM     18  C   UNL d   1      29.038  16.834 -24.247  0.00  0.00     0.070 A 
ATOM     19 CL   UNL d   1      28.358  17.327 -24.240  0.00  0.00    -0.081 Cl
ATOM     20  C   UNL d   1      29.008  16.142 -23.860  0.00  0.00     0.068 A 
ATOM     21  C   UNL d   1      29.677  15.640 -23.857  0.00  0.00     0.014 A 
ATOM     22 CL   UNL d   1      28.336  15.912 -23.465  0.00  0.00    -0.082 Cl
ATOM     23  C   UNL d   1      30.341  15.867 -24.248  0.00  0.00     0.020 A 
ENDBRANCH   3  16
TORSDOF 3
ENDMDL
MODEL 2
REMARK VINA RESULT:      -3.0      1.370      2.082
REMARK  3 active torsions:
REMARK  status: ('A' for Active; 'I' for Inactive)
REMARK    1  A    between atoms: N_3  and  C_1 
REMARK       I    between atoms: C_5  and  N_3 
REMARK    2  A    between atoms: C_14  and  C_4 
REMARK       I    between atoms: N_8  and  C_5 
REMARK    3  A    between atoms: C_11  and  N_8 
ROOT
ATOM      1  N   UNL d   1      32.442  18.792 -23.104  0.00  0.00    -0.166 NA
ATOM      2  C   UNL d   1      32.720  18.892 -23.837  0.00  0.00     0.370 C 
ATOM      3  N   UNL d   1      32.500  18.392 -24.430  0.00  0.00    -0.191 NA
ATOM      4  O   UNL d   1      33.241  19.509 -24.011  0.00  0.00    -0.242 OA
ENDROOT
BRANCH   1   5
ATOM      5  C   UNL d   1      32.665  19.294 -22.512  0.00  0.00     0.199 A 
ATOM      6  N   UNL d   1      32.426  20.059 -22.436  0.00  0.00    -0.221 NA
ATOM      7  C   UNL d   1      32.781  20.364 -21.763  0.00  0.00     0.090 A 
ATOM      8  C   UNL d   1      33.241  19.764 -21.433  0.00  0.00     0.058 A 
ATOM      9  S   UNL d   1      33.156  19.105 -21.913  0.00  0.00    -0.046 SA
BRANCH   7  10
ATOM     10  C   UNL d   1      32.695  21.117 -21.477  0.00  0.00     0.018 A 
ATOM     11  C   UNL d   1      33.151  21.743 -21.778  0.00  0.00     0.002 A 
ATOM     12  C   UNL d   1      33.061  22.509 -21.484  0.00  0.00     0.000 A 
ATOM     13  C   UNL d   1      32.525  22.660 -20.894  0.00  0.00     0.000 A 
ATOM     14  C   UNL d   1      32.062  22.043 -20.582  0.00  0.00     0.000 A 
ATOM     15  C   UNL d   1      32.146  21.264 -20.873  0.00  0.00     0.002 A 
ENDBRANCH   7  10
ENDBRANCH   1   5
BRANCH   3  16
ATOM     16  C   UNL d   1      31.976  17.766 -24.272  0.00  0.00     0.087 A 
ATOM     17  C   UNL d   1      31.218  17.820 -24.499  0.00  0.00     0.032 A 
ATOM     18  C   UNL d   1      30.699  17.223 -24.353  0.00  0.00     0.070 A 
ATOM     19 CL   UNL d   1      29.897  17.286 -24.597  0.00  0.00    -0.081 Cl
ATOM     20  C   UNL d   1      30.929  16.563 -23.978  0.00  0.00     0.068 A 
ATOM     21  C   UNL d   1      31.723  16.484 -23.730  0.00  0.00     0.014 A 
ATOM     22 CL   UNL d   1      30.404  15.959 -23.831  0.00  0.00    -0.082 Cl
ATOM     23  C   UNL d   1      32.242  17.080 -23.875  0.00  0.00     0.020 A 
ENDBRANCH   3  16
TORSDOF 3
ENDMDL
MODEL 3
REMARK VINA RESULT:      -2.1      2.690      5.158
REMARK  3 active torsions:
REMARK  status: ('A' for Active; 'I' for Inactive)
REMARK    1  A    between atoms: N_3  and  C_1 
REMARK       I    between atoms: C_5  and  N_3 
REMARK    2  A    between atoms: C_14  and  C_4 
REMARK       I    between atoms: N_8  and  C_5 
REMARK    3  A    between atoms: C_11  and  N_8 
ROOT
ATOM      1  N   UNL d   1      32.796  19.968 -22.521  0.00  0.00    -0.166 NA
ATOM      2  C   UNL d   1      33.038  19.800 -21.787  0.00  0.00     0.370 C 
ATOM      3  N   UNL d   1      33.090  20.381 -21.230  0.00  0.00    -0.191 NA
ATOM      4  O   UNL d   1      33.241  19.028 -21.575  0.00  0.00    -0.242 OA
ENDROOT
BRANCH   1   5
ATOM      5  C   UNL d   1      32.745  19.384 -23.076  0.00  0.00     0.199 A 
ATOM      6  N   UNL d   1      32.197  18.794 -23.081  0.00  0.00    -0.221 NA
ATOM      7  C   UNL d   1      32.344  18.325 -23.737  0.00  0.00     0.090 A 
ATOM      8  C   UNL d   1      32.995  18.646 -24.130  0.00  0.00     0.058 A 
ATOM      9  S   UNL d   1      33.231  19.306 -23.702  0.00  0.00    -0.046 SA
BRANCH   7  10
ATOM     10  C   UNL d   1      31.926  17.667 -23.959  0.00  0.00     0.018 A 
ATOM     11  C   UNL d   1      32.124  16.916 -23.663  0.00  0.00     0.002 A 
ATOM     12  C   UNL d   1      31.697  16.248 -23.890  0.00  0.00     0.000 A 
ATOM     13  C   UNL d   1      31.075  16.317 -24.408  0.00  0.00     0.000 A 
ATOM     14  C   UNL d   1      30.866  17.062 -24.712  0.00  0.00     0.000 A 
ATOM     15  C   UNL d   1      31.292  17.745 -24.488  0.00  0.00     0.002 A 
ENDBRANCH   7  10
ENDBRANCH   1   5
BRANCH   3  16
ATOM     16  C   UNL d   1      32.889  21.163 -21.427  0.00  0.00     0.087 A 
ATOM     17  C   UNL d   1      32.359  21.557 -20.986  0.00  0.00     0.032 A 
ATOM     18  C   UNL d   1      32.154  22.314 -21.163  0.00  0.00     0.070 A 
ATOM     19 CL   UNL d   1      31.592  22.725 -20.692  0.00  0.00    -0.081 Cl
ATOM     20  C   UNL d   1      32.475  22.690 -21.783  0.00  0.00     0.068 A 
ATOM     21  C   UNL d   1      33.036  22.296 -22.262  0.00  0.00     0.014 A 
ATOM     22 CL   UNL d   1      32.268  23.456 -21.962  0.00  0.00    -0.082 Cl
ATOM     23  C   UNL d   1      33.241  21.539 -22.085  0.00  0.00     0.020 A 
ENDBRANCH   3  16
TORSDOF 3
ENDMDL
MODEL 4
REMARK VINA RESULT:      -1.6      2.205      4.744
REMARK  3 active torsions:
REMARK  status: ('A' for Active; 'I' for Inactive)
REMARK    1  A    between atoms: N_3  and  C_1 
REMARK       I    between atoms: C_5  and  N_3 
REMARK    2  A    between atoms: C_14  and  C_4 
REMARK       I    between atoms: N_8  and  C_5 
REMARK    3  A    between atoms: C_11  and  N_8 
ROOT
ATOM      1  N   UNL d   1      32.380  18.886 -23.526  0.00  0.00    -0.166 NA
ATOM      2  C   UNL d   1      32.866  19.311 -23.981  0.00  0.00     0.370 C 
ATOM      3  N   UNL d   1      33.241  19.960 -23.685  0.00  0.00    -0.191 NA
ATOM      4  O   UNL d   1      33.002  19.101 -24.769  0.00  0.00    -0.242 OA
ENDROOT
BRANCH   1   5
ATOM      5  C   UNL d   1      32.006  18.236 -23.827  0.00  0.00     0.199 A 
ATOM      6  N   UNL d   1      31.215  18.091 -23.780  0.00  0.00    -0.221 NA
ATOM      7  C   UNL d   1      31.072  17.376 -24.154  0.00  0.00     0.090 A 
ATOM      8  C   UNL d   1      31.796  17.091 -24.429  0.00  0.00     0.058 A 
ATOM      9  S   UNL d   1      32.366  17.641 -24.215  0.00  0.00    -0.046 SA
BRANCH   7  10
ATOM     10  C   UNL d   1      30.351  17.015 -24.238  0.00  0.00     0.018 A 
ATOM     11  C   UNL d   1      30.091  16.448 -23.689  0.00  0.00     0.002 A 
ATOM     12  C   UNL d   1      29.357  16.083 -23.777  0.00  0.00     0.000 A 
ATOM     13  C   UNL d   1      28.878  16.274 -24.404  0.00  0.00     0.000 A 
ATOM     14  C   UNL d   1      29.125  16.840 -24.961  0.00  0.00     0.000 A 
ATOM     15  C   UNL d   1      29.867  17.215 -24.881  0.00  0.00     0.002 A 
ENDBRANCH   7  10
ENDBRANCH   1   5
BRANCH   3  16
ATOM     16  C   UNL d   1      33.116  20.186 -22.894  0.00  0.00     0.087 A 
ATOM     17  C   UNL d   1      32.877  20.924 -22.729  0.00  0.00     0.032 A 
ATOM     18  C   UNL d   1      32.751  21.159 -21.970  0.00  0.00     0.070 A 
ATOM     19 CL   UNL d   1      32.498  21.942 -21.801  0.00  0.00    -0.081 Cl
ATOM     20  C   UNL d   1      32.863  20.659 -21.364  0.00  0.00     0.068 A 
ATOM     21  C   UNL d   1      33.116  19.876 -21.514  0.00  0.00     0.014 A 
ATOM     22 CL   UNL d   1      32.737  20.896 -20.596  0.00  0.00    -0.082 Cl
ATOM     23  C   UNL d   1      33.241  19.642 -22.272  0.00  0.00     0.020 A 
ENDBRANCH   3  16
TORSDOF 3
ENDMDL
MODEL 5
REMARK VINA RESULT:      -0.9      4.497      6.738
REMARK  3 active torsions:
REMARK  status: ('A' for Active; 'I' for Inactive)
REMARK    1  A    between atoms: N_3  and  C_1 
REMARK       I    between atoms: C_5  and  N_3 
REMARK    2  A    between atoms: C_14  and  C_4 
REMARK       I    between atoms: N_8  and  C_5 
REMARK    3  A    between atoms: C_11  and  N_8 
ROOT
ATOM      1  N   UNL d   1      32.509  22.587 -20.701  0.00  0.00    -0.166 NA
ATOM      2  C   UNL d   1      31.904  23.084 -20.813  0.00  0.00     0.370 C 
ATOM      3  N   UNL d   1      31.665  23.577 -20.221  0.00  0.00    -0.191 NA
ATOM      4  O   UNL d   1      31.506  23.110 -21.536  0.00  0.00    -0.242 OA
ENDROOT
BRANCH   1   5
ATOM      5  C   UNL d   1      32.746  22.094 -21.296  0.00  0.00     0.199 A 
ATOM      6  N   UNL d   1      32.677  21.292 -21.291  0.00  0.00    -0.221 NA
ATOM      7  C   UNL d   1      32.984  21.013 -21.998  0.00  0.00     0.090 A 
ATOM      8  C   UNL d   1      33.240  21.666 -22.432  0.00  0.00     0.058 A 
ATOM      9  S   UNL d   1      33.083  22.332 -21.978  0.00  0.00    -0.046 SA
BRANCH   7  10
ATOM     10  C   UNL d   1      33.027  20.237 -22.228  0.00  0.00     0.018 A 
ATOM     11  C   UNL d   1      33.182  19.636 -21.675  0.00  0.00     0.002 A 
ATOM     12  C   UNL d   1      33.226  18.847 -21.912  0.00  0.00     0.000 A 
ATOM     13  C   UNL d   1      33.118  18.648 -22.692  0.00  0.00     0.000 A 
ATOM     14  C   UNL d   1      32.962  19.239 -23.256  0.00  0.00     0.000 A 
ATOM     15  C   UNL d   1      32.916  20.040 -23.026  0.00  0.00     0.002 A 
ENDBRANCH   7  10
ENDBRANCH   1   5
BRANCH   3  16
ATOM     16  C   UNL d   1      32.056  23.563 -19.488  0.00  0.00     0.087 A 
ATOM     17  C   UNL d   1      31.644  23.417 -18.825  0.00  0.00     0.032 A 
ATOM     18  C   UNL d   1      32.007  23.401 -18.107  0.00  0.00     0.070 A 
ATOM     19 CL   UNL d   1      31.565  23.246 -17.409  0.00  0.00    -0.081 Cl
ATOM     20  C   UNL d   1      32.787  23.530 -18.040  0.00  0.00     0.068 A 
ATOM     21  C   UNL d   1      33.241  23.686 -18.724  0.00  0.00     0.014 A 
ATOM     22 CL   UNL d   1      33.153  23.514 -17.314  0.00  0.00    -0.082 Cl
ATOM     23  C   UNL d   1      32.879  23.702 -19.442  0.00  0.00     0.020 A 
ENDBRANCH   3  16
TORSDOF 3
ENDMDL
MODEL 6
REMARK VINA RESULT:      -0.3      3.116      5.349
REMARK  3 active torsions:
REMARK  status: ('A' for Active; 'I' for Inactive)
REMARK    1  A    between atoms: N_3  and  C_1 
REMARK       I    between atoms: C_5  and  N_3 
REMARK    2  A    between atoms: C_14  and  C_4 
REMARK       I    between atoms: N_8  and  C_5 
REMARK    3  A    between atoms: C_11  and  N_8 
ROOT
ATOM      1  N   UNL d   1      32.650  20.449 -22.139  0.00  0.00    -0.166 NA
ATOM      2  C   UNL d   1      32.925  20.173 -21.451  0.00  0.00     0.370 C 
ATOM      3  N   UNL d   1      32.913  20.636 -20.791  0.00  0.00    -0.191 NA
ATOM      4  O   UNL d   1      33.229  19.408 -21.393  0.00  0.00    -0.242 OA
ENDROOT
BRANCH   1   5
ATOM      5  C   UNL d   1      32.663  19.983 -22.798  0.00  0.00     0.199 A 
ATOM      6  N   UNL d   1      32.569  19.183 -22.805  0.00  0.00    -0.221 NA
ATOM      7  C   UNL d   1      32.620  18.934 -23.584  0.00  0.00     0.090 A 
ATOM      8  C   UNL d   1      32.749  19.603 -24.050  0.00  0.00     0.058 A 
ATOM      9  S   UNL d   1      32.773  20.248 -23.542  0.00  0.00    -0.046 SA
BRANCH   7  10
ATOM     10  C   UNL d   1      32.557  18.171 -23.848  0.00  0.00     0.018 A 
ATOM     11  C   UNL d   1      33.231  17.740 -24.073  0.00  0.00     0.002 A 
ATOM     12  C   UNL d   1      33.164  16.962 -24.341  0.00  0.00     0.000 A 
ATOM     13  C   UNL d   1      32.434  16.608 -24.388  0.00  0.00     0.000 A 
ATOM     14  C   UNL d   1      31.751  17.028 -24.166  0.00  0.00     0.000 A 
ATOM     15  C   UNL d   1      31.809  17.815 -23.894  0.00  0.00     0.002 A 
ENDBRANCH   7  10
ENDBRANCH   1   5
BRANCH   3  16
ATOM     16  C   UNL d   1      32.610  21.409 -20.831  0.00  0.00     0.087 A 
ATOM     17  C   UNL d   1      33.039  21.983 -21.170  0.00  0.00     0.032 A 
ATOM     18  C   UNL d   1      32.761  22.736 -21.218  0.00  0.00     0.070 A 
ATOM     19 CL   UNL d   1      33.221  23.340 -21.578  0.00  0.00    -0.081 Cl
ATOM     20  C   UNL d   1      32.048  22.927 -20.927  0.00  0.00     0.068 A 
ATOM     21  C   UNL d   1      31.577  22.339 -20.565  0.00  0.00     0.014 A 
ATOM     22 CL   UNL d   1      31.766  23.688 -20.974  0.00  0.00    -0.082 Cl
ATOM     23  C   UNL d   1      31.856  21.586 -20.517  0.00  0.00     0.020 A 
ENDBRANCH   3  16
TORSDOF 3
ENDMDL
