MODEL 1
REMARK VINA RESULT:      34.2      0.000      0.000
REMARK  3 active torsions:
REMARK  status: ('A' for Active; 'I' for Inactive)
REMARK    1  A    between atoms: N_5  and  C_1 
REMARK    2  A    between atoms: C_8  and  C_2 
REMARK       I    between atoms: C_7  and  N_5 
REMARK       I    between atoms: N_9  and  C_7 
REMARK    3  A    between atoms: C_13  and  N_9 
ROOT
ATOM      1  C   UNL d   1     -54.784-101.073 -43.294  0.00  0.00     0.120 A 
ATOM      2  C   UNL d   1     -54.873-101.057 -44.114  0.00  0.00     0.084 A 
ATOM      3  S   UNL d   1     -54.749-100.295 -43.061  0.00  0.00    -0.068 SA
ATOM      4  C   UNL d   1     -54.888-100.292 -44.345  0.00  0.00     0.013 A 
ATOM      5  C   UNL d   1     -54.814 -99.829 -43.712  0.00  0.00     0.031 A 
ATOM      6  C   UNL d   1     -54.970-100.014 -45.141  0.00  0.00     0.001 C 
ATOM      7  C   UNL d   1     -54.807 -98.993 -43.740  0.00  0.00     0.007 C 
ENDROOT
BRANCH   1   8
ATOM      8  N   UNL d   1     -54.712-102.216 -42.495  0.00  0.00    -0.184 NA
ATOM      9  C   UNL d   1     -54.984-102.208 -41.732  0.00  0.00     0.369 C 
ATOM     10  N   UNL d   1     -54.948-102.879 -41.246  0.00  0.00    -0.191 NA
ATOM     11  O   UNL d   1     -55.306-101.510 -41.431  0.00  0.00    -0.242 OA
BRANCH  10  12
ATOM     12  C   UNL d   1     -55.224-102.856 -40.483  0.00  0.00     0.086 A 
ATOM     13  C   UNL d   1     -56.040-102.869 -40.334  0.00  0.00     0.019 A 
ATOM     14  C   UNL d   1     -56.326-102.847 -39.582  0.00  0.00     0.002 A 
ATOM     15  C   UNL d   1     -55.802-102.809 -38.943  0.00  0.00     0.000 A 
ATOM     16  C   UNL d   1     -54.977-102.795 -39.081  0.00  0.00     0.002 A 
ATOM     17  C   UNL d   1     -54.712-102.819 -39.862  0.00  0.00     0.019 A 
ENDBRANCH  10  12
ENDBRANCH   1   8
BRANCH   2  18
ATOM     18  C   UNL d   1     -54.934-101.724 -44.607  0.00  0.00     0.299 C 
ATOM     19  O   UNL d   1     -54.827-101.653 -45.427  0.00  0.00    -0.264 OA
ATOM     20  N   UNL d   1     -55.103-102.474 -44.289  0.00  0.00    -0.102 N 
ENDBRANCH   2  18
TORSDOF 3
ENDMDL
