MODEL 1
REMARK VINA RESULT:      -2.7      0.000      0.000
REMARK  4 active torsions:
REMARK  status: ('A' for Active; 'I' for Inactive)
REMARK    1  A    between atoms: C_6  and  N_1 
REMARK    2  A    between atoms: C_7  and  C_6 
REMARK    3  A    between atoms: C_14  and  C_7 
REMARK    4  A    between atoms: N_10  and  C_14 
ROOT
ATOM      1  N   UNL d   1      58.932  -0.672  29.262  0.00  0.00    -0.303 N 
ATOM      2  C   UNL d   1      59.026  -1.489  29.182  0.00  0.00     0.064 A 
ATOM      3  C   UNL d   1      59.787  -1.635  28.881  0.00  0.00     0.018 A 
ATOM      4  C   UNL d   1      59.632  -0.310  29.011  0.00  0.00     0.064 A 
ATOM      5  C   UNL d   1      60.159  -0.903  28.777  0.00  0.00     0.018 A 
ATOM      6  C   UNL d   1      58.521  -2.125  29.343  0.00  0.00     0.018 A 
ATOM      7  C   UNL d   1      60.037  -2.408  28.745  0.00  0.00     0.002 A 
ATOM      8  C   UNL d   1      59.857   0.482  28.966  0.00  0.00     0.018 A 
ATOM      9  C   UNL d   1      60.909  -0.701  28.499  0.00  0.00     0.002 A 
ATOM     10  C   UNL d   1      59.534  -3.041  28.905  0.00  0.00     0.000 A 
ATOM     11  C   UNL d   1      58.776  -2.905  29.204  0.00  0.00     0.002 A 
ATOM     12  C   UNL d   1      60.604   0.681  28.689  0.00  0.00     0.002 A 
ATOM     13  C   UNL d   1      61.131   0.088  28.455  0.00  0.00     0.000 A 
ENDROOT
BRANCH   1  14
ATOM     14  C   UNL d   1      58.260  -0.294  29.540  0.00  0.00     0.124 C 
BRANCH  14  15
ATOM     15  C   UNL d   1      58.165  -0.146  30.342  0.00  0.00     0.232 C 
ATOM     16  O   UNL d   1      58.766   0.211  30.776  0.00  0.00    -0.283 OA
BRANCH  15  17
ATOM     17  C   UNL d   1      57.459  -0.359  30.712  0.00  0.00     0.142 C 
BRANCH  17  18
ATOM     18  N   UNL d   1      57.229   0.016  31.412  0.00  0.00    -0.237 NA
ATOM     19  C   UNL d   1      56.649  -0.330  31.883  0.00  0.00     0.120 C 
ENDBRANCH  17  18
ENDBRANCH  15  17
ENDBRANCH  14  15
ENDBRANCH   1  14
TORSDOF 4
ENDMDL
MODEL 2
REMARK VINA RESULT:      -2.6      0.101      2.153
REMARK  4 active torsions:
REMARK  status: ('A' for Active; 'I' for Inactive)
REMARK    1  A    between atoms: C_6  and  N_1 
REMARK    2  A    between atoms: C_7  and  C_6 
REMARK    3  A    between atoms: C_14  and  C_7 
REMARK    4  A    between atoms: N_10  and  C_14 
ROOT
ATOM      1  N   UNL d   1      58.943  -0.682  29.306  0.00  0.00    -0.303 N 
ATOM      2  C   UNL d   1      59.638  -0.317  29.046  0.00  0.00     0.064 A 
ATOM      3  C   UNL d   1      60.157  -0.907  28.777  0.00  0.00     0.018 A 
ATOM      4  C   UNL d   1      59.030  -1.497  29.198  0.00  0.00     0.064 A 
ATOM      5  C   UNL d   1      59.778  -1.636  28.873  0.00  0.00     0.018 A 
ATOM      6  C   UNL d   1      59.870   0.477  29.017  0.00  0.00     0.018 A 
ATOM      7  C   UNL d   1      60.899  -0.702  28.484  0.00  0.00     0.002 A 
ATOM      8  C   UNL d   1      58.525  -2.131  29.355  0.00  0.00     0.018 A 
ATOM      9  C   UNL d   1      60.017  -2.408  28.706  0.00  0.00     0.002 A 
ATOM     10  C   UNL d   1      61.131   0.087  28.455  0.00  0.00     0.000 A 
ATOM     11  C   UNL d   1      60.621   0.681  28.721  0.00  0.00     0.002 A 
ATOM     12  C   UNL d   1      58.765  -2.898  29.188  0.00  0.00     0.002 A 
ATOM     13  C   UNL d   1      59.513  -3.036  28.863  0.00  0.00     0.000 A 
ENDROOT
BRANCH   1  14
ATOM     14  C   UNL d   1      58.288  -0.298  29.613  0.00  0.00     0.124 C 
BRANCH  14  15
ATOM     15  C   UNL d   1      58.209  -0.188  30.423  0.00  0.00     0.232 C 
ATOM     16  O   UNL d   1      58.865  -0.013  30.888  0.00  0.00    -0.283 OA
BRANCH  15  17
ATOM     17  C   UNL d   1      57.463  -0.256  30.770  0.00  0.00     0.142 C 
BRANCH  17  18
ATOM     18  N   UNL d   1      57.348  -0.018  31.553  0.00  0.00    -0.237 NA
ATOM     19  C   UNL d   1      56.611  -0.130  31.904  0.00  0.00     0.120 C 
ENDBRANCH  17  18
ENDBRANCH  15  17
ENDBRANCH  14  15
ENDBRANCH   1  14
TORSDOF 4
ENDMDL
MODEL 3
REMARK VINA RESULT:      -2.6      2.548      5.781
REMARK  4 active torsions:
REMARK  status: ('A' for Active; 'I' for Inactive)
REMARK    1  A    between atoms: C_6  and  N_1 
REMARK    2  A    between atoms: C_7  and  C_6 
REMARK    3  A    between atoms: C_14  and  C_7 
REMARK    4  A    between atoms: N_10  and  C_14 
ROOT
ATOM      1  N   UNL d   1      56.332   0.668  33.160  0.00  0.00    -0.303 N 
ATOM      2  C   UNL d   1      55.618   0.665  33.577  0.00  0.00     0.064 A 
ATOM      3  C   UNL d   1      55.791   0.666  34.390  0.00  0.00     0.018 A 
ATOM      4  C   UNL d   1      56.948   0.672  33.713  0.00  0.00     0.064 A 
ATOM      5  C   UNL d   1      56.615   0.671  34.470  0.00  0.00     0.018 A 
ATOM      6  C   UNL d   1      54.829   0.660  33.326  0.00  0.00     0.018 A 
ATOM      7  C   UNL d   1      55.180   0.663  34.942  0.00  0.00     0.002 A 
ATOM      8  C   UNL d   1      57.768   0.677  33.623  0.00  0.00     0.018 A 
ATOM      9  C   UNL d   1      57.103   0.674  35.135  0.00  0.00     0.002 A 
ATOM     10  C   UNL d   1      54.395   0.659  34.693  0.00  0.00     0.000 A 
ATOM     11  C   UNL d   1      54.214   0.657  33.887  0.00  0.00     0.002 A 
ATOM     12  C   UNL d   1      58.252   0.680  34.286  0.00  0.00     0.002 A 
ATOM     13  C   UNL d   1      57.919   0.679  35.043  0.00  0.00     0.000 A 
ENDROOT
BRANCH   1  14
ATOM     14  C   UNL d   1      56.409   0.668  32.345  0.00  0.00     0.124 C 
BRANCH  14  15
ATOM     15  C   UNL d   1      56.695   0.007  31.951  0.00  0.00     0.232 C 
ATOM     16  O   UNL d   1      56.404  -0.742  32.125  0.00  0.00    -0.283 OA
BRANCH  15  17
ATOM     17  C   UNL d   1      57.280   0.100  31.377  0.00  0.00     0.142 C 
BRANCH  17  18
ATOM     18  N   UNL d   1      57.271  -0.371  30.697  0.00  0.00    -0.237 NA
ATOM     19  C   UNL d   1      57.950  -0.422  30.233  0.00  0.00     0.120 C 
ENDBRANCH  17  18
ENDBRANCH  15  17
ENDBRANCH  14  15
ENDBRANCH   1  14
TORSDOF 4
ENDMDL
MODEL 4
REMARK VINA RESULT:      -2.6      2.558      5.969
REMARK  4 active torsions:
REMARK  status: ('A' for Active; 'I' for Inactive)
REMARK    1  A    between atoms: C_6  and  N_1 
REMARK    2  A    between atoms: C_7  and  C_6 
REMARK    3  A    between atoms: C_14  and  C_7 
REMARK    4  A    between atoms: N_10  and  C_14 
ROOT
ATOM      1  N   UNL d   1      56.367   0.649  33.178  0.00  0.00    -0.303 N 
ATOM      2  C   UNL d   1      56.949   0.659  33.765  0.00  0.00     0.064 A 
ATOM      3  C   UNL d   1      56.571   0.665  34.505  0.00  0.00     0.018 A 
ATOM      4  C   UNL d   1      55.629   0.649  33.552  0.00  0.00     0.064 A 
ATOM      5  C   UNL d   1      55.755   0.659  34.370  0.00  0.00     0.018 A 
ATOM      6  C   UNL d   1      57.776   0.664  33.726  0.00  0.00     0.018 A 
ATOM      7  C   UNL d   1      57.019   0.675  35.197  0.00  0.00     0.002 A 
ATOM      8  C   UNL d   1      54.860   0.641  33.254  0.00  0.00     0.018 A 
ATOM      9  C   UNL d   1      55.111   0.660  34.886  0.00  0.00     0.002 A 
ATOM     10  C   UNL d   1      57.842   0.680  35.159  0.00  0.00     0.000 A 
ATOM     11  C   UNL d   1      58.225   0.674  34.427  0.00  0.00     0.002 A 
ATOM     12  C   UNL d   1      54.221   0.643  33.769  0.00  0.00     0.002 A 
ATOM     13  C   UNL d   1      54.347   0.652  34.587  0.00  0.00     0.000 A 
ENDROOT
BRANCH   1  14
ATOM     14  C   UNL d   1      56.503   0.642  32.370  0.00  0.00     0.124 C 
BRANCH  14  15
ATOM     15  C   UNL d   1      56.722  -0.052  31.989  0.00  0.00     0.232 C 
ATOM     16  O   UNL d   1      56.308  -0.750  32.121  0.00  0.00    -0.283 OA
BRANCH  15  17
ATOM     17  C   UNL d   1      57.364  -0.043  31.470  0.00  0.00     0.142 C 
BRANCH  17  18
ATOM     18  N   UNL d   1      57.306  -0.417  30.735  0.00  0.00    -0.237 NA
ATOM     19  C   UNL d   1      57.902  -0.304  30.178  0.00  0.00     0.120 C 
ENDBRANCH  17  18
ENDBRANCH  15  17
ENDBRANCH  14  15
ENDBRANCH   1  14
TORSDOF 4
ENDMDL
MODEL 5
REMARK VINA RESULT:      -2.2      9.252      9.580
REMARK  4 active torsions:
REMARK  status: ('A' for Active; 'I' for Inactive)
REMARK    1  A    between atoms: C_6  and  N_1 
REMARK    2  A    between atoms: C_7  and  C_6 
REMARK    3  A    between atoms: C_14  and  C_7 
REMARK    4  A    between atoms: N_10  and  C_14 
ROOT
ATOM      1  N   UNL d   1      59.348  -9.817  33.120  0.00  0.00    -0.303 N 
ATOM      2  C   UNL d   1      58.592  -9.817  32.786  0.00  0.00     0.064 A 
ATOM      3  C   UNL d   1      58.673  -9.817  31.959  0.00  0.00     0.018 A 
ATOM      4  C   UNL d   1      59.898  -9.817  32.503  0.00  0.00     0.064 A 
ATOM      5  C   UNL d   1      59.483  -9.817  31.787  0.00  0.00     0.018 A 
ATOM      6  C   UNL d   1      57.836  -9.818  33.123  0.00  0.00     0.018 A 
ATOM      7  C   UNL d   1      58.004  -9.817  31.478  0.00  0.00     0.002 A 
ATOM      8  C   UNL d   1      60.723  -9.817  32.500  0.00  0.00     0.018 A 
ATOM      9  C   UNL d   1      59.894  -9.817  31.072  0.00  0.00     0.002 A 
ATOM     10  C   UNL d   1      57.252  -9.818  31.813  0.00  0.00     0.000 A 
ATOM     11  C   UNL d   1      57.162  -9.818  32.634  0.00  0.00     0.002 A 
ATOM     12  C   UNL d   1      61.130  -9.817  31.787  0.00  0.00     0.002 A 
ATOM     13  C   UNL d   1      60.715  -9.817  31.072  0.00  0.00     0.000 A 
ENDROOT
BRANCH   1  14
ATOM     14  C   UNL d   1      59.515  -9.817  33.922  0.00  0.00     0.124 C 
BRANCH  14  15
ATOM     15  C   UNL d   1      59.717  -9.121  34.308  0.00  0.00     0.232 C 
ATOM     16  O   UNL d   1      59.437  -8.397  34.038  0.00  0.00    -0.283 OA
BRANCH  15  17
ATOM     17  C   UNL d   1      60.206  -9.154  34.971  0.00  0.00     0.142 C 
BRANCH  17  18
ATOM     18  N   UNL d   1      60.212  -8.528  35.512  0.00  0.00    -0.237 NA
ATOM     19  C   UNL d   1      60.906  -8.354  35.920  0.00  0.00     0.120 C 
ENDBRANCH  17  18
ENDBRANCH  15  17
ENDBRANCH  14  15
ENDBRANCH   1  14
TORSDOF 4
ENDMDL
MODEL 6
REMARK VINA RESULT:      -2.0      2.050      2.552
REMARK  4 active torsions:
REMARK  status: ('A' for Active; 'I' for Inactive)
REMARK    1  A    between atoms: C_6  and  N_1 
REMARK    2  A    between atoms: C_7  and  C_6 
REMARK    3  A    between atoms: C_14  and  C_7 
REMARK    4  A    between atoms: N_10  and  C_14 
ROOT
ATOM      1  N   UNL d   1      58.458   0.652  30.894  0.00  0.00    -0.303 N 
ATOM      2  C   UNL d   1      58.475   0.649  30.067  0.00  0.00     0.064 A 
ATOM      3  C   UNL d   1      59.269   0.656  29.824  0.00  0.00     0.018 A 
ATOM      4  C   UNL d   1      59.240   0.661  31.163  0.00  0.00     0.064 A 
ATOM      5  C   UNL d   1      59.740   0.664  30.504  0.00  0.00     0.018 A 
ATOM      6  C   UNL d   1      57.872   0.641  29.500  0.00  0.00     0.018 A 
ATOM      7  C   UNL d   1      59.455   0.655  29.021  0.00  0.00     0.002 A 
ATOM      8  C   UNL d   1      59.561   0.667  31.923  0.00  0.00     0.018 A 
ATOM      9  C   UNL d   1      60.558   0.672  30.608  0.00  0.00     0.002 A 
ATOM     10  C   UNL d   1      58.856   0.647  28.456  0.00  0.00     0.000 A 
ATOM     11  C   UNL d   1      58.063   0.640  28.690  0.00  0.00     0.002 A 
ATOM     12  C   UNL d   1      60.375   0.676  32.024  0.00  0.00     0.002 A 
ATOM     13  C   UNL d   1      60.875   0.678  31.365  0.00  0.00     0.000 A 
ENDROOT
BRANCH   1  14
ATOM     14  C   UNL d   1      57.783   0.648  31.357  0.00  0.00     0.124 C 
BRANCH  14  15
ATOM     15  C   UNL d   1      57.388  -0.055  31.514  0.00  0.00     0.232 C 
ATOM     16  O   UNL d   1      57.669  -0.769  31.219  0.00  0.00    -0.283 OA
BRANCH  15  17
ATOM     17  C   UNL d   1      56.702  -0.040  31.973  0.00  0.00     0.142 C 
BRANCH  17  18
ATOM     18  N   UNL d   1      56.352  -0.748  32.218  0.00  0.00    -0.237 NA
ATOM     19  C   UNL d   1      55.995  -0.786  32.959  0.00  0.00     0.120 C 
ENDBRANCH  17  18
ENDBRANCH  15  17
ENDBRANCH  14  15
ENDBRANCH   1  14
TORSDOF 4
ENDMDL
MODEL 7
REMARK VINA RESULT:      -1.9      1.259      2.774
REMARK  4 active torsions:
REMARK  status: ('A' for Active; 'I' for Inactive)
REMARK    1  A    between atoms: C_6  and  N_1 
REMARK    2  A    between atoms: C_7  and  C_6 
REMARK    3  A    between atoms: C_14  and  C_7 
REMARK    4  A    between atoms: N_10  and  C_14 
ROOT
ATOM      1  N   UNL d   1      58.967  -0.996  29.064  0.00  0.00    -0.303 N 
ATOM      2  C   UNL d   1      58.522  -0.754  29.718  0.00  0.00     0.064 A 
ATOM      3  C   UNL d   1      58.895  -0.093  30.055  0.00  0.00     0.018 A 
ATOM      4  C   UNL d   1      59.615  -0.486  28.996  0.00  0.00     0.064 A 
ATOM      5  C   UNL d   1      59.570   0.070  29.606  0.00  0.00     0.018 A 
ATOM      6  C   UNL d   1      57.825  -1.048  30.054  0.00  0.00     0.018 A 
ATOM      7  C   UNL d   1      58.572   0.269  30.721  0.00  0.00     0.002 A 
ATOM      8  C   UNL d   1      60.238  -0.456  28.456  0.00  0.00     0.018 A 
ATOM      9  C   UNL d   1      60.150   0.654  29.674  0.00  0.00     0.002 A 
ATOM     10  C   UNL d   1      57.878  -0.023  31.056  0.00  0.00     0.000 A 
ATOM     11  C   UNL d   1      57.501  -0.680  30.727  0.00  0.00     0.002 A 
ATOM     12  C   UNL d   1      60.813   0.125  28.526  0.00  0.00     0.002 A 
ATOM     13  C   UNL d   1      60.769   0.681  29.136  0.00  0.00     0.000 A 
ENDROOT
BRANCH   1  14
ATOM     14  C   UNL d   1      58.792  -1.629  28.576  0.00  0.00     0.124 C 
BRANCH  14  15
ATOM     15  C   UNL d   1      59.065  -2.383  28.752  0.00  0.00     0.232 C 
ATOM     16  O   UNL d   1      59.733  -2.487  29.220  0.00  0.00    -0.283 OA
BRANCH  15  17
ATOM     17  C   UNL d   1      58.662  -3.039  28.456  0.00  0.00     0.142 C 
BRANCH  17  18
ATOM     18  N   UNL d   1      58.895  -3.802  28.676  0.00  0.00    -0.237 NA
ATOM     19  C   UNL d   1      58.372  -4.430  28.570  0.00  0.00     0.120 C 
ENDBRANCH  17  18
ENDBRANCH  15  17
ENDBRANCH  14  15
ENDBRANCH   1  14
TORSDOF 4
ENDMDL
MODEL 8
REMARK VINA RESULT:      -1.6      1.147      3.266
REMARK  4 active torsions:
REMARK  status: ('A' for Active; 'I' for Inactive)
REMARK    1  A    between atoms: C_6  and  N_1 
REMARK    2  A    between atoms: C_7  and  C_6 
REMARK    3  A    between atoms: C_14  and  C_7 
REMARK    4  A    between atoms: N_10  and  C_14 
ROOT
ATOM      1  N   UNL d   1      58.890  -1.009  29.236  0.00  0.00    -0.303 N 
ATOM      2  C   UNL d   1      59.552  -0.546  29.059  0.00  0.00     0.064 A 
ATOM      3  C   UNL d   1      59.548   0.115  29.563  0.00  0.00     0.018 A 
ATOM      4  C   UNL d   1      58.476  -0.637  29.848  0.00  0.00     0.064 A 
ATOM      5  C   UNL d   1      58.881   0.055  30.050  0.00  0.00     0.018 A 
ATOM      6  C   UNL d   1      60.160  -0.636  28.506  0.00  0.00     0.018 A 
ATOM      7  C   UNL d   1      60.148   0.677  29.511  0.00  0.00     0.002 A 
ATOM      8  C   UNL d   1      57.783  -0.840  30.248  0.00  0.00     0.018 A 
ATOM      9  C   UNL d   1      58.592   0.542  30.650  0.00  0.00     0.002 A 
ATOM     10  C   UNL d   1      60.754   0.588  28.960  0.00  0.00     0.000 A 
ATOM     11  C   UNL d   1      60.764  -0.066  28.455  0.00  0.00     0.002 A 
ATOM     12  C   UNL d   1      57.497  -0.354  30.844  0.00  0.00     0.002 A 
ATOM     13  C   UNL d   1      57.902   0.338  31.046  0.00  0.00     0.000 A 
ENDROOT
BRANCH   1  14
ATOM     14  C   UNL d   1      58.687  -1.711  28.867  0.00  0.00     0.124 C 
BRANCH  14  15
ATOM     15  C   UNL d   1      58.968  -2.429  29.148  0.00  0.00     0.232 C 
ATOM     16  O   UNL d   1      58.887  -2.629  29.942  0.00  0.00    -0.283 OA
BRANCH  15  17
ATOM     17  C   UNL d   1      59.334  -2.953  28.626  0.00  0.00     0.142 C 
BRANCH  17  18
ATOM     18  N   UNL d   1      59.805  -3.568  28.919  0.00  0.00    -0.237 NA
ATOM     19  C   UNL d   1      59.926  -4.238  28.455  0.00  0.00     0.120 C 
ENDBRANCH  17  18
ENDBRANCH  15  17
ENDBRANCH  14  15
ENDBRANCH   1  14
TORSDOF 4
ENDMDL
MODEL 9
REMARK VINA RESULT:       0.3      1.710      4.179
REMARK  4 active torsions:
REMARK  status: ('A' for Active; 'I' for Inactive)
REMARK    1  A    between atoms: C_6  and  N_1 
REMARK    2  A    between atoms: C_7  and  C_6 
REMARK    3  A    between atoms: C_14  and  C_7 
REMARK    4  A    between atoms: N_10  and  C_14 
ROOT
ATOM      1  N   UNL d   1      57.764   0.113  31.272  0.00  0.00    -0.303 N 
ATOM      2  C   UNL d   1      58.508   0.283  31.589  0.00  0.00     0.064 A 
ATOM      3  C   UNL d   1      58.409   0.484  32.389  0.00  0.00     0.018 A 
ATOM      4  C   UNL d   1      57.204   0.208  31.873  0.00  0.00     0.064 A 
ATOM      5  C   UNL d   1      57.601   0.437  32.561  0.00  0.00     0.018 A 
ATOM      6  C   UNL d   1      59.266   0.282  31.258  0.00  0.00     0.018 A 
ATOM      7  C   UNL d   1      59.063   0.682  32.849  0.00  0.00     0.002 A 
ATOM      8  C   UNL d   1      56.384   0.116  31.882  0.00  0.00     0.018 A 
ATOM      9  C   UNL d   1      57.177   0.572  33.256  0.00  0.00     0.002 A 
ATOM     10  C   UNL d   1      59.818   0.681  32.520  0.00  0.00     0.000 A 
ATOM     11  C   UNL d   1      59.925   0.483  31.725  0.00  0.00     0.002 A 
ATOM     12  C   UNL d   1      55.964   0.251  32.574  0.00  0.00     0.002 A 
ATOM     13  C   UNL d   1      56.361   0.480  33.262  0.00  0.00     0.000 A 
ENDROOT
BRANCH   1  14
ATOM     14  C   UNL d   1      57.615  -0.110  30.498  0.00  0.00     0.124 C 
BRANCH  14  15
ATOM     15  C   UNL d   1      57.769  -0.876  30.246  0.00  0.00     0.232 C 
ATOM     16  O   UNL d   1      57.420  -1.518  30.622  0.00  0.00    -0.283 OA
BRANCH  15  17
ATOM     17  C   UNL d   1      58.278  -0.998  29.608  0.00  0.00     0.142 C 
BRANCH  17  18
ATOM     18  N   UNL d   1      58.320  -1.741  29.248  0.00  0.00    -0.237 NA
ATOM     19  C   UNL d   1      58.542  -1.793  28.456  0.00  0.00     0.120 C 
ENDBRANCH  17  18
ENDBRANCH  15  17
ENDBRANCH  14  15
ENDBRANCH   1  14
TORSDOF 4
ENDMDL
