MODEL 1
REMARK VINA RESULT:      44.2      0.000      0.000
REMARK  7 active torsions:
REMARK  status: ('A' for Active; 'I' for Inactive)
REMARK    1  A    between atoms: C_4  and  S_1 
REMARK    2  A    between atoms: N_10  and  S_1 
REMARK    3  A    between atoms: C_3  and  C_2 
REMARK       I    between atoms: N_6  and  C_3 
REMARK    4  A    between atoms: C_16  and  N_6 
REMARK    5  A    between atoms: C_19  and  N_10 
REMARK    6  A    between atoms: C_12  and  C_24 
REMARK    7  A    between atoms: C_24  and  C_19 
ROOT
ATOM      1  C   UNL d   1      13.401  13.372  -3.963  0.00  0.00     0.086 A 
ATOM      2  C   UNL d   1      13.538  12.313  -3.017  0.00  0.00     0.106 A 
ATOM      3  C   UNL d   1      13.618  13.108  -3.214  0.00  0.00     0.020 A 
ATOM      4  C   UNL d   1      13.102  12.837  -4.519  0.00  0.00     0.145 A 
ATOM      5  C   UNL d   1      13.241  11.780  -3.570  0.00  0.00     0.015 A 
ATOM      6  C   UNL d   1      13.023  12.044  -4.322  0.00  0.00     0.030 A 
ATOM      7  F   UNL d   1      12.885  13.094  -5.265  0.00  0.00    -0.204 F 
ENDROOT
BRANCH   2   8
ATOM      8  S   UNL d   1      13.755  12.045  -2.266  0.00  0.00     0.285 S 
ATOM      9  O   UNL d   1      14.547  12.107  -2.476  0.00  0.00    -0.198 OA
ATOM     10  O   UNL d   1      12.963  11.982  -2.053  0.00  0.00    -0.198 OA
BRANCH   8  11
ATOM     11  N   UNL d   1      13.966  11.779  -1.518  0.00  0.00    -0.157 NA
BRANCH  11  12
ATOM     12  C   UNL d   1      13.920  12.304  -0.865  0.00  0.00     0.112 C 
BRANCH  12  13
ATOM     13  C   UNL d   1      14.575  12.449  -0.401  0.00  0.00     0.021 C 
BRANCH  13  14
ATOM     14  C   UNL d   1      14.835  13.209  -0.276  0.00  0.00     0.002 A 
ATOM     15  C   UNL d   1      14.297  13.847  -0.263  0.00  0.00     0.000 A 
ATOM     16  C   UNL d   1      14.562  14.622  -0.136  0.00  0.00     0.000 A 
ATOM     17  C   UNL d   1      15.372  14.778  -0.019  0.00  0.00     0.000 A 
ATOM     18  C   UNL d   1      15.908  14.139  -0.032  0.00  0.00     0.000 A 
ATOM     19  C   UNL d   1      15.643  13.365  -0.159  0.00  0.00     0.000 A 
ENDBRANCH  13  14
ENDBRANCH  12  13
ENDBRANCH  11  12
ENDBRANCH   8  11
ENDBRANCH   2   8
BRANCH   1  20
ATOM     20  C   UNL d   1      13.476  14.162  -4.172  0.00  0.00     0.281 C 
ATOM     21  N   UNL d   1      14.208  14.436  -4.454  0.00  0.00    -0.208 NA
ATOM     22  O   UNL d   1      12.843  14.680  -4.106  0.00  0.00    -0.265 OA
BRANCH  21  23
ATOM     23  C   UNL d   1      14.286  15.225  -4.664  0.00  0.00     0.085 A 
ATOM     24  C   UNL d   1      14.254  15.807  -4.094  0.00  0.00     0.019 A 
ATOM     25  C   UNL d   1      14.334  16.598  -4.318  0.00  0.00     0.002 A 
ATOM     26  C   UNL d   1      14.445  16.808  -5.108  0.00  0.00     0.000 A 
ATOM     27  C   UNL d   1      14.475  16.212  -5.679  0.00  0.00     0.002 A 
ATOM     28  C   UNL d   1      14.524  17.595  -5.330  0.00  0.00     0.000 C 
ATOM     29  C   UNL d   1      14.396  15.422  -5.461  0.00  0.00     0.019 A 
ENDBRANCH  21  23
ENDBRANCH   1  20
TORSDOF 7
ENDMDL
