MODEL 1
REMARK VINA RESULT:      -3.9      0.000      0.000
REMARK  5 active torsions:
REMARK  status: ('A' for Active; 'I' for Inactive)
REMARK       I    between atoms: C_2  and  N_1 
REMARK    1  A    between atoms: C_5  and  C_2 
REMARK    2  A    between atoms: S_7  and  C_3 
REMARK    3  A    between atoms: N_4  and  C_8 
REMARK    4  A    between atoms: C_17  and  S_7 
REMARK    5  A    between atoms: C_18  and  C_17 
ROOT
ATOM      1  N   UNL d   1      59.088  -1.153  29.336  0.00  0.00    -0.251 N 
ATOM      2  C   UNL d   1      58.972  -1.936  29.567  0.00  0.00     0.266 C 
ATOM      3  C   UNL d   1      58.713  -0.486  29.654  0.00  0.00     0.182 A 
ATOM      4  N   UNL d   1      58.997   0.174  29.258  0.00  0.00    -0.219 NA
ATOM      5  O   UNL d   1      58.437  -2.117  30.170  0.00  0.00    -0.267 OA
ATOM      6  C   UNL d   1      59.608  -0.896  28.738  0.00  0.00     0.106 A 
ATOM      7  C   UNL d   1      59.548  -0.070  28.694  0.00  0.00     0.120 A 
ENDROOT
BRANCH   3   8
ATOM      8  S   UNL d   1      58.155  -0.497  30.260  0.00  0.00    -0.049 SA
BRANCH   8   9
ATOM      9  C   UNL d   1      57.843   0.205  30.539  0.00  0.00     0.038 C 
BRANCH   9  10
ATOM     10  C   UNL d   1      57.506   0.238  31.285  0.00  0.00     0.007 A 
ATOM     11  C   UNL d   1      57.895   0.615  31.904  0.00  0.00     0.002 A 
ATOM     12  C   UNL d   1      57.556   0.649  32.656  0.00  0.00     0.024 A 
ATOM     13  C   UNL d   1      56.824   0.301  32.783  0.00  0.00     0.127 A 
ATOM     14  C   UNL d   1      56.425  -0.079  32.175  0.00  0.00     0.024 A 
ATOM     15  C   UNL d   1      56.765  -0.113  31.420  0.00  0.00     0.002 A 
BRANCH  13  16
ATOM     16  N   UNL d   1      56.478   0.331  33.536  0.00  0.00    -0.114 N 
ATOM     17  O   UNL d   1      56.928   0.588  34.199  0.00  0.00    -0.532 OA
ATOM     18  O   UNL d   1      55.683   0.107  33.650  0.00  0.00    -0.532 OA
ENDBRANCH  13  16
ENDBRANCH   9  10
ENDBRANCH   8   9
ENDBRANCH   3   8
BRANCH   2  19
ATOM     19  C   UNL d   1      59.392  -2.547  29.192  0.00  0.00     0.057 A 
ATOM     20  C   UNL d   1      58.975  -3.162  28.822  0.00  0.00     0.005 A 
ATOM     21  C   UNL d   1      58.150  -3.165  28.826  0.00  0.00     0.000 C 
ATOM     22  C   UNL d   1      59.397  -3.758  28.456  0.00  0.00     0.000 A 
ATOM     23  C   UNL d   1      60.230  -3.746  28.456  0.00  0.00     0.000 A 
ATOM     24  C   UNL d   1      60.638  -3.139  28.822  0.00  0.00     0.000 A 
ATOM     25  C   UNL d   1      60.217  -2.535  29.192  0.00  0.00     0.005 A 
ENDBRANCH   2  19
TORSDOF 5
ENDMDL
MODEL 2
REMARK VINA RESULT:      -2.5      0.934      1.455
REMARK  5 active torsions:
REMARK  status: ('A' for Active; 'I' for Inactive)
REMARK       I    between atoms: C_2  and  N_1 
REMARK    1  A    between atoms: C_5  and  C_2 
REMARK    2  A    between atoms: S_7  and  C_3 
REMARK    3  A    between atoms: N_4  and  C_8 
REMARK    4  A    between atoms: C_17  and  S_7 
REMARK    5  A    between atoms: C_18  and  C_17 
ROOT
ATOM      1  N   UNL d   1      58.727  -0.261  29.410  0.00  0.00    -0.251 N 
ATOM      2  C   UNL d   1      59.235  -0.789  29.788  0.00  0.00     0.266 C 
ATOM      3  C   UNL d   1      58.179   0.241  29.777  0.00  0.00     0.182 A 
ATOM      4  N   UNL d   1      57.796   0.667  29.189  0.00  0.00    -0.219 NA
ATOM      5  O   UNL d   1      59.229  -0.857  30.612  0.00  0.00    -0.267 OA
ATOM      6  C   UNL d   1      58.678  -0.139  28.587  0.00  0.00     0.106 A 
ATOM      7  C   UNL d   1      58.097   0.438  28.455  0.00  0.00     0.120 A 
ENDROOT
BRANCH   3   8
ATOM      8  S   UNL d   1      58.051   0.294  30.589  0.00  0.00    -0.049 SA
BRANCH   8   9
ATOM      9  C   UNL d   1      57.382   0.668  30.872  0.00  0.00     0.038 C 
BRANCH   9  10
ATOM     10  C   UNL d   1      57.107   0.505  31.627  0.00  0.00     0.007 A 
ATOM     11  C   UNL d   1      57.568   0.680  32.286  0.00  0.00     0.002 A 
ATOM     12  C   UNL d   1      57.293   0.517  33.047  0.00  0.00     0.024 A 
ATOM     13  C   UNL d   1      56.553   0.177  33.142  0.00  0.00     0.127 A 
ATOM     14  C   UNL d   1      56.083  -0.002  32.494  0.00  0.00     0.024 A 
ATOM     15  C   UNL d   1      56.358   0.162  31.730  0.00  0.00     0.002 A 
BRANCH  13  16
ATOM     16  N   UNL d   1      56.270   0.011  33.904  0.00  0.00    -0.114 N 
ATOM     17  O   UNL d   1      56.457   0.521  34.546  0.00  0.00    -0.532 OA
ATOM     18  O   UNL d   1      55.799  -0.662  34.047  0.00  0.00    -0.532 OA
ENDBRANCH  13  16
ENDBRANCH   9  10
ENDBRANCH   8   9
ENDBRANCH   3   8
BRANCH   2  19
ATOM     19  C   UNL d   1      59.756  -1.257  29.341  0.00  0.00     0.057 A 
ATOM     20  C   UNL d   1      60.567  -1.081  29.342  0.00  0.00     0.005 A 
ATOM     21  C   UNL d   1      60.852  -0.446  29.785  0.00  0.00     0.000 C 
ATOM     22  C   UNL d   1      61.071  -1.546  28.900  0.00  0.00     0.000 A 
ATOM     23  C   UNL d   1      60.774  -2.185  28.455  0.00  0.00     0.000 A 
ATOM     24  C   UNL d   1      59.974  -2.357  28.455  0.00  0.00     0.000 A 
ATOM     25  C   UNL d   1      59.462  -1.890  28.901  0.00  0.00     0.005 A 
ENDBRANCH   2  19
TORSDOF 5
ENDMDL
