MODEL 1
REMARK VINA RESULT:      -2.6      0.000      0.000
REMARK  6 active torsions:
REMARK  status: ('A' for Active; 'I' for Inactive)
REMARK    1  A    between atoms: S_15  and  C_4 
REMARK    2  A    between atoms: C_7  and  N_13 
REMARK    3  A    between atoms: S_20  and  C_11 
REMARK       I    between atoms: N_13  and  C_16 
REMARK    4  A    between atoms: C_21  and  S_15 
REMARK    5  A    between atoms: C_16  and  C_21 
REMARK    6  A    between atoms: C_23  and  S_20 
ROOT
ATOM      1  S   UNL d   1     -42.495-122.055 -50.624  0.00  0.00    -0.044 SA
ENDROOT
BRANCH   1   2
ATOM      2  C   UNL d   1     -42.505-122.502 -49.921  0.00  0.00     0.182 A 
ATOM      3  N   UNL d   1     -41.833-122.517 -49.428  0.00  0.00    -0.222 NA
ATOM      4  C   UNL d   1     -41.843-122.954 -48.741  0.00  0.00     0.095 A 
ATOM      5  C   UNL d   1     -42.515-123.383 -48.528  0.00  0.00     0.104 A 
ATOM      6  C   UNL d   1     -41.271-123.068 -48.159  0.00  0.00     0.026 A 
ATOM      7  C   UNL d   1     -43.176-123.375 -49.003  0.00  0.00     0.274 A 
ATOM      8  S   UNL d   1     -42.357-123.762 -47.815  0.00  0.00    -0.081 SA
ATOM      9  N   UNL d   1     -43.177-122.932 -49.708  0.00  0.00    -0.251 N 
ATOM     10  O   UNL d   1     -43.848-123.804 -48.790  0.00  0.00    -0.266 OA
ATOM     11  C   UNL d   1     -43.850-122.921 -50.195  0.00  0.00     0.104 C 
ATOM     12  C   UNL d   1     -41.584-123.564 -47.590  0.00  0.00     0.031 A 
ATOM     13  C   UNL d   1     -41.190-123.817 -46.911  0.00  0.00     0.007 C 
ENDBRANCH   1   2
BRANCH   1  14
ATOM     14  C   UNL d   1     -41.879-122.159 -51.165  0.00  0.00     0.101 C 
BRANCH  14  15
ATOM     15  C   UNL d   1     -41.414-121.515 -51.389  0.00  0.00     0.288 C 
ATOM     16  N   UNL d   1     -41.158-121.443 -52.170  0.00  0.00    -0.181 NA
ATOM     17  O   UNL d   1     -41.204-120.944 -50.831  0.00  0.00    -0.265 OA
BRANCH  16  18
ATOM     18  C   UNL d   1     -41.368-122.015 -52.727  0.00  0.00     0.219 A 
ATOM     19  S   UNL d   1     -41.806-121.980 -53.420  0.00  0.00    -0.019 SA
ATOM     20  C   UNL d   1     -41.833-122.731 -53.749  0.00  0.00     0.165 A 
ATOM     21  N   UNL d   1     -41.414-123.225 -53.263  0.00  0.00    -0.133 NA
ATOM     22  N   UNL d   1     -41.123-122.792 -52.628  0.00  0.00    -0.120 NA
BRANCH  20  23
ATOM     23  S   UNL d   1     -42.213-122.954 -54.447  0.00  0.00    -0.059 SA
BRANCH  23  24
ATOM     24  C   UNL d   1     -42.514-122.377 -54.946  0.00  0.00     0.037 C 
ATOM     25  C   UNL d   1     -42.735-122.580 -55.724  0.00  0.00     0.008 C 
ENDBRANCH  23  24
ENDBRANCH  20  23
ENDBRANCH  16  18
ENDBRANCH  14  15
ENDBRANCH   1  14
TORSDOF 6
ENDMDL
