MODEL 1
REMARK VINA RESULT:      33.3      0.000      0.000
REMARK  8 active torsions:
REMARK  status: ('A' for Active; 'I' for Inactive)
REMARK    1  A    between atoms: C_2  and  S_1 
REMARK    2  A    between atoms: N_6  and  S_1 
REMARK    3  A    between atoms: C_3  and  C_14 
REMARK       I    between atoms: N_7  and  C_3 
REMARK    4  A    between atoms: C_17  and  N_6 
REMARK    5  A    between atoms: C_14  and  C_19 
REMARK    6  A    between atoms: C_20  and  C_17 
REMARK    7  A    between atoms: C_19  and  C_21 
REMARK    8  A    between atoms: C_21  and  C_20 
ROOT
ATOM      1  N   UNL d   1     -50.067  26.412  33.362  0.00  0.00    -0.157 NA
ENDROOT
BRANCH   1   2
ATOM      2  S   UNL d   1     -50.593  25.772  33.362  0.00  0.00     0.285 S 
ATOM      3  O   UNL d   1     -49.773  25.645  33.324  0.00  0.00    -0.198 OA
ATOM      4  O   UNL d   1     -50.882  26.546  33.400  0.00  0.00    -0.198 OA
BRANCH   2   5
ATOM      5  C   UNL d   1     -51.119  25.132  33.362  0.00  0.00     0.105 A 
ATOM      6  C   UNL d   1     -50.832  24.358  33.417  0.00  0.00     0.013 A 
ATOM      7  C   UNL d   1     -51.351  23.728  33.417  0.00  0.00     0.001 A 
ATOM      8  C   UNL d   1     -52.153  23.862  33.362  0.00  0.00     0.000 A 
ATOM      9  C   UNL d   1     -52.446  24.629  33.307  0.00  0.00     0.001 A 
ATOM     10  C   UNL d   1     -52.676  23.220  33.363  0.00  0.00     0.000 C 
ATOM     11  C   UNL d   1     -51.928  25.260  33.307  0.00  0.00     0.013 A 
ENDBRANCH   2   5
ENDBRANCH   1   2
BRANCH   1  12
ATOM     12  C   UNL d   1     -49.833  26.756  34.078  0.00  0.00     0.112 C 
BRANCH  12  13
ATOM     13  C   UNL d   1     -49.296  27.386  34.074  0.00  0.00     0.021 C 
BRANCH  13  14
ATOM     14  C   UNL d   1     -48.837  27.543  34.749  0.00  0.00     0.002 C 
BRANCH  14  15
ATOM     15  C   UNL d   1     -48.577  28.308  34.909  0.00  0.00     0.005 C 
BRANCH  15  16
ATOM     16  C   UNL d   1     -47.918  28.440  35.384  0.00  0.00     0.061 C 
BRANCH  16  17
ATOM     17  C   UNL d   1     -47.881  29.109  35.868  0.00  0.00     0.265 C 
ATOM     18  N   UNL d   1     -47.458  29.774  35.622  0.00  0.00    -0.269 N 
ATOM     19  C   UNL d   1     -47.423  30.444  36.113  0.00  0.00     0.102 C 
ATOM     20  C   UNL d   1     -47.072  29.769  34.889  0.00  0.00     0.102 C 
ATOM     21  O   UNL d   1     -48.268  29.110  36.600  0.00  0.00    -0.267 OA
ENDBRANCH  16  17
ENDBRANCH  15  16
ENDBRANCH  14  15
ENDBRANCH  13  14
ENDBRANCH  12  13
ENDBRANCH   1  12
TORSDOF 8
ENDMDL
