MODEL 1
REMARK VINA RESULT:      -0.3      0.000      0.000
REMARK  5 active torsions:
REMARK  status: ('A' for Active; 'I' for Inactive)
REMARK    1  A    between atoms: N_2  and  C_1 
REMARK    2  A    between atoms: C_13  and  N_6 
REMARK    3  A    between atoms: C_12  and  C_7 
REMARK    4  A    between atoms: O_22  and  C_19 
REMARK    5  A    between atoms: C_25  and  O_22 
ROOT
ATOM      1  N   UNL d   1      59.775  -0.471  29.778  0.00  0.00    -0.288 N 
ATOM      2  C   UNL d   1      59.868  -1.194  29.383  0.00  0.00     0.196 A 
ATOM      3  S   UNL d   1      60.665  -1.239  29.158  0.00  0.00    -0.092 SA
ATOM      4  C   UNL d   1      60.501  -0.088  29.790  0.00  0.00     0.268 A 
ATOM      5  C   UNL d   1      61.050  -0.592  29.393  0.00  0.00     0.093 A 
ATOM      6  O   UNL d   1      60.649   0.632  30.122  0.00  0.00    -0.266 OA
ENDROOT
BRANCH   1   7
ATOM      7  C   UNL d   1      59.054  -0.262  30.067  0.00  0.00     0.139 A 
ATOM      8  C   UNL d   1      58.782  -0.505  30.774  0.00  0.00     0.296 A 
ATOM      9  N   UNL d   1      58.038  -0.192  30.891  0.00  0.00    -0.209 N 
ATOM     10  O   UNL d   1      59.203  -1.004  31.303  0.00  0.00    -0.264 OA
ATOM     11  N   UNL d   1      57.856   0.251  30.242  0.00  0.00    -0.238 N 
ATOM     12  C   UNL d   1      58.508   0.203  29.719  0.00  0.00     0.102 A 
ATOM     13  C   UNL d   1      57.169   0.666  30.119  0.00  0.00     0.120 C 
ATOM     14  C   UNL d   1      58.590   0.570  28.962  0.00  0.00     0.022 C 
BRANCH   9  15
ATOM     15  C   UNL d   1      57.500  -0.248  31.501  0.00  0.00     0.085 A 
ATOM     16  C   UNL d   1      57.016  -0.906  31.569  0.00  0.00     0.019 A 
ATOM     17  C   UNL d   1      56.479  -0.959  32.181  0.00  0.00     0.002 A 
ATOM     18  C   UNL d   1      56.410  -0.359  32.739  0.00  0.00     0.000 A 
ATOM     19  C   UNL d   1      56.902   0.297  32.660  0.00  0.00     0.002 A 
ATOM     20  C   UNL d   1      57.437   0.352  32.053  0.00  0.00     0.019 A 
ENDBRANCH   9  15
ENDBRANCH   1   7
BRANCH   2  21
ATOM     21  C   UNL d   1      59.403  -1.836  29.172  0.00  0.00    -0.001 A 
ATOM     22  C   UNL d   1      58.691  -1.790  28.638  0.00  0.00    -0.000 A 
ATOM     23  C   UNL d   1      58.248  -2.528  28.462  0.00  0.00     0.024 A 
ATOM     24  C   UNL d   1      58.530  -3.265  28.820  0.00  0.00     0.100 A 
ATOM     25  C   UNL d   1      59.200  -3.274  29.315  0.00  0.00     0.024 A 
ATOM     26  C   UNL d   1      59.645  -2.586  29.503  0.00  0.00    -0.000 A 
BRANCH  24  27
ATOM     27  O   UNL d   1      58.104  -3.931  28.642  0.00  0.00    -0.305 OA
BRANCH  27  28
ATOM     28  C   UNL d   1      58.546  -4.689  28.457  0.00  0.00     0.123 C 
ATOM     29  C   UNL d   1      58.114  -5.410  28.481  0.00  0.00     0.029 C 
ENDBRANCH  27  28
ENDBRANCH  24  27
ENDBRANCH   2  21
TORSDOF 5
ENDMDL
