MODEL 1
REMARK VINA RESULT:      -6.5      0.000      0.000
REMARK  0 active torsions:
REMARK  status: ('A' for Active; 'I' for Inactive)
ROOT
ATOM      1  C   UNL d   1     -47.119  13.696  23.012  0.00  0.00     0.020 A 
ATOM      2  N   UNL d   1     -46.026  12.858  23.409  0.00  0.00    -0.242 NA
ATOM      3  C   UNL d   1     -47.632  13.060  23.103  0.00  0.00     0.003 A 
ATOM      4  C   UNL d   1     -47.397  14.432  22.771  0.00  0.00     0.013 A 
ATOM      5  C   UNL d   1     -48.439  13.166  22.948  0.00  0.00     0.001 A 
ATOM      6  C   UNL d   1     -48.197  14.533  22.618  0.00  0.00     0.058 A 
ATOM      7  C   UNL d   1     -48.719  13.898  22.707  0.00  0.00     0.011 A 
ATOM      8  C   UNL d   1     -46.310  13.593  23.167  0.00  0.00     0.099 A 
ATOM      9 CL   UNL d   1     -48.478  15.266  22.377  0.00  0.00    -0.082 Cl
ATOM     10  C   UNL d   1     -46.548  12.223  23.498  0.00  0.00     0.099 A 
ATOM     11  C   UNL d   1     -47.357  12.321  23.344  0.00  0.00     0.021 A 
ENDROOT
TORSDOF 0
ENDMDL
MODEL 2
REMARK VINA RESULT:      -6.5      0.946      1.538
REMARK  0 active torsions:
REMARK  status: ('A' for Active; 'I' for Inactive)
ROOT
ATOM      1  C   UNL d   1     -47.841  12.719  23.195  0.00  0.00     0.020 A 
ATOM      2  N   UNL d   1     -47.966  11.342  23.571  0.00  0.00    -0.242 NA
ATOM      3  C   UNL d   1     -47.029  12.674  23.323  0.00  0.00     0.003 A 
ATOM      4  C   UNL d   1     -48.190  13.421  22.945  0.00  0.00     0.013 A 
ATOM      5  C   UNL d   1     -46.562  13.346  23.197  0.00  0.00     0.001 A 
ATOM      6  C   UNL d   1     -47.724  14.085  22.821  0.00  0.00     0.058 A 
ATOM      7  C   UNL d   1     -46.908  14.047  22.948  0.00  0.00     0.011 A 
ATOM      8  C   UNL d   1     -48.311  12.047  23.321  0.00  0.00     0.099 A 
ATOM      9 CL   UNL d   1     -48.070  14.786  22.571  0.00  0.00    -0.082 Cl
ATOM     10  C   UNL d   1     -47.150  11.304  23.698  0.00  0.00     0.099 A 
ATOM     11  C   UNL d   1     -46.675  11.973  23.574  0.00  0.00     0.021 A 
ENDROOT
TORSDOF 0
ENDMDL
MODEL 3
REMARK VINA RESULT:      -6.4      1.384      1.972
REMARK  0 active torsions:
REMARK  status: ('A' for Active; 'I' for Inactive)
ROOT
ATOM      1  C   UNL d   1     -47.360  12.339  23.389  0.00  0.00     0.020 A 
ATOM      2  N   UNL d   1     -45.980  12.721  23.324  0.00  0.00    -0.242 NA
ATOM      3  C   UNL d   1     -47.562  13.020  22.973  0.00  0.00     0.003 A 
ATOM      4  C   UNL d   1     -47.938  11.805  23.632  0.00  0.00     0.013 A 
ATOM      5  C   UNL d   1     -48.359  13.165  22.799  0.00  0.00     0.001 A 
ATOM      6  C   UNL d   1     -48.726  11.953  23.457  0.00  0.00     0.058 A 
ATOM      7  C   UNL d   1     -48.937  12.635  23.040  0.00  0.00     0.011 A 
ATOM      8  C   UNL d   1     -46.563  12.190  23.565  0.00  0.00     0.099 A 
ATOM      9 CL   UNL d   1     -49.305  11.422  23.698  0.00  0.00    -0.082 Cl
ATOM     10  C   UNL d   1     -46.192  13.403  22.906  0.00  0.00     0.099 A 
ATOM     11  C   UNL d   1     -46.987  13.556  22.728  0.00  0.00     0.021 A 
ENDROOT
TORSDOF 0
ENDMDL
MODEL 4
REMARK VINA RESULT:      -6.3      1.397      1.921
REMARK  0 active torsions:
REMARK  status: ('A' for Active; 'I' for Inactive)
ROOT
ATOM      1  C   UNL d   1     -47.506  12.394  23.285  0.00  0.00     0.020 A 
ATOM      2  N   UNL d   1     -48.258  11.244  23.692  0.00  0.00    -0.242 NA
ATOM      3  C   UNL d   1     -48.210  12.802  23.157  0.00  0.00     0.003 A 
ATOM      4  C   UNL d   1     -46.779  12.754  23.148  0.00  0.00     0.013 A 
ATOM      5  C   UNL d   1     -48.180  13.584  22.889  0.00  0.00     0.001 A 
ATOM      6  C   UNL d   1     -46.754  13.530  22.882  0.00  0.00     0.058 A 
ATOM      7  C   UNL d   1     -47.456  13.946  22.752  0.00  0.00     0.011 A 
ATOM      8  C   UNL d   1     -47.532  11.610  23.554  0.00  0.00     0.099 A 
ATOM      9 CL   UNL d   1     -46.030  13.893  22.745  0.00  0.00    -0.082 Cl
ATOM     10  C   UNL d   1     -48.961  11.660  23.562  0.00  0.00     0.099 A 
ATOM     11  C   UNL d   1     -48.940  12.444  23.293  0.00  0.00     0.021 A 
ENDROOT
TORSDOF 0
ENDMDL
MODEL 5
REMARK VINA RESULT:      -6.3      1.652      2.616
REMARK  0 active torsions:
REMARK  status: ('A' for Active; 'I' for Inactive)
ROOT
ATOM      1  C   UNL d   1     -47.947  13.592  22.953  0.00  0.00     0.020 A 
ATOM      2  N   UNL d   1     -49.148  14.332  22.702  0.00  0.00    -0.242 NA
ATOM      3  C   UNL d   1     -47.504  14.263  22.777  0.00  0.00     0.003 A 
ATOM      4  C   UNL d   1     -47.579  12.887  23.165  0.00  0.00     0.013 A 
ATOM      5  C   UNL d   1     -46.678  14.223  22.816  0.00  0.00     0.001 A 
ATOM      6  C   UNL d   1     -46.760  12.851  23.202  0.00  0.00     0.058 A 
ATOM      7  C   UNL d   1     -46.308  13.521  23.027  0.00  0.00     0.011 A 
ATOM      8  C   UNL d   1     -48.775  13.628  22.915  0.00  0.00     0.099 A 
ATOM      9 CL   UNL d   1     -46.390  12.150  23.414  0.00  0.00    -0.082 Cl
ATOM     10  C   UNL d   1     -48.696  15.002  22.527  0.00  0.00     0.099 A 
ATOM     11  C   UNL d   1     -47.869  14.971  22.564  0.00  0.00     0.021 A 
ENDROOT
TORSDOF 0
ENDMDL
MODEL 6
REMARK VINA RESULT:      -6.2      2.437      3.113
REMARK  0 active torsions:
REMARK  status: ('A' for Active; 'I' for Inactive)
ROOT
ATOM      1  C   UNL d   1     -48.805  12.294  22.268  0.00  0.00     0.020 A 
ATOM      2  N   UNL d   1     -49.463  12.962  21.185  0.00  0.00    -0.242 NA
ATOM      3  C   UNL d   1     -49.536  12.154  22.619  0.00  0.00     0.003 A 
ATOM      4  C   UNL d   1     -48.110  12.035  22.625  0.00  0.00     0.013 A 
ATOM      5  C   UNL d   1     -49.568  11.748  23.340  0.00  0.00     0.001 A 
ATOM      6  C   UNL d   1     -48.145  11.633  23.339  0.00  0.00     0.058 A 
ATOM      7  C   UNL d   1     -48.876  11.489  23.698  0.00  0.00     0.011 A 
ATOM      8  C   UNL d   1     -48.770  12.700  21.546  0.00  0.00     0.099 A 
ATOM      9 CL   UNL d   1     -47.453  11.373  23.698  0.00  0.00    -0.082 Cl
ATOM     10  C   UNL d   1     -50.194  12.818  21.543  0.00  0.00     0.099 A 
ATOM     11  C   UNL d   1     -50.235  12.412  22.264  0.00  0.00     0.021 A 
ENDROOT
TORSDOF 0
ENDMDL
MODEL 7
REMARK VINA RESULT:      -6.0      1.129      1.637
REMARK  0 active torsions:
REMARK  status: ('A' for Active; 'I' for Inactive)
ROOT
ATOM      1  C   UNL d   1     -47.545  13.088  22.473  0.00  0.00     0.020 A 
ATOM      2  N   UNL d   1     -46.255  13.134  23.095  0.00  0.00    -0.242 NA
ATOM      3  C   UNL d   1     -47.605  13.905  22.550  0.00  0.00     0.003 A 
ATOM      4  C   UNL d   1     -48.151  12.650  22.128  0.00  0.00     0.013 A 
ATOM      5  C   UNL d   1     -48.286  14.287  22.274  0.00  0.00     0.001 A 
ATOM      6  C   UNL d   1     -48.824  13.033  21.856  0.00  0.00     0.058 A 
ATOM      7  C   UNL d   1     -48.891  13.854  21.929  0.00  0.00     0.011 A 
ATOM      8  C   UNL d   1     -46.865  12.701  22.748  0.00  0.00     0.099 A 
ATOM      9 CL   UNL d   1     -49.430  12.600  21.512  0.00  0.00    -0.082 Cl
ATOM     10  C   UNL d   1     -46.322  13.955  23.168  0.00  0.00     0.099 A 
ATOM     11  C   UNL d   1     -47.000  14.346  22.895  0.00  0.00     0.021 A 
ENDROOT
TORSDOF 0
ENDMDL
MODEL 8
REMARK VINA RESULT:      -5.6      1.502      2.080
REMARK  0 active torsions:
REMARK  status: ('A' for Active; 'I' for Inactive)
ROOT
ATOM      1  C   UNL d   1     -48.693  14.049  22.379  0.00  0.00     0.020 A 
ATOM      2  N   UNL d   1     -47.846  13.016  21.862  0.00  0.00    -0.242 NA
ATOM      3  C   UNL d   1     -49.302  13.785  21.892  0.00  0.00     0.003 A 
ATOM      4  C   UNL d   1     -48.802  14.693  22.880  0.00  0.00     0.013 A 
ATOM      5  C   UNL d   1     -50.032  14.175  21.911  0.00  0.00     0.001 A 
ATOM      6  C   UNL d   1     -49.527  15.077  22.896  0.00  0.00     0.058 A 
ATOM      7  C   UNL d   1     -50.144  14.817  22.410  0.00  0.00     0.011 A 
ATOM      8  C   UNL d   1     -47.960  13.661  22.362  0.00  0.00     0.099 A 
ATOM      9 CL   UNL d   1     -49.640  15.719  23.395  0.00  0.00    -0.082 Cl
ATOM     10  C   UNL d   1     -48.462  12.756  21.376  0.00  0.00     0.099 A 
ATOM     11  C   UNL d   1     -49.196  13.141  21.389  0.00  0.00     0.021 A 
ENDROOT
TORSDOF 0
ENDMDL
MODEL 9
REMARK VINA RESULT:      -5.4      1.213      1.573
REMARK  0 active torsions:
REMARK  status: ('A' for Active; 'I' for Inactive)
ROOT
ATOM      1  C   UNL d   1     -48.342  12.730  22.911  0.00  0.00     0.020 A 
ATOM      2  N   UNL d   1     -47.197  12.023  23.402  0.00  0.00    -0.242 NA
ATOM      3  C   UNL d   1     -48.829  12.135  23.206  0.00  0.00     0.003 A 
ATOM      4  C   UNL d   1     -48.661  13.380  22.519  0.00  0.00     0.013 A 
ATOM      5  C   UNL d   1     -49.649  12.196  23.104  0.00  0.00     0.001 A 
ATOM      6  C   UNL d   1     -49.474  13.437  22.421  0.00  0.00     0.058 A 
ATOM      7  C   UNL d   1     -49.969  12.843  22.714  0.00  0.00     0.011 A 
ATOM      8  C   UNL d   1     -47.521  12.672  23.011  0.00  0.00     0.099 A 
ATOM      9 CL   UNL d   1     -49.795  14.084  22.030  0.00  0.00    -0.082 Cl
ATOM     10  C   UNL d   1     -47.692  11.429  23.696  0.00  0.00     0.099 A 
ATOM     11  C   UNL d   1     -48.514  11.482  23.599  0.00  0.00     0.021 A 
ENDROOT
TORSDOF 0
ENDMDL
