MODEL 1
REMARK VINA RESULT:       0.9      0.000      0.000
REMARK  8 active torsions:
REMARK  status: ('A' for Active; 'I' for Inactive)
REMARK    1  A    between atoms: C_11  and  N_1 
REMARK    2  A    between atoms: S_10  and  C_2 
REMARK    3  A    between atoms: N_8  and  C_9 
REMARK    4  A    between atoms: C_18  and  S_10 
REMARK    5  A    between atoms: C_19  and  C_11 
REMARK    6  A    between atoms: C_13  and  C_18 
REMARK    7  A    between atoms: O_20  and  C_13 
REMARK    8  A    between atoms: C_25  and  O_20 
ROOT
ATOM      1  N   UNL d   1      58.132  -0.568  29.929  0.00  0.00    -0.253 N 
ATOM      2  C   UNL d   1      58.133  -1.384  29.937  0.00  0.00     0.182 A 
ATOM      3  C   UNL d   1      57.727  -0.144  30.523  0.00  0.00     0.268 A 
ATOM      4  C   UNL d   1      57.319  -0.571  31.130  0.00  0.00     0.076 A 
ATOM      5  N   UNL d   1      57.725  -1.810  30.543  0.00  0.00    -0.222 NA
ATOM      6  C   UNL d   1      57.322  -1.400  31.133  0.00  0.00     0.088 A 
ATOM      7  C   UNL d   1      56.914  -0.141  31.722  0.00  0.00     0.024 A 
ATOM      8  C   UNL d   1      56.517  -0.560  32.313  0.00  0.00     0.065 A 
ATOM      9  O   UNL d   1      57.722   0.682  30.520  0.00  0.00    -0.267 OA
ATOM     10  C   UNL d   1      56.922  -1.800  31.729  0.00  0.00     0.021 A 
ATOM     11  C   UNL d   1      56.518  -1.389  32.320  0.00  0.00     0.019 A 
ENDROOT
BRANCH   1  12
ATOM     12  C   UNL d   1      58.528  -0.154  29.339  0.00  0.00     0.085 C 
BRANCH  12  13
ATOM     13  C   UNL d   1      59.295   0.119  29.471  0.00  0.00     0.018 A 
ATOM     14  C   UNL d   1      59.816   0.188  28.844  0.00  0.00     0.002 A 
ATOM     15  C   UNL d   1      60.583   0.463  28.985  0.00  0.00     0.000 A 
ATOM     16  C   UNL d   1      60.814   0.664  29.748  0.00  0.00     0.000 A 
ATOM     17  C   UNL d   1      60.290   0.594  30.375  0.00  0.00     0.000 A 
ATOM     18  C   UNL d   1      59.526   0.320  30.233  0.00  0.00     0.002 A 
ENDBRANCH  12  13
ENDBRANCH   1  12
BRANCH   2  19
ATOM     19  S   UNL d   1      58.530  -1.801  29.354  0.00  0.00    -0.044 SA
BRANCH  19  20
ATOM     20  C   UNL d   1      58.315  -2.573  29.180  0.00  0.00     0.107 C 
BRANCH  20  21
ATOM     21  C   UNL d   1      58.885  -3.126  28.935  0.00  0.00     0.307 C 
ATOM     22  O   UNL d   1      58.657  -3.848  28.621  0.00  0.00    -0.258 OA
BRANCH  21  23
ATOM     23  O   UNL d   1      59.679  -2.943  29.009  0.00  0.00    -0.271 OA
BRANCH  23  24
ATOM     24  C   UNL d   1      60.245  -3.418  28.648  0.00  0.00     0.126 C 
ATOM     25  C   UNL d   1      61.030  -3.413  28.919  0.00  0.00     0.029 C 
ENDBRANCH  23  24
ENDBRANCH  21  23
ENDBRANCH  20  21
ENDBRANCH  19  20
ENDBRANCH   2  19
BRANCH   8  26
ATOM     26  N   UNL d   1      56.116  -0.147  32.901  0.00  0.00    -0.300 N 
ATOM     27  C   UNL d   1      55.363   0.148  32.758  0.00  0.00     0.107 A 
ATOM     28  C   UNL d   1      54.960   0.564  33.351  0.00  0.00     0.142 A 
ATOM     29  O   UNL d   1      55.316   0.680  34.082  0.00  0.00    -0.300 OA
ATOM     30  C   UNL d   1      56.068   0.385  34.226  0.00  0.00     0.142 A 
ATOM     31  C   UNL d   1      56.468  -0.026  33.642  0.00  0.00     0.107 A 
ENDBRANCH   8  26
TORSDOF 8
ENDMDL
MODEL 2
REMARK VINA RESULT:       3.1      1.332      2.751
REMARK  8 active torsions:
REMARK  status: ('A' for Active; 'I' for Inactive)
REMARK    1  A    between atoms: C_11  and  N_1 
REMARK    2  A    between atoms: S_10  and  C_2 
REMARK    3  A    between atoms: N_8  and  C_9 
REMARK    4  A    between atoms: C_18  and  S_10 
REMARK    5  A    between atoms: C_19  and  C_11 
REMARK    6  A    between atoms: C_13  and  C_18 
REMARK    7  A    between atoms: O_20  and  C_13 
REMARK    8  A    between atoms: C_25  and  O_20 
ROOT
ATOM      1  N   UNL d   1      58.167  -0.870  29.823  0.00  0.00    -0.253 N 
ATOM      2  C   UNL d   1      58.658  -0.237  29.980  0.00  0.00     0.182 A 
ATOM      3  C   UNL d   1      57.566  -1.078  30.364  0.00  0.00     0.268 A 
ATOM      4  C   UNL d   1      57.473  -0.625  31.073  0.00  0.00     0.076 A 
ATOM      5  N   UNL d   1      58.564   0.215  30.689  0.00  0.00    -0.222 NA
ATOM      6  C   UNL d   1      57.974   0.017  31.228  0.00  0.00     0.088 A 
ATOM      7  C   UNL d   1      56.868  -0.838  31.611  0.00  0.00     0.024 A 
ATOM      8  C   UNL d   1      56.781  -0.393  32.301  0.00  0.00     0.065 A 
ATOM      9  O   UNL d   1      57.066  -1.718  30.210  0.00  0.00    -0.267 OA
ATOM     10  C   UNL d   1      57.871   0.447  31.920  0.00  0.00     0.021 A 
ATOM     11  C   UNL d   1      57.280   0.250  32.461  0.00  0.00     0.019 A 
ENDROOT
BRANCH   1  12
ATOM     12  C   UNL d   1      58.258  -1.310  29.134  0.00  0.00     0.085 C 
BRANCH  12  13
ATOM     13  C   UNL d   1      58.537  -2.084  29.173  0.00  0.00     0.018 A 
ATOM     14  C   UNL d   1      59.219  -2.250  29.595  0.00  0.00     0.002 A 
ATOM     15  C   UNL d   1      59.493  -3.029  29.630  0.00  0.00     0.000 A 
ATOM     16  C   UNL d   1      59.083  -3.627  29.243  0.00  0.00     0.000 A 
ATOM     17  C   UNL d   1      58.400  -3.459  28.821  0.00  0.00     0.000 A 
ATOM     18  C   UNL d   1      58.127  -2.682  28.787  0.00  0.00     0.002 A 
ENDBRANCH  12  13
ENDBRANCH   1  12
BRANCH   2  19
ATOM     19  S   UNL d   1      59.248  -0.033  29.450  0.00  0.00    -0.044 SA
BRANCH  19  20
ATOM     20  C   UNL d   1      59.728   0.616  29.598  0.00  0.00     0.107 C 
BRANCH  20  21
ATOM     21  C   UNL d   1      60.500   0.649  29.293  0.00  0.00     0.307 C 
ATOM     22  O   UNL d   1      60.629   0.653  28.483  0.00  0.00    -0.258 OA
BRANCH  21  23
ATOM     23  O   UNL d   1      61.133   0.678  29.809  0.00  0.00    -0.271 OA
BRANCH  23  24
ATOM     24  C   UNL d   1      61.121   0.230  30.500  0.00  0.00     0.126 C 
ATOM     25  C   UNL d   1      61.096   0.605  31.241  0.00  0.00     0.029 C 
ENDBRANCH  23  24
ENDBRANCH  21  23
ENDBRANCH  20  21
ENDBRANCH  19  20
ENDBRANCH   2  19
BRANCH   8  26
ATOM     26  N   UNL d   1      56.190  -0.594  32.838  0.00  0.00    -0.300 N 
ATOM     27  C   UNL d   1      55.779  -0.006  33.239  0.00  0.00     0.107 A 
ATOM     28  C   UNL d   1      55.184  -0.209  33.778  0.00  0.00     0.142 A 
ATOM     29  O   UNL d   1      55.006  -1.000  33.912  0.00  0.00    -0.300 OA
ATOM     30  C   UNL d   1      55.415  -1.588  33.512  0.00  0.00     0.142 A 
ATOM     31  C   UNL d   1      56.004  -1.389  32.978  0.00  0.00     0.107 A 
ENDBRANCH   8  26
TORSDOF 8
ENDMDL
