MODEL 1
REMARK VINA RESULT:      -5.4      0.000      0.000
REMARK  3 active torsions:
REMARK  status: ('A' for Active; 'I' for Inactive)
REMARK    1  A    between atoms: N_9  and  C_7 
REMARK       I    between atoms: C_10  and  N_9 
REMARK    2  A    between atoms: C_13  and  C_10 
REMARK    3  A    between atoms: O_23  and  C_18 
ROOT
ATOM      1  C   UNL d   1      58.935  -0.739  29.269  0.00  0.00     0.081 A 
ATOM      2  C   UNL d   1      59.552  -0.791  28.733  0.00  0.00     0.301 A 
ATOM      3  C   UNL d   1      58.550  -1.410  29.547  0.00  0.00     0.090 A 
ATOM      4  O   UNL d   1      59.794  -1.542  28.465  0.00  0.00    -0.273 OA
ATOM      5  N   UNL d   1      57.928  -1.345  30.088  0.00  0.00    -0.226 NA
ATOM      6  C   UNL d   1      58.792  -2.152  29.279  0.00  0.00     0.041 A 
ATOM      7  C   UNL d   1      57.692  -0.591  30.351  0.00  0.00     0.166 A 
ATOM      8  C   UNL d   1      58.695   0.011  29.534  0.00  0.00     0.010 A 
ATOM      9  C   UNL d   1      59.415  -2.222  28.738  0.00  0.00     0.105 A 
ATOM     10  C   UNL d   1      58.074   0.085  30.075  0.00  0.00     0.039 A 
ATOM     11  O   UNL d   1      59.937  -0.112  28.455  0.00  0.00    -0.259 OA
ATOM     12  C   UNL d   1      58.410  -2.832  29.554  0.00  0.00     0.004 A 
ATOM     13  C   UNL d   1      59.083   0.682  29.253  0.00  0.00     0.000 C 
ATOM     14  C   UNL d   1      59.655  -2.955  28.472  0.00  0.00     0.025 A 
ATOM     15  C   UNL d   1      58.656  -3.570  29.284  0.00  0.00     0.000 A 
ATOM     16  C   UNL d   1      59.280  -3.631  28.742  0.00  0.00     0.002 A 
ENDROOT
BRANCH   7  17
ATOM     17  N   UNL d   1      57.064  -0.521  30.897  0.00  0.00    -0.189 NA
ATOM     18  C   UNL d   1      57.227  -0.350  31.686  0.00  0.00     0.281 C 
ATOM     19  O   UNL d   1      58.013  -0.249  31.936  0.00  0.00    -0.265 OA
BRANCH  18  20
ATOM     20  C   UNL d   1      56.617  -0.281  32.222  0.00  0.00     0.058 A 
ATOM     21  C   UNL d   1      56.350   0.473  32.459  0.00  0.00     0.007 A 
ATOM     22  C   UNL d   1      55.731   0.544  33.004  0.00  0.00     0.024 A 
ATOM     23  C   UNL d   1      55.391  -0.153  33.300  0.00  0.00     0.094 A 
ATOM     24  C   UNL d   1      55.653  -0.895  33.068  0.00  0.00     0.024 A 
ATOM     25  C   UNL d   1      56.266  -0.952  32.529  0.00  0.00     0.007 A 
BRANCH  23  26
ATOM     26  O   UNL d   1      54.765  -0.095  33.851  0.00  0.00    -0.328 OA
ATOM     27  C   UNL d   1      54.670   0.576  34.325  0.00  0.00     0.181 C 
ENDBRANCH  23  26
ENDBRANCH  18  20
ENDBRANCH   7  17
TORSDOF 3
ENDMDL
