MODEL 1
REMARK VINA RESULT:      -6.2      0.000      0.000
REMARK  3 active torsions:
REMARK  status: ('A' for Active; 'I' for Inactive)
REMARK    1  A    between atoms: C_6  and  C_2 
REMARK    2  A    between atoms: C_8  and  C_3 
REMARK    3  A    between atoms: C_7  and  C_6 
ROOT
ATOM      1  N   UNL d   1     -47.731  13.428  23.221  0.00  0.00    -0.238 NA
ATOM      2  C   UNL d   1     -46.911  13.384  23.282  0.00  0.00     0.113 A 
ATOM      3  C   UNL d   1     -47.941  14.091  22.737  0.00  0.00     0.088 A 
ATOM      4  S   UNL d   1     -46.606  14.014  22.841  0.00  0.00    -0.066 SA
ATOM      5  C   UNL d   1     -47.203  14.445  22.510  0.00  0.00     0.056 A 
ENDROOT
BRANCH   3   6
ATOM      6  C   UNL d   1     -48.713  14.288  22.568  0.00  0.00     0.018 A 
ATOM      7  C   UNL d   1     -49.097  14.894  22.946  0.00  0.00     0.002 A 
ATOM      8  C   UNL d   1     -49.869  15.090  22.777  0.00  0.00     0.011 A 
ATOM      9  C   UNL d   1     -50.280  14.648  22.191  0.00  0.00     0.058 A 
ATOM     10  C   UNL d   1     -49.902  14.032  21.801  0.00  0.00     0.011 A 
ATOM     11 CL   UNL d   1     -51.064  14.824  21.998  0.00  0.00    -0.082 Cl
ATOM     12  C   UNL d   1     -49.116  13.842  21.983  0.00  0.00     0.002 A 
ENDBRANCH   3   6
BRANCH   2  13
ATOM     13  C   UNL d   1     -46.466  12.828  23.698  0.00  0.00     0.058 C 
BRANCH  13  14
ATOM     14  C   UNL d   1     -46.361  12.074  23.397  0.00  0.00     0.159 C 
ATOM     15  S   UNL d   1     -46.745  11.361  23.696  0.00  0.00    -0.055 SA
ATOM     16  N   UNL d   1     -45.877  12.038  22.803  0.00  0.00    -0.136 N 
ENDBRANCH  13  14
ENDBRANCH   2  13
TORSDOF 3
ENDMDL
MODEL 2
REMARK VINA RESULT:      -5.9      1.131      1.695
REMARK  3 active torsions:
REMARK  status: ('A' for Active; 'I' for Inactive)
REMARK    1  A    between atoms: C_6  and  C_2 
REMARK    2  A    between atoms: C_8  and  C_3 
REMARK    3  A    between atoms: C_7  and  C_6 
ROOT
ATOM      1  N   UNL d   1     -47.834  12.893  23.019  0.00  0.00    -0.238 NA
ATOM      2  C   UNL d   1     -47.358  12.397  23.471  0.00  0.00     0.113 A 
ATOM      3  C   UNL d   1     -48.612  12.560  22.963  0.00  0.00     0.088 A 
ATOM      4  S   UNL d   1     -47.829  11.756  23.698  0.00  0.00    -0.066 SA
ATOM      5  C   UNL d   1     -48.578  11.836  23.405  0.00  0.00     0.056 A 
ENDROOT
BRANCH   3   6
ATOM      6  C   UNL d   1     -49.217  12.918  22.551  0.00  0.00     0.018 A 
ATOM      7  C   UNL d   1     -49.477  12.640  21.836  0.00  0.00     0.002 A 
ATOM      8  C   UNL d   1     -50.082  12.997  21.425  0.00  0.00     0.011 A 
ATOM      9  C   UNL d   1     -50.447  13.679  21.755  0.00  0.00     0.058 A 
ATOM     10  C   UNL d   1     -50.192  13.972  22.479  0.00  0.00     0.011 A 
ATOM     11 CL   UNL d   1     -51.064  14.064  21.361  0.00  0.00    -0.082 Cl
ATOM     12  C   UNL d   1     -49.576  13.598  22.887  0.00  0.00     0.002 A 
ENDBRANCH   3   6
BRANCH   2  13
ATOM     13  C   UNL d   1     -46.564  12.503  23.667  0.00  0.00     0.058 C 
BRANCH  13  14
ATOM     14  C   UNL d   1     -45.989  12.491  23.085  0.00  0.00     0.159 C 
ATOM     15  S   UNL d   1     -45.741  13.172  22.616  0.00  0.00    -0.055 SA
ATOM     16  N   UNL d   1     -45.666  11.804  22.976  0.00  0.00    -0.136 N 
ENDBRANCH  13  14
ENDBRANCH   2  13
TORSDOF 3
ENDMDL
MODEL 3
REMARK VINA RESULT:      -5.0      8.177      8.936
REMARK  3 active torsions:
REMARK  status: ('A' for Active; 'I' for Inactive)
REMARK    1  A    between atoms: C_6  and  C_2 
REMARK    2  A    between atoms: C_8  and  C_3 
REMARK    3  A    between atoms: C_7  and  C_6 
ROOT
ATOM      1  N   UNL d   1     -39.522  14.740  20.216  0.00  0.00    -0.238 NA
ATOM      2  C   UNL d   1     -39.571  14.556  21.017  0.00  0.00     0.113 A 
ATOM      3  C   UNL d   1     -40.302  14.757  19.884  0.00  0.00     0.088 A 
ATOM      4  S   UNL d   1     -40.374  14.459  21.190  0.00  0.00    -0.066 SA
ATOM      5  C   UNL d   1     -40.824  14.574  20.528  0.00  0.00     0.056 A 
ENDROOT
BRANCH   3   6
ATOM      6  C   UNL d   1     -40.444  14.922  19.099  0.00  0.00     0.018 A 
ATOM      7  C   UNL d   1     -40.471  14.342  18.533  0.00  0.00     0.002 A 
ATOM      8  C   UNL d   1     -40.614  14.508  17.749  0.00  0.00     0.011 A 
ATOM      9  C   UNL d   1     -40.736  15.308  17.520  0.00  0.00     0.058 A 
ATOM     10  C   UNL d   1     -40.711  15.905  18.084  0.00  0.00     0.011 A 
ATOM     11 CL   UNL d   1     -40.883  15.507  16.731  0.00  0.00    -0.082 Cl
ATOM     12  C   UNL d   1     -40.565  15.723  18.879  0.00  0.00     0.002 A 
ENDBRANCH   3   6
BRANCH   2  13
ATOM     13  C   UNL d   1     -38.951  14.481  21.555  0.00  0.00     0.058 C 
BRANCH  13  14
ATOM     14  C   UNL d   1     -38.625  13.747  21.710  0.00  0.00     0.159 C 
ATOM     15  S   UNL d   1     -37.950  13.403  21.295  0.00  0.00    -0.055 SA
ATOM     16  N   UNL d   1     -38.973  13.362  22.276  0.00  0.00    -0.136 N 
ENDBRANCH  13  14
ENDBRANCH   2  13
TORSDOF 3
ENDMDL
MODEL 4
REMARK VINA RESULT:      -4.7      9.037     10.126
REMARK  3 active torsions:
REMARK  status: ('A' for Active; 'I' for Inactive)
REMARK    1  A    between atoms: C_6  and  C_2 
REMARK    2  A    between atoms: C_8  and  C_3 
REMARK    3  A    between atoms: C_7  and  C_6 
ROOT
ATOM      1  N   UNL d   1     -39.635  15.160  18.796  0.00  0.00    -0.238 NA
ATOM      2  C   UNL d   1     -40.270  15.480  19.211  0.00  0.00     0.113 A 
ATOM      3  C   UNL d   1     -39.924  14.761  18.106  0.00  0.00     0.088 A 
ATOM      4  S   UNL d   1     -40.953  15.287  18.786  0.00  0.00    -0.066 SA
ATOM      5  C   UNL d   1     -40.767  14.859  18.127  0.00  0.00     0.056 A 
ENDROOT
BRANCH   3   6
ATOM      6  C   UNL d   1     -39.433  14.384  17.577  0.00  0.00     0.018 A 
ATOM      7  C   UNL d   1     -39.187  13.619  17.685  0.00  0.00     0.002 A 
ATOM      8  C   UNL d   1     -38.697  13.242  17.156  0.00  0.00     0.011 A 
ATOM      9  C   UNL d   1     -38.438  13.661  16.474  0.00  0.00     0.058 A 
ATOM     10  C   UNL d   1     -38.680  14.437  16.353  0.00  0.00     0.011 A 
ATOM     11 CL   UNL d   1     -37.940  13.305  15.919  0.00  0.00    -0.082 Cl
ATOM     12  C   UNL d   1     -39.179  14.809  16.899  0.00  0.00     0.002 A 
ENDBRANCH   3   6
BRANCH   2  13
ATOM     13  C   UNL d   1     -40.246  15.913  19.913  0.00  0.00     0.058 C 
BRANCH  13  14
ATOM     14  C   UNL d   1     -40.414  15.551  20.627  0.00  0.00     0.159 C 
ATOM     15  S   UNL d   1     -39.838  15.147  21.129  0.00  0.00    -0.055 SA
ATOM     16  N   UNL d   1     -41.151  15.593  20.835  0.00  0.00    -0.136 N 
ENDBRANCH  13  14
ENDBRANCH   2  13
TORSDOF 3
ENDMDL
