MODEL 1
REMARK VINA RESULT:      -4.3      0.000      0.000
REMARK  2 active torsions:
REMARK  status: ('A' for Active; 'I' for Inactive)
REMARK       I    between atoms: N_2  and  C_1 
REMARK    1  A    between atoms: C_4  and  C_1 
REMARK    2  A    between atoms: C_7  and  N_3 
ROOT
ATOM      1  C   UNL d   1     -41.412-121.487 -52.513  0.00  0.00     0.265 C 
ATOM      2  N   UNL d   1     -41.548-121.819 -51.772  0.00  0.00    -0.269 N 
ATOM      3  N   UNL d   1     -41.819-122.482 -50.283  0.00  0.00    -0.301 N 
ATOM      4  C   UNL d   1     -41.404-121.371 -51.090  0.00  0.00     0.102 A 
ATOM      5  C   UNL d   1     -41.826-122.595 -51.715  0.00  0.00     0.102 A 
ATOM      6  C   UNL d   1     -41.961-122.923 -50.974  0.00  0.00     0.100 A 
ATOM      7  C   UNL d   1     -41.541-121.707 -50.349  0.00  0.00     0.100 A 
ATOM      8  O   UNL d   1     -41.134-120.711 -52.576  0.00  0.00    -0.267 OA
ENDROOT
BRANCH   1   9
ATOM      9  C   UNL d   1     -41.556-121.935 -53.196  0.00  0.00     0.059 A 
ATOM     10  C   UNL d   1     -42.131-121.683 -53.732  0.00  0.00     0.031 A 
ATOM     11  C   UNL d   1     -42.285-122.126 -54.424  0.00  0.00     0.119 A 
ATOM     12  O   UNL d   1     -42.813-122.021 -55.053  0.00  0.00    -0.300 OA
ATOM     13  C   UNL d   1     -41.852-122.830 -54.572  0.00  0.00     0.119 A 
ATOM     14  C   UNL d   1     -42.711-122.653 -55.587  0.00  0.00     0.304 A 
ATOM     15  O   UNL d   1     -42.115-123.156 -55.290  0.00  0.00    -0.300 OA
ATOM     16  C   UNL d   1     -41.271-123.080 -54.024  0.00  0.00     0.026 A 
ATOM     17  C   UNL d   1     -41.123-122.639 -53.343  0.00  0.00     0.007 A 
ENDBRANCH   1   9
BRANCH   3  18
ATOM     18  C   UNL d   1     -41.956-122.817 -49.542  0.00  0.00     0.064 A 
ATOM     19  C   UNL d   1     -41.327-123.138 -49.120  0.00  0.00     0.018 A 
ATOM     20  C   UNL d   1     -41.469-123.470 -48.384  0.00  0.00     0.013 A 
ATOM     21  C   UNL d   1     -42.233-123.482 -48.072  0.00  0.00     0.058 A 
ATOM     22  C   UNL d   1     -42.858-123.156 -48.506  0.00  0.00     0.013 A 
ATOM     23 CL   UNL d   1     -42.370-123.817 -47.331  0.00  0.00    -0.082 Cl
ATOM     24  C   UNL d   1     -42.715-122.827 -49.237  0.00  0.00     0.018 A 
ENDBRANCH   3  18
TORSDOF 2
ENDMDL
