MODEL 1
REMARK VINA RESULT:      54.2      0.000      0.000
REMARK  3 active torsions:
REMARK  status: ('A' for Active; 'I' for Inactive)
REMARK    1  A    between atoms: C_3  and  C_1 
REMARK       I    between atoms: N_4  and  C_1 
REMARK    2  A    between atoms: N_2  and  C_7 
REMARK    3  A    between atoms: C_16  and  N_4 
ROOT
ATOM      1  C   UNL d   1     -51.699  25.387  33.427  0.00  0.00     0.064 A 
ATOM      2  C   UNL d   1     -51.848  26.193  33.306  0.00  0.00     0.019 A 
ATOM      3  C   UNL d   1     -50.916  25.140  33.565  0.00  0.00     0.019 A 
ATOM      4  C   UNL d   1     -50.459  26.492  33.461  0.00  0.00     0.085 A 
ATOM      5  C   UNL d   1     -51.232  26.743  33.323  0.00  0.00     0.021 A 
ATOM      6  C   UNL d   1     -50.299  25.690  33.582  0.00  0.00     0.021 A 
ENDROOT
BRANCH   4   7
ATOM      7  N   UNL d   1     -49.844  27.041  33.478  0.00  0.00    -0.208 NA
ATOM      8  C   UNL d   1     -49.602  27.366  34.187  0.00  0.00     0.285 C 
ATOM      9  O   UNL d   1     -48.985  27.916  34.204  0.00  0.00    -0.265 OA
BRANCH   8  10
ATOM     10  C   UNL d   1     -49.975  27.144  34.886  0.00  0.00     0.087 A 
ATOM     11  S   UNL d   1     -50.614  26.655  35.042  0.00  0.00    -0.082 SA
ATOM     12  C   UNL d   1     -50.741  26.638  35.847  0.00  0.00     0.036 A 
ATOM     13  C   UNL d   1     -50.175  27.123  36.209  0.00  0.00     0.008 A 
ATOM     14  C   UNL d   1     -49.703  27.434  35.609  0.00  0.00     0.012 A 
ENDBRANCH   8  10
ENDBRANCH   4   7
BRANCH   1  15
ATOM     15  N   UNL d   1     -52.315  24.837  33.409  0.00  0.00    -0.301 N 
ATOM     16  C   UNL d   1     -52.155  24.041  33.323  0.00  0.00     0.100 A 
ATOM     17  C   UNL d   1     -52.770  23.492  33.306  0.00  0.00     0.100 A 
ATOM     18  N   UNL d   1     -53.546  23.739  33.375  0.00  0.00    -0.299 N 
ATOM     19  C   UNL d   1     -53.711  24.541  33.463  0.00  0.00     0.100 A 
ATOM     20  C   UNL d   1     -54.161  23.190  33.358  0.00  0.00     0.100 C 
ATOM     21  C   UNL d   1     -53.095  25.090  33.480  0.00  0.00     0.100 A 
ENDBRANCH   1  15
TORSDOF 3
ENDMDL
