MODEL 1
REMARK VINA RESULT:      -7.0      0.000      0.000
REMARK  4 active torsions:
REMARK  status: ('A' for Active; 'I' for Inactive)
REMARK    1  A    between atoms: C_8  and  C_1 
REMARK    2  A    between atoms: N_5  and  C_2 
REMARK       I    between atoms: C_7  and  N_5 
REMARK    3  A    between atoms: C_10  and  C_7 
REMARK    4  A    between atoms: O_17  and  C_16 
ROOT
ATOM      1  N   UNL d   1     -47.101  14.043  22.953  0.00  0.00    -0.165 NA
ATOM      2  C   UNL d   1     -46.908  13.447  22.429  0.00  0.00     0.282 C 
ATOM      3  O   UNL d   1     -47.407  13.268  21.793  0.00  0.00    -0.265 OA
ENDROOT
BRANCH   1   4
ATOM      4  C   UNL d   1     -47.797  14.474  22.855  0.00  0.00     0.297 A 
ATOM      5  O   UNL d   1     -48.497  14.352  23.275  0.00  0.00    -0.253 OA
ATOM      6  C   UNL d   1     -49.053  14.903  23.005  0.00  0.00     0.212 A 
ATOM      7  N   UNL d   1     -48.693  15.356  22.424  0.00  0.00    -0.119 NA
ATOM      8  N   UNL d   1     -47.919  15.092  22.332  0.00  0.00    -0.101 NA
BRANCH   6   9
ATOM      9  C   UNL d   1     -49.833  14.975  23.278  0.00  0.00     0.072 A 
ATOM     10  S   UNL d   1     -50.349  14.356  23.436  0.00  0.00    -0.083 SA
ATOM     11  C   UNL d   1     -51.062  14.679  23.695  0.00  0.00     0.035 A 
ATOM     12  C   UNL d   1     -50.984  15.504  23.698  0.00  0.00     0.008 A 
ATOM     13  C   UNL d   1     -50.220  15.686  23.439  0.00  0.00     0.011 A 
ENDBRANCH   6   9
ENDBRANCH   1   4
BRANCH   2  14
ATOM     14  C   UNL d   1     -46.208  13.015  22.529  0.00  0.00     0.060 A 
ATOM     15  C   UNL d   1     -46.183  12.376  23.052  0.00  0.00     0.029 A 
ATOM     16  C   UNL d   1     -45.490  11.952  23.147  0.00  0.00     0.094 A 
ATOM     17  C   UNL d   1     -44.817  12.162  22.721  0.00  0.00     0.024 A 
ATOM     18  C   UNL d   1     -44.838  12.801  22.196  0.00  0.00     0.002 A 
ATOM     19  C   UNL d   1     -45.536  13.224  22.104  0.00  0.00     0.005 A 
BRANCH  16  20
ATOM     20  O   UNL d   1     -45.456  11.298  23.680  0.00  0.00    -0.328 OA
ATOM     21  C   UNL d   1     -44.984  10.653  23.510  0.00  0.00     0.181 C 
ENDBRANCH  16  20
ENDBRANCH   2  14
TORSDOF 4
ENDMDL
MODEL 2
REMARK VINA RESULT:      -6.7      2.431      5.288
REMARK  4 active torsions:
REMARK  status: ('A' for Active; 'I' for Inactive)
REMARK    1  A    between atoms: C_8  and  C_1 
REMARK    2  A    between atoms: N_5  and  C_2 
REMARK       I    between atoms: C_7  and  N_5 
REMARK    3  A    between atoms: C_10  and  C_7 
REMARK    4  A    between atoms: O_17  and  C_16 
ROOT
ATOM      1  N   UNL d   1     -47.776  12.102  23.682  0.00  0.00    -0.165 NA
ATOM      2  C   UNL d   1     -48.290  11.984  23.060  0.00  0.00     0.282 C 
ATOM      3  O   UNL d   1     -48.004  11.771  22.312  0.00  0.00    -0.265 OA
ENDROOT
BRANCH   1   4
ATOM      4  C   UNL d   1     -46.963  12.011  23.574  0.00  0.00     0.297 A 
ATOM      5  O   UNL d   1     -46.549  11.301  23.645  0.00  0.00    -0.253 OA
ATOM      6  C   UNL d   1     -45.750  11.457  23.492  0.00  0.00     0.212 A 
ATOM      7  N   UNL d   1     -45.680  12.258  23.330  0.00  0.00    -0.119 NA
ATOM      8  N   UNL d   1     -46.428  12.599  23.381  0.00  0.00    -0.101 NA
BRANCH   6   9
ATOM      9  C   UNL d   1     -45.139  10.897  23.504  0.00  0.00     0.072 A 
ATOM     10  S   UNL d   1     -44.350  11.039  23.326  0.00  0.00    -0.083 SA
ATOM     11  C   UNL d   1     -43.939  10.330  23.408  0.00  0.00     0.035 A 
ATOM     12  C   UNL d   1     -44.479   9.745  23.639  0.00  0.00     0.008 A 
ATOM     13  C   UNL d   1     -45.224  10.100  23.698  0.00  0.00     0.011 A 
ENDBRANCH   6   9
ENDBRANCH   1   4
BRANCH   2  14
ATOM     14  C   UNL d   1     -49.106  12.075  23.169  0.00  0.00     0.060 A 
ATOM     15  C   UNL d   1     -49.497  12.736  22.864  0.00  0.00     0.029 A 
ATOM     16  C   UNL d   1     -50.304  12.822  22.975  0.00  0.00     0.094 A 
ATOM     17  C   UNL d   1     -50.725  12.250  23.391  0.00  0.00     0.024 A 
ATOM     18  C   UNL d   1     -50.337  11.586  23.698  0.00  0.00     0.002 A 
ATOM     19  C   UNL d   1     -49.528  11.504  23.584  0.00  0.00     0.005 A 
BRANCH  16  20
ATOM     20  O   UNL d   1     -50.710  13.494  22.666  0.00  0.00    -0.328 OA
ATOM     21  C   UNL d   1     -50.844  14.147  23.139  0.00  0.00     0.181 C 
ENDBRANCH  16  20
ENDBRANCH   2  14
TORSDOF 4
ENDMDL
MODEL 3
REMARK VINA RESULT:      -6.1      1.031      1.407
REMARK  4 active torsions:
REMARK  status: ('A' for Active; 'I' for Inactive)
REMARK    1  A    between atoms: C_8  and  C_1 
REMARK    2  A    between atoms: N_5  and  C_2 
REMARK       I    between atoms: C_7  and  N_5 
REMARK    3  A    between atoms: C_10  and  C_7 
REMARK    4  A    between atoms: O_17  and  C_16 
ROOT
ATOM      1  N   UNL d   1     -47.212  12.967  22.754  0.00  0.00    -0.165 NA
ATOM      2  C   UNL d   1     -46.542  12.957  23.221  0.00  0.00     0.282 C 
ATOM      3  O   UNL d   1     -46.318  13.630  23.648  0.00  0.00    -0.265 OA
ENDROOT
BRANCH   1   4
ATOM      4  C   UNL d   1     -47.674  13.648  22.702  0.00  0.00     0.297 A 
ATOM      5  O   UNL d   1     -48.497  13.670  22.751  0.00  0.00    -0.253 OA
ATOM      6  C   UNL d   1     -48.734  14.460  22.672  0.00  0.00     0.212 A 
ATOM      7  N   UNL d   1     -48.059  14.914  22.576  0.00  0.00    -0.119 NA
ATOM      8  N   UNL d   1     -47.405  14.413  22.594  0.00  0.00    -0.101 NA
BRANCH   6   9
ATOM      9  C   UNL d   1     -49.517  14.733  22.689  0.00  0.00     0.072 A 
ATOM     10  S   UNL d   1     -49.775  15.442  23.011  0.00  0.00    -0.083 SA
ATOM     11  C   UNL d   1     -50.591  15.487  22.907  0.00  0.00     0.035 A 
ATOM     12  C   UNL d   1     -50.839  14.799  22.516  0.00  0.00     0.008 A 
ATOM     13  C   UNL d   1     -50.170  14.332  22.381  0.00  0.00     0.011 A 
ENDBRANCH   6   9
ENDBRANCH   1   4
BRANCH   2  14
ATOM     14  C   UNL d   1     -46.079  12.272  23.272  0.00  0.00     0.060 A 
ATOM     15  C   UNL d   1     -45.316  12.259  22.954  0.00  0.00     0.029 A 
ATOM     16  C   UNL d   1     -44.862  11.580  23.008  0.00  0.00     0.094 A 
ATOM     17  C   UNL d   1     -45.166  10.911  23.377  0.00  0.00     0.024 A 
ATOM     18  C   UNL d   1     -45.930  10.920  23.697  0.00  0.00     0.002 A 
ATOM     19  C   UNL d   1     -46.381  11.603  23.641  0.00  0.00     0.005 A 
BRANCH  16  20
ATOM     20  O   UNL d   1     -44.082  11.559  22.686  0.00  0.00    -0.328 OA
ATOM     21  C   UNL d   1     -43.525  11.046  22.991  0.00  0.00     0.181 C 
ENDBRANCH  16  20
ENDBRANCH   2  14
TORSDOF 4
ENDMDL
MODEL 4
REMARK VINA RESULT:      -6.1      1.952      4.984
REMARK  4 active torsions:
REMARK  status: ('A' for Active; 'I' for Inactive)
REMARK    1  A    between atoms: C_8  and  C_1 
REMARK    2  A    between atoms: N_5  and  C_2 
REMARK       I    between atoms: C_7  and  N_5 
REMARK    3  A    between atoms: C_10  and  C_7 
REMARK    4  A    between atoms: O_17  and  C_16 
ROOT
ATOM      1  N   UNL d   1     -46.587  13.395  23.096  0.00  0.00    -0.165 NA
ATOM      2  C   UNL d   1     -47.209  13.412  22.568  0.00  0.00     0.282 C 
ATOM      3  O   UNL d   1     -47.189  12.953  21.879  0.00  0.00    -0.265 OA
ENDROOT
BRANCH   1   4
ATOM      4  C   UNL d   1     -45.929  12.920  22.950  0.00  0.00     0.297 A 
ATOM      5  O   UNL d   1     -45.774  12.196  23.314  0.00  0.00    -0.253 OA
ATOM      6  C   UNL d   1     -45.061  11.906  23.009  0.00  0.00     0.212 A 
ATOM      7  N   UNL d   1     -44.785  12.451  22.462  0.00  0.00    -0.119 NA
ATOM      8  N   UNL d   1     -45.321  13.076  22.426  0.00  0.00    -0.101 NA
BRANCH   6   9
ATOM      9  C   UNL d   1     -44.699  11.191  23.223  0.00  0.00     0.072 A 
ATOM     10  S   UNL d   1     -43.908  11.000  23.118  0.00  0.00    -0.083 SA
ATOM     11  C   UNL d   1     -43.789  10.238  23.410  0.00  0.00     0.035 A 
ATOM     12  C   UNL d   1     -44.515   9.957  23.698  0.00  0.00     0.008 A 
ATOM     13  C   UNL d   1     -45.078  10.552  23.581  0.00  0.00     0.011 A 
ENDBRANCH   6   9
ENDBRANCH   1   4
BRANCH   2  14
ATOM     14  C   UNL d   1     -47.869  13.891  22.716  0.00  0.00     0.060 A 
ATOM     15  C   UNL d   1     -48.577  13.556  22.979  0.00  0.00     0.029 A 
ATOM     16  C   UNL d   1     -49.226  14.033  23.124  0.00  0.00     0.094 A 
ATOM     17  C   UNL d   1     -49.174  14.845  23.007  0.00  0.00     0.024 A 
ATOM     18  C   UNL d   1     -48.467  15.185  22.742  0.00  0.00     0.002 A 
ATOM     19  C   UNL d   1     -47.818  14.703  22.598  0.00  0.00     0.005 A 
BRANCH  16  20
ATOM     20  O   UNL d   1     -49.953  13.698  23.394  0.00  0.00    -0.328 OA
ATOM     21  C   UNL d   1     -50.545  14.181  23.683  0.00  0.00     0.181 C 
ENDBRANCH  16  20
ENDBRANCH   2  14
TORSDOF 4
ENDMDL
MODEL 5
REMARK VINA RESULT:      -6.1      1.976      5.003
REMARK  4 active torsions:
REMARK  status: ('A' for Active; 'I' for Inactive)
REMARK    1  A    between atoms: C_8  and  C_1 
REMARK    2  A    between atoms: N_5  and  C_2 
REMARK       I    between atoms: C_7  and  N_5 
REMARK    3  A    between atoms: C_10  and  C_7 
REMARK    4  A    between atoms: O_17  and  C_16 
ROOT
ATOM      1  N   UNL d   1     -46.914  13.771  23.023  0.00  0.00    -0.165 NA
ATOM      2  C   UNL d   1     -47.587  13.657  22.576  0.00  0.00     0.282 C 
ATOM      3  O   UNL d   1     -47.623  13.045  22.018  0.00  0.00    -0.265 OA
ENDROOT
BRANCH   1   4
ATOM      4  C   UNL d   1     -46.260  13.279  22.925  0.00  0.00     0.297 A 
ATOM      5  O   UNL d   1     -45.629  13.420  22.413  0.00  0.00    -0.253 OA
ATOM      6  C   UNL d   1     -45.095  12.791  22.487  0.00  0.00     0.212 A 
ATOM      7  N   UNL d   1     -45.401  12.270  23.041  0.00  0.00    -0.119 NA
ATOM      8  N   UNL d   1     -46.119  12.571  23.312  0.00  0.00    -0.101 NA
BRANCH   6   9
ATOM      9  C   UNL d   1     -44.383  12.711  22.071  0.00  0.00     0.072 A 
ATOM     10  S   UNL d   1     -43.807  12.141  22.203  0.00  0.00    -0.083 SA
ATOM     11  C   UNL d   1     -43.195  12.267  21.666  0.00  0.00     0.035 A 
ATOM     12  C   UNL d   1     -43.396  12.921  21.196  0.00  0.00     0.008 A 
ATOM     13  C   UNL d   1     -44.134  13.194  21.450  0.00  0.00     0.011 A 
ENDBRANCH   6   9
ENDBRANCH   1   4
BRANCH   2  14
ATOM     14  C   UNL d   1     -48.243  14.152  22.676  0.00  0.00     0.060 A 
ATOM     15  C   UNL d   1     -48.953  13.851  22.972  0.00  0.00     0.029 A 
ATOM     16  C   UNL d   1     -49.599  14.344  23.069  0.00  0.00     0.094 A 
ATOM     17  C   UNL d   1     -49.541  15.140  22.871  0.00  0.00     0.024 A 
ATOM     18  C   UNL d   1     -48.831  15.447  22.573  0.00  0.00     0.002 A 
ATOM     19  C   UNL d   1     -48.186  14.948  22.478  0.00  0.00     0.005 A 
BRANCH  16  20
ATOM     20  O   UNL d   1     -50.327  14.044  23.371  0.00  0.00    -0.328 OA
ATOM     21  C   UNL d   1     -51.036  14.383  23.149  0.00  0.00     0.181 C 
ENDBRANCH  16  20
ENDBRANCH   2  14
TORSDOF 4
ENDMDL
MODEL 6
REMARK VINA RESULT:      -5.9      8.349      9.326
REMARK  4 active torsions:
REMARK  status: ('A' for Active; 'I' for Inactive)
REMARK    1  A    between atoms: C_8  and  C_1 
REMARK    2  A    between atoms: N_5  and  C_2 
REMARK       I    between atoms: C_7  and  N_5 
REMARK    3  A    between atoms: C_10  and  C_7 
REMARK    4  A    between atoms: O_17  and  C_16 
ROOT
ATOM      1  N   UNL d   1     -40.214  15.130  19.388  0.00  0.00    -0.165 NA
ATOM      2  C   UNL d   1     -40.411  14.681  18.735  0.00  0.00     0.282 C 
ATOM      3  O   UNL d   1     -40.551  13.868  18.809  0.00  0.00    -0.265 OA
ENDROOT
BRANCH   1   4
ATOM      4  C   UNL d   1     -40.152  14.779  20.131  0.00  0.00     0.297 A 
ATOM      5  O   UNL d   1     -39.447  14.649  20.540  0.00  0.00    -0.253 OA
ATOM      6  C   UNL d   1     -39.635  14.285  21.260  0.00  0.00     0.212 A 
ATOM      7  N   UNL d   1     -40.449  14.195  21.288  0.00  0.00    -0.119 NA
ATOM      8  N   UNL d   1     -40.768  14.500  20.592  0.00  0.00    -0.101 NA
BRANCH   6   9
ATOM      9  C   UNL d   1     -39.089  14.057  21.842  0.00  0.00     0.072 A 
ATOM     10  S   UNL d   1     -38.856  14.505  22.488  0.00  0.00    -0.083 SA
ATOM     11  C   UNL d   1     -38.309  14.065  22.919  0.00  0.00     0.035 A 
ATOM     12  C   UNL d   1     -38.203  13.338  22.534  0.00  0.00     0.008 A 
ATOM     13  C   UNL d   1     -38.689  13.336  21.865  0.00  0.00     0.011 A 
ENDBRANCH   6   9
ENDBRANCH   1   4
BRANCH   2  14
ATOM     14  C   UNL d   1     -40.473  15.036  17.989  0.00  0.00     0.060 A 
ATOM     15  C   UNL d   1     -41.205  15.300  17.711  0.00  0.00     0.029 A 
ATOM     16  C   UNL d   1     -41.262  15.649  16.973  0.00  0.00     0.094 A 
ATOM     17  C   UNL d   1     -40.589  15.737  16.507  0.00  0.00     0.024 A 
ATOM     18  C   UNL d   1     -39.854  15.473  16.781  0.00  0.00     0.002 A 
ATOM     19  C   UNL d   1     -39.802  15.123  17.522  0.00  0.00     0.005 A 
BRANCH  16  20
ATOM     20  O   UNL d   1     -42.006  15.922  16.683  0.00  0.00    -0.328 OA
ATOM     21  C   UNL d   1     -42.160  15.920  15.881  0.00  0.00     0.181 C 
ENDBRANCH  16  20
ENDBRANCH   2  14
TORSDOF 4
ENDMDL
MODEL 7
REMARK VINA RESULT:      -5.2      7.958      9.895
REMARK  4 active torsions:
REMARK  status: ('A' for Active; 'I' for Inactive)
REMARK    1  A    between atoms: C_8  and  C_1 
REMARK    2  A    between atoms: N_5  and  C_2 
REMARK       I    between atoms: C_7  and  N_5 
REMARK    3  A    between atoms: C_10  and  C_7 
REMARK    4  A    between atoms: O_17  and  C_16 
ROOT
ATOM      1  N   UNL d   1     -40.227  14.278  18.693  0.00  0.00    -0.165 NA
ATOM      2  C   UNL d   1     -40.141  14.811  19.305  0.00  0.00     0.282 C 
ATOM      3  O   UNL d   1     -39.905  15.590  19.155  0.00  0.00    -0.265 OA
ENDROOT
BRANCH   1   4
ATOM      4  C   UNL d   1     -40.080  14.510  17.915  0.00  0.00     0.297 A 
ATOM      5  O   UNL d   1     -39.350  14.462  17.533  0.00  0.00    -0.253 OA
ATOM      6  C   UNL d   1     -39.447  14.751  16.763  0.00  0.00     0.212 A 
ATOM      7  N   UNL d   1     -40.232  14.973  16.678  0.00  0.00    -0.119 NA
ATOM      8  N   UNL d   1     -40.622  14.824  17.389  0.00  0.00    -0.101 NA
BRANCH   6   9
ATOM      9  C   UNL d   1     -38.852  14.803  16.189  0.00  0.00     0.072 A 
ATOM     10  S   UNL d   1     -38.507  15.494  15.911  0.00  0.00    -0.083 SA
ATOM     11  C   UNL d   1     -37.943  15.288  15.346  0.00  0.00     0.035 A 
ATOM     12  C   UNL d   1     -37.941  14.462  15.274  0.00  0.00     0.008 A 
ATOM     13  C   UNL d   1     -38.507  14.163  15.799  0.00  0.00     0.011 A 
ENDBRANCH   6   9
ENDBRANCH   1   4
BRANCH   2  14
ATOM     14  C   UNL d   1     -40.290  14.577  20.086  0.00  0.00     0.060 A 
ATOM     15  C   UNL d   1     -39.670  14.326  20.572  0.00  0.00     0.029 A 
ATOM     16  C   UNL d   1     -39.822  14.096  21.342  0.00  0.00     0.094 A 
ATOM     17  C   UNL d   1     -40.591  14.114  21.633  0.00  0.00     0.024 A 
ATOM     18  C   UNL d   1     -41.215  14.364  21.150  0.00  0.00     0.002 A 
ATOM     19  C   UNL d   1     -41.058  14.594  20.377  0.00  0.00     0.005 A 
BRANCH  16  20
ATOM     20  O   UNL d   1     -39.194  13.839  21.845  0.00  0.00    -0.328 OA
ATOM     21  C   UNL d   1     -39.012  14.256  22.523  0.00  0.00     0.181 C 
ENDBRANCH  16  20
ENDBRANCH   2  14
TORSDOF 4
ENDMDL
