MODEL 1
REMARK VINA RESULT:      17.7      0.000      0.000
REMARK  1 active torsions:
REMARK  status: ('A' for Active; 'I' for Inactive)
REMARK    1  A    between atoms: C_5  and  N_1 
ROOT
ATOM      1  N   UNL d   1      59.008  49.703  50.689  0.00  0.00    -0.226 N 
ATOM      2  C   UNL d   1      59.065  49.704  51.510  0.00  0.00     0.359 A 
ATOM      3  C   UNL d   1      59.695  49.704  50.226  0.00  0.00     0.273 A 
ATOM      4  N   UNL d   1      59.806  49.705  51.876  0.00  0.00    -0.153 NA
ATOM      5  C   UNL d   1      60.494  49.706  51.413  0.00  0.00     0.288 A 
ATOM      6  C   UNL d   1      60.438  49.706  50.586  0.00  0.00     0.124 A 
ATOM      7  O   UNL d   1      58.389  49.702  51.975  0.00  0.00    -0.244 OA
ATOM      8  O   UNL d   1      59.644  49.704  49.406  0.00  0.00    -0.266 OA
ATOM      9  O   UNL d   1      61.234  49.707  51.769  0.00  0.00    -0.265 OA
ENDROOT
BRANCH   1  10
ATOM     10  C   UNL d   1      58.271  49.702  50.331  0.00  0.00     0.072 A 
ATOM     11  C   UNL d   1      57.581  49.705  50.805  0.00  0.00     0.029 A 
ATOM     12  C   UNL d   1      56.845  49.704  50.447  0.00  0.00     0.059 A 
ATOM     13 CL   UNL d   1      56.168  49.707  50.921  0.00  0.00    -0.082 Cl
ATOM     14  C   UNL d   1      56.777  49.700  49.629  0.00  0.00     0.011 A 
ATOM     15  C   UNL d   1      57.462  49.696  49.163  0.00  0.00     0.002 A 
ATOM     16  C   UNL d   1      56.036  49.698  49.267  0.00  0.00     0.001 C 
ATOM     17  C   UNL d   1      58.212  49.698  49.521  0.00  0.00     0.018 A 
ENDBRANCH   1  10
TORSDOF 1
ENDMDL
MODEL 2
REMARK VINA RESULT:      18.8      0.464      1.232
REMARK  1 active torsions:
REMARK  status: ('A' for Active; 'I' for Inactive)
REMARK    1  A    between atoms: C_5  and  N_1 
ROOT
ATOM      1  N   UNL d   1      59.219  49.699  50.852  0.00  0.00    -0.226 N 
ATOM      2  C   UNL d   1      59.922  49.696  50.425  0.00  0.00     0.359 A 
ATOM      3  C   UNL d   1      59.237  49.703  51.681  0.00  0.00     0.273 A 
ATOM      4  N   UNL d   1      60.648  49.696  50.821  0.00  0.00    -0.153 NA
ATOM      5  C   UNL d   1      60.666  49.700  51.650  0.00  0.00     0.288 A 
ATOM      6  C   UNL d   1      59.958  49.704  52.080  0.00  0.00     0.124 A 
ATOM      7  O   UNL d   1      59.913  49.692  49.604  0.00  0.00    -0.244 OA
ATOM      8  O   UNL d   1      58.537  49.707  52.111  0.00  0.00    -0.266 OA
ATOM      9  O   UNL d   1      61.384  49.700  52.049  0.00  0.00    -0.265 OA
ENDROOT
BRANCH   1  10
ATOM     10  C   UNL d   1      58.501  49.699  50.456  0.00  0.00     0.072 A 
ATOM     11  C   UNL d   1      57.788  49.695  50.895  0.00  0.00     0.029 A 
ATOM     12  C   UNL d   1      57.070  49.694  50.500  0.00  0.00     0.059 A 
ATOM     13 CL   UNL d   1      56.371  49.690  50.939  0.00  0.00    -0.082 Cl
ATOM     14  C   UNL d   1      57.045  49.698  49.680  0.00  0.00     0.011 A 
ATOM     15  C   UNL d   1      57.752  49.703  49.249  0.00  0.00     0.002 A 
ATOM     16  C   UNL d   1      56.323  49.698  49.280  0.00  0.00     0.001 C 
ATOM     17  C   UNL d   1      58.483  49.703  49.644  0.00  0.00     0.018 A 
ENDBRANCH   1  10
TORSDOF 1
ENDMDL
MODEL 3
REMARK VINA RESULT:      20.6      1.654      3.552
REMARK  1 active torsions:
REMARK  status: ('A' for Active; 'I' for Inactive)
REMARK    1  A    between atoms: C_5  and  N_1 
ROOT
ATOM      1  N   UNL d   1      58.183  49.661  50.319  0.00  0.00    -0.226 N 
ATOM      2  C   UNL d   1      58.182  49.682  49.496  0.00  0.00     0.359 A 
ATOM      3  C   UNL d   1      57.465  49.641  50.734  0.00  0.00     0.273 A 
ATOM      4  N   UNL d   1      57.467  49.682  49.081  0.00  0.00    -0.153 NA
ATOM      5  C   UNL d   1      56.749  49.662  49.496  0.00  0.00     0.288 A 
ATOM      6  C   UNL d   1      56.749  49.641  50.324  0.00  0.00     0.124 A 
ATOM      7  O   UNL d   1      58.888  49.702  49.079  0.00  0.00    -0.244 OA
ATOM      8  O   UNL d   1      57.461  49.621  51.555  0.00  0.00    -0.266 OA
ATOM      9  O   UNL d   1      56.035  49.662  49.090  0.00  0.00    -0.265 OA
ENDROOT
BRANCH   1  10
ATOM     10  C   UNL d   1      58.893  49.661  50.727  0.00  0.00     0.072 A 
ATOM     11  C   UNL d   1      59.613  49.615  50.302  0.00  0.00     0.029 A 
ATOM     12  C   UNL d   1      60.324  49.615  50.710  0.00  0.00     0.059 A 
ATOM     13 CL   UNL d   1      61.030  49.570  50.285  0.00  0.00    -0.082 Cl
ATOM     14  C   UNL d   1      60.336  49.659  51.529  0.00  0.00     0.011 A 
ATOM     15  C   UNL d   1      59.621  49.703  51.946  0.00  0.00     0.002 A 
ATOM     16  C   UNL d   1      61.050  49.658  51.941  0.00  0.00     0.001 C 
ATOM     17  C   UNL d   1      58.897  49.704  51.538  0.00  0.00     0.018 A 
ENDBRANCH   1  10
TORSDOF 1
ENDMDL
