MODEL 1
REMARK VINA RESULT:     128.4      0.000      0.000
REMARK  7 active torsions:
REMARK  status: ('A' for Active; 'I' for Inactive)
REMARK    1  A    between atoms: N_2  and  C_1 
REMARK       I    between atoms: C_6  and  N_2 
REMARK    2  A    between atoms: S_3  and  C_12 
REMARK    3  A    between atoms: C_28  and  N_4 
REMARK    4  A    between atoms: C_8  and  C_6 
REMARK    5  A    between atoms: C_15  and  C_11 
REMARK    6  A    between atoms: C_32  and  C_28 
REMARK    7  A    between atoms: O_31  and  C_32 
ROOT
ATOM      1  N   UNL d   1      60.550  46.857  50.953  0.00  0.00    -0.184 NA
ATOM      2  C   UNL d   1      60.602  46.318  50.334  0.00  0.00     0.281 C 
ATOM      3  O   UNL d   1      60.089  46.380  49.692  0.00  0.00    -0.265 OA
ENDROOT
BRANCH   1   4
ATOM      4  C   UNL d   1      59.982  47.456  50.925  0.00  0.00     0.182 A 
ATOM      5  N   UNL d   1      60.132  48.258  50.995  0.00  0.00    -0.283 N 
ATOM      6  C   UNL d   1      59.416  48.665  50.936  0.00  0.00     0.072 A 
ATOM      7  C   UNL d   1      59.229  49.467  50.966  0.00  0.00     0.019 A 
ATOM      8  C   UNL d   1      58.819  48.105  50.830  0.00  0.00     0.049 A 
ATOM      9  C   UNL d   1      58.446  49.708  50.889  0.00  0.00     0.015 A 
ATOM     10  C   UNL d   1      57.849  49.148  50.783  0.00  0.00     0.107 A 
ATOM     11  C   UNL d   1      58.036  48.348  50.753  0.00  0.00     0.021 A 
ATOM     12  S   UNL d   1      59.171  47.357  50.823  0.00  0.00    -0.048 SA
BRANCH   5  13
ATOM     13  C   UNL d   1      60.872  48.610  51.104  0.00  0.00     0.108 C 
BRANCH  13  14
ATOM     14  C   UNL d   1      60.933  49.416  51.257  0.00  0.00     0.135 C 
BRANCH  14  15
ATOM     15  O   UNL d   1      60.954  49.691  52.031  0.00  0.00    -0.325 OA
ATOM     16  C   UNL d   1      61.659  49.676  52.465  0.00  0.00     0.182 C 
ENDBRANCH  14  15
ENDBRANCH  13  14
ENDBRANCH   5  13
BRANCH  10  17
ATOM     17  S   UNL d   1      57.055  49.397  50.705  0.00  0.00     0.302 S 
ATOM     18  O   UNL d   1      56.954  49.213  51.500  0.00  0.00    -0.197 OA
ATOM     19  O   UNL d   1      57.160  49.580  49.903  0.00  0.00    -0.197 OA
ATOM     20  N   UNL d   1      56.268  49.635  50.656  0.00  0.00    -0.043 N 
ENDBRANCH  10  17
ENDBRANCH   1   4
BRANCH   2  21
ATOM     21  C   UNL d   1      61.167  45.717  50.355  0.00  0.00     0.061 A 
ATOM     22  C   UNL d   1      61.077  45.068  50.876  0.00  0.00     0.025 A 
ATOM     23  C   UNL d   1      61.642  44.466  50.897  0.00  0.00     0.087 A 
ATOM     24  N   UNL d   1      62.306  44.508  50.395  0.00  0.00    -0.245 NA
ATOM     25  C   UNL d   1      62.395  45.149  49.881  0.00  0.00     0.082 A 
ATOM     26  C   UNL d   1      61.830  45.750  49.860  0.00  0.00     0.022 A 
ATOM     27  C   UNL d   1      63.058  45.189  49.382  0.00  0.00     0.019 A 
ATOM     28  C   UNL d   1      61.916  46.396  49.345  0.00  0.00     0.002 A 
ATOM     29  C   UNL d   1      62.589  46.428  48.844  0.00  0.00     0.000 A 
ATOM     30  C   UNL d   1      63.154  45.827  48.865  0.00  0.00     0.002 A 
BRANCH  23  31
ATOM     31  C   UNL d   1      61.553  43.829  51.409  0.00  0.00     0.047 A 
ATOM     32  S   UNL d   1      62.059  43.180  51.354  0.00  0.00    -0.085 SA
ATOM     33  C   UNL d   1      61.847  42.626  51.928  0.00  0.00     0.035 A 
ATOM     34  C   UNL d   1      61.203  42.945  52.336  0.00  0.00     0.007 A 
ATOM     35  C   UNL d   1      61.018  43.683  52.021  0.00  0.00     0.009 A 
ENDBRANCH  23  31
ENDBRANCH   2  21
TORSDOF 7
ENDMDL
