MODEL 1
REMARK VINA RESULT:      41.8      0.000      0.000
REMARK  4 active torsions:
REMARK  status: ('A' for Active; 'I' for Inactive)
REMARK    1  A    between atoms: N_7  and  S_1 
REMARK    2  A    between atoms: C_11  and  S_1 
REMARK    3  A    between atoms: C_14  and  N_7 
REMARK    4  A    between atoms: C_13  and  C_14 
ROOT
ATOM      1  N   UNL d   1      15.669  15.758  -0.554  0.00  0.00    -0.304 N 
ATOM      2  C   UNL d   1      15.183  16.322  -0.920  0.00  0.00     0.064 A 
ATOM      3  C   UNL d   1      15.442  15.011  -0.831  0.00  0.00     0.064 A 
ATOM      4  C   UNL d   1      14.822  15.115  -1.364  0.00  0.00     0.018 A 
ATOM      5  C   UNL d   1      14.665  15.920  -1.417  0.00  0.00     0.019 A 
ATOM      6  C   UNL d   1      15.724  14.255  -0.662  0.00  0.00     0.018 A 
ATOM      7  C   UNL d   1      14.479  14.456  -1.734  0.00  0.00     0.003 A 
ATOM      8  C   UNL d   1      14.762  13.701  -1.565  0.00  0.00     0.020 A 
ATOM      9  C   UNL d   1      15.385  13.601  -1.028  0.00  0.00     0.003 A 
ATOM     10  C   UNL d   1      16.265  15.911  -0.014  0.00  0.00     0.099 C 
ATOM     11  C   UNL d   1      15.222  17.138  -0.801  0.00  0.00     0.019 C 
ENDROOT
BRANCH   8  12
ATOM     12  C   UNL d   1      14.416  13.047  -1.937  0.00  0.00     0.112 C 
BRANCH  12  13
ATOM     13  N   UNL d   1      13.716  13.144  -2.372  0.00  0.00    -0.157 NA
BRANCH  13  14
ATOM     14  S   UNL d   1      13.389  12.506  -2.777  0.00  0.00     0.285 S 
ATOM     15  O   UNL d   1      13.048  11.783  -2.980  0.00  0.00    -0.198 OA
ATOM     16  O   UNL d   1      13.378  12.280  -1.978  0.00  0.00    -0.198 OA
BRANCH  14  17
ATOM     17  C   UNL d   1      13.310  12.531  -3.598  0.00  0.00     0.105 A 
ATOM     18  C   UNL d   1      13.329  11.834  -4.023  0.00  0.00     0.013 A 
ATOM     19  C   UNL d   1      13.250  11.857  -4.847  0.00  0.00     0.001 A 
ATOM     20  C   UNL d   1      13.152  12.585  -5.232  0.00  0.00     0.000 A 
ATOM     21  C   UNL d   1      13.134  13.281  -4.792  0.00  0.00     0.001 A 
ATOM     22  C   UNL d   1      13.213  13.257  -3.977  0.00  0.00     0.013 A 
ENDBRANCH  14  17
ENDBRANCH  13  14
ENDBRANCH  12  13
ENDBRANCH   8  12
TORSDOF 4
ENDMDL
MODEL 2
REMARK VINA RESULT:      41.9      1.153      1.772
REMARK  4 active torsions:
REMARK  status: ('A' for Active; 'I' for Inactive)
REMARK    1  A    between atoms: N_7  and  S_1 
REMARK    2  A    between atoms: C_11  and  S_1 
REMARK    3  A    between atoms: C_14  and  N_7 
REMARK    4  A    between atoms: C_13  and  C_14 
ROOT
ATOM      1  N   UNL d   1      15.671  13.631  -0.627  0.00  0.00    -0.304 N 
ATOM      2  C   UNL d   1      15.531  14.417  -0.852  0.00  0.00     0.064 A 
ATOM      3  C   UNL d   1      15.233  13.141  -1.132  0.00  0.00     0.064 A 
ATOM      4  C   UNL d   1      14.826  13.623  -1.664  0.00  0.00     0.018 A 
ATOM      5  C   UNL d   1      15.011  14.405  -1.490  0.00  0.00     0.019 A 
ATOM      6  C   UNL d   1      15.156  12.322  -1.170  0.00  0.00     0.018 A 
ATOM      7  C   UNL d   1      14.337  13.282  -2.241  0.00  0.00     0.003 A 
ATOM      8  C   UNL d   1      14.261  12.463  -2.278  0.00  0.00     0.020 A 
ATOM      9  C   UNL d   1      14.671  11.982  -1.742  0.00  0.00     0.003 A 
ATOM     10  C   UNL d   1      16.155  13.382  -0.016  0.00  0.00     0.099 C 
ATOM     11  C   UNL d   1      15.860  15.083  -0.494  0.00  0.00     0.019 C 
ENDROOT
BRANCH   8  12
ATOM     12  C   UNL d   1      13.772  12.128  -2.856  0.00  0.00     0.112 C 
BRANCH  12  13
ATOM     13  N   UNL d   1      13.120  12.557  -3.141  0.00  0.00    -0.157 NA
BRANCH  13  14
ATOM     14  S   UNL d   1      12.961  12.577  -3.949  0.00  0.00     0.285 S 
ATOM     15  O   UNL d   1      12.774  12.382  -4.728  0.00  0.00    -0.198 OA
ATOM     16  O   UNL d   1      12.877  11.780  -3.735  0.00  0.00    -0.198 OA
BRANCH  14  17
ATOM     17  C   UNL d   1      12.993  13.292  -4.361  0.00  0.00     0.105 A 
ATOM     18  C   UNL d   1      13.138  13.285  -5.165  0.00  0.00     0.013 A 
ATOM     19  C   UNL d   1      13.170  14.000  -5.579  0.00  0.00     0.001 A 
ATOM     20  C   UNL d   1      13.055  14.716  -5.177  0.00  0.00     0.000 A 
ATOM     21  C   UNL d   1      12.909  14.710  -4.366  0.00  0.00     0.001 A 
ATOM     22  C   UNL d   1      12.878  14.001  -3.957  0.00  0.00     0.013 A 
ENDBRANCH  14  17
ENDBRANCH  13  14
ENDBRANCH  12  13
ENDBRANCH   8  12
TORSDOF 4
ENDMDL
MODEL 3
REMARK VINA RESULT:      42.5      2.202      3.525
REMARK  4 active torsions:
REMARK  status: ('A' for Active; 'I' for Inactive)
REMARK    1  A    between atoms: N_7  and  S_1 
REMARK    2  A    between atoms: C_11  and  S_1 
REMARK    3  A    between atoms: C_14  and  N_7 
REMARK    4  A    between atoms: C_13  and  C_14 
ROOT
ATOM      1  N   UNL d   1      13.869  15.543  -4.635  0.00  0.00    -0.304 N 
ATOM      2  C   UNL d   1      14.619  15.663  -4.303  0.00  0.00     0.064 A 
ATOM      3  C   UNL d   1      13.595  14.803  -4.381  0.00  0.00     0.064 A 
ATOM      4  C   UNL d   1      14.174  14.471  -3.897  0.00  0.00     0.018 A 
ATOM      5  C   UNL d   1      14.801  15.000  -3.850  0.00  0.00     0.019 A 
ATOM      6  C   UNL d   1      12.894  14.397  -4.533  0.00  0.00     0.018 A 
ATOM      7  C   UNL d   1      14.051  13.723  -3.559  0.00  0.00     0.003 A 
ATOM      8  C   UNL d   1      13.351  13.317  -3.711  0.00  0.00     0.020 A 
ATOM      9  C   UNL d   1      12.771  13.655  -4.198  0.00  0.00     0.003 A 
ATOM     10  C   UNL d   1      13.469  16.062  -5.125  0.00  0.00     0.099 C 
ATOM     11  C   UNL d   1      15.091  16.331  -4.414  0.00  0.00     0.019 C 
ENDROOT
BRANCH   8  12
ATOM     12  C   UNL d   1      13.233  12.571  -3.372  0.00  0.00     0.112 C 
BRANCH  12  13
ATOM     13  N   UNL d   1      13.762  12.294  -2.795  0.00  0.00    -0.157 NA
BRANCH  13  14
ATOM     14  S   UNL d   1      13.483  12.060  -2.056  0.00  0.00     0.285 S 
ATOM     15  O   UNL d   1      13.023  11.780  -1.432  0.00  0.00    -0.198 OA
ATOM     16  O   UNL d   1      12.851  11.923  -2.577  0.00  0.00    -0.198 OA
BRANCH  14  17
ATOM     17  C   UNL d   1      13.969  12.118  -1.391  0.00  0.00     0.105 A 
ATOM     18  C   UNL d   1      13.652  12.381  -0.687  0.00  0.00     0.013 A 
ATOM     19  C   UNL d   1      14.137  12.440  -0.019  0.00  0.00     0.001 A 
ATOM     20  C   UNL d   1      14.937  12.231  -0.070  0.00  0.00     0.000 A 
ATOM     21  C   UNL d   1      15.245  11.967  -0.787  0.00  0.00     0.001 A 
ATOM     22  C   UNL d   1      14.764  11.909  -1.448  0.00  0.00     0.013 A 
ENDBRANCH  14  17
ENDBRANCH  13  14
ENDBRANCH  12  13
ENDBRANCH   8  12
TORSDOF 4
ENDMDL
