MODEL 1
REMARK VINA RESULT:      34.6      0.000      0.000
REMARK  2 active torsions:
REMARK  status: ('A' for Active; 'I' for Inactive)
REMARK    1  A    between atoms: N_5  and  C_1 
REMARK       I    between atoms: C_4  and  N_5 
REMARK    2  A    between atoms: C_7  and  C_4 
ROOT
ATOM      1  C   UNL d   1     -55.806 -99.192 -44.792  0.00  0.00     0.060 A 
ATOM      2  C   UNL d   1     -57.235 -98.990 -44.714  0.00  0.00     0.123 A 
ATOM      3  C   UNL d   1     -56.548 -99.105 -45.154  0.00  0.00     0.032 A 
ATOM      4  C   UNL d   1     -57.192 -98.957 -43.883  0.00  0.00     0.123 A 
ATOM      5  O   UNL d   1     -57.961 -98.906 -45.076  0.00  0.00    -0.301 OA
ATOM      6  O   UNL d   1     -57.861 -98.844 -43.436  0.00  0.00    -0.301 OA
ATOM      7  C   UNL d   1     -55.762 -99.160 -43.970  0.00  0.00     0.007 A 
ATOM      8  C   UNL d   1     -56.462 -99.041 -43.514  0.00  0.00     0.027 A 
ATOM      9  C   UNL d   1     -58.656 -98.789 -44.648  0.00  0.00     0.149 A 
ATOM     10  C   UNL d   1     -58.616 -98.756 -43.814  0.00  0.00     0.149 A 
ENDROOT
BRANCH   1  11
ATOM     11  C   UNL d   1     -55.133 -99.306 -45.239  0.00  0.00     0.281 C 
ATOM     12  N   UNL d   1     -54.714-100.013 -45.123  0.00  0.00    -0.187 NA
ATOM     13  O   UNL d   1     -54.803 -98.755 -45.835  0.00  0.00    -0.265 OA
BRANCH  12  14
ATOM     14  C   UNL d   1     -54.996-100.577 -44.555  0.00  0.00     0.194 A 
ATOM     15  N   UNL d   1     -55.589-101.142 -44.672  0.00  0.00    -0.107 NA
ATOM     16  O   UNL d   1     -55.683-101.572 -43.973  0.00  0.00    -0.210 OA
ATOM     17  C   UNL d   1     -55.143-101.275 -43.409  0.00  0.00     0.128 A 
ATOM     18  C   UNL d   1     -54.721-100.656 -43.783  0.00  0.00     0.068 A 
ATOM     19  C   UNL d   1     -55.053-101.547 -42.639  0.00  0.00     0.029 C 
ENDBRANCH  12  14
ENDBRANCH   1  11
TORSDOF 2
ENDMDL
MODEL 2
REMARK VINA RESULT:      36.6      1.071      1.537
REMARK  2 active torsions:
REMARK  status: ('A' for Active; 'I' for Inactive)
REMARK    1  A    between atoms: N_5  and  C_1 
REMARK       I    between atoms: C_4  and  N_5 
REMARK    2  A    between atoms: C_7  and  C_4 
ROOT
ATOM      1  C   UNL d   1     -55.801 -99.139 -43.768  0.00  0.00     0.060 A 
ATOM      2  C   UNL d   1     -57.223 -99.071 -44.019  0.00  0.00     0.123 A 
ATOM      3  C   UNL d   1     -56.588 -99.196 -43.509  0.00  0.00     0.032 A 
ATOM      4  C   UNL d   1     -57.079 -98.882 -44.817  0.00  0.00     0.123 A 
ATOM      5  O   UNL d   1     -57.993 -99.128 -43.758  0.00  0.00    -0.301 OA
ATOM      6  O   UNL d   1     -57.695 -98.756 -45.332  0.00  0.00    -0.301 OA
ATOM      7  C   UNL d   1     -55.658 -98.952 -44.557  0.00  0.00     0.007 A 
ATOM      8  C   UNL d   1     -56.304 -98.823 -45.085  0.00  0.00     0.027 A 
ATOM      9  C   UNL d   1     -58.638 -99.005 -44.257  0.00  0.00     0.149 A 
ATOM     10  C   UNL d   1     -58.498 -98.816 -45.059  0.00  0.00     0.149 A 
ENDROOT
BRANCH   1  11
ATOM     11  C   UNL d   1     -55.180 -99.266 -43.252  0.00  0.00     0.281 C 
ATOM     12  N   UNL d   1     -54.718 -99.944 -43.373  0.00  0.00    -0.187 NA
ATOM     13  O   UNL d   1     -54.950 -98.756 -42.579  0.00  0.00    -0.265 OA
BRANCH  12  14
ATOM     14  C   UNL d   1     -54.904-100.469 -44.014  0.00  0.00     0.194 A 
ATOM     15  N   UNL d   1     -54.950-100.272 -44.816  0.00  0.00    -0.107 NA
ATOM     16  O   UNL d   1     -55.146-100.953 -45.242  0.00  0.00    -0.210 OA
ATOM     17  C   UNL d   1     -55.225-101.585 -44.701  0.00  0.00     0.128 A 
ATOM     18  C   UNL d   1     -55.072-101.271 -43.940  0.00  0.00     0.068 A 
ATOM     19  C   UNL d   1     -55.417-102.361 -44.892  0.00  0.00     0.029 C 
ENDBRANCH  12  14
ENDBRANCH   1  11
TORSDOF 2
ENDMDL
MODEL 3
REMARK VINA RESULT:      36.8      0.976      3.041
REMARK  2 active torsions:
REMARK  status: ('A' for Active; 'I' for Inactive)
REMARK    1  A    between atoms: N_5  and  C_1 
REMARK       I    between atoms: C_4  and  N_5 
REMARK    2  A    between atoms: C_7  and  C_4 
ROOT
ATOM      1  C   UNL d   1     -55.146 -99.681 -44.841  0.00  0.00     0.060 A 
ATOM      2  C   UNL d   1     -55.145-101.077 -44.463  0.00  0.00     0.123 A 
ATOM      3  C   UNL d   1     -55.283-100.482 -45.015  0.00  0.00     0.032 A 
ATOM      4  C   UNL d   1     -54.861-100.877 -43.706  0.00  0.00     0.123 A 
ATOM      5  O   UNL d   1     -55.282-101.860 -44.640  0.00  0.00    -0.301 OA
ATOM      6  O   UNL d   1     -54.720-101.453 -43.150  0.00  0.00    -0.301 OA
ATOM      7  C   UNL d   1     -54.864 -99.483 -44.093  0.00  0.00     0.007 A 
ATOM      8  C   UNL d   1     -54.721-100.088 -43.522  0.00  0.00     0.027 A 
ATOM      9  C   UNL d   1     -55.149-102.466 -44.097  0.00  0.00     0.149 A 
ATOM     10  C   UNL d   1     -54.863-102.270 -43.336  0.00  0.00     0.149 A 
ENDROOT
BRANCH   1  11
ATOM     11  C   UNL d   1     -55.286 -99.101 -45.399  0.00  0.00     0.281 C 
ATOM     12  N   UNL d   1     -56.040 -98.755 -45.405  0.00  0.00    -0.187 NA
ATOM     13  O   UNL d   1     -54.719 -98.803 -45.995  0.00  0.00    -0.265 OA
BRANCH  12  14
ATOM     14  C   UNL d   1     -56.623 -99.012 -44.845  0.00  0.00     0.194 A 
ATOM     15  N   UNL d   1     -56.511 -99.549 -44.226  0.00  0.00    -0.107 NA
ATOM     16  O   UNL d   1     -57.226 -99.636 -43.821  0.00  0.00    -0.210 OA
ATOM     17  C   UNL d   1     -57.795 -99.148 -44.190  0.00  0.00     0.128 A 
ATOM     18  C   UNL d   1     -57.408 -98.765 -44.826  0.00  0.00     0.068 A 
ATOM     19  C   UNL d   1     -58.581 -99.068 -43.962  0.00  0.00     0.029 C 
ENDBRANCH  12  14
ENDBRANCH   1  11
TORSDOF 2
ENDMDL
