MODEL 1
REMARK VINA RESULT:      -8.3      0.000      0.000
REMARK  2 active torsions:
REMARK  status: ('A' for Active; 'I' for Inactive)
REMARK    1  A    between atoms: C_5  and  N_1 
REMARK    2  A    between atoms: C_7  and  C_5 
ROOT
ATOM      1  N   UNL d   1     -48.612  12.906  21.951  0.00  0.00    -0.288 N 
ATOM      2  C   UNL d   1     -49.056  13.069  21.280  0.00  0.00     0.183 A 
ATOM      3  N   UNL d   1     -49.841  12.780  21.420  0.00  0.00    -0.224 NA
ATOM      4  C   UNL d   1     -49.074  12.535  22.496  0.00  0.00     0.083 A 
ATOM      5  C   UNL d   1     -49.855  12.455  22.159  0.00  0.00     0.099 A 
ATOM      6  C   UNL d   1     -48.921  12.249  23.254  0.00  0.00     0.019 A 
ATOM      7  C   UNL d   1     -50.438  12.081  22.628  0.00  0.00     0.021 A 
ATOM      8  C   UNL d   1     -49.522  11.886  23.687  0.00  0.00     0.002 A 
ATOM      9  C   UNL d   1     -50.276  11.809  23.362  0.00  0.00     0.002 A 
ENDROOT
BRANCH   1  10
ATOM     10  C   UNL d   1     -48.116  12.783  22.564  0.00  0.00     0.066 C 
ATOM     11  C   UNL d   1     -48.284  12.217  23.140  0.00  0.00     0.019 C 
BRANCH  10  12
ATOM     12  C   UNL d   1     -47.427  13.232  22.616  0.00  0.00     0.016 A 
ATOM     13  C   UNL d   1     -46.698  12.891  22.435  0.00  0.00     0.001 A 
ATOM     14  C   UNL d   1     -46.007  13.341  22.486  0.00  0.00     0.000 A 
ATOM     15  C   UNL d   1     -46.045  14.136  22.720  0.00  0.00     0.000 A 
ATOM     16  C   UNL d   1     -46.774  14.477  22.901  0.00  0.00     0.000 A 
ATOM     17  C   UNL d   1     -47.465  14.023  22.849  0.00  0.00     0.001 A 
ENDBRANCH  10  12
ENDBRANCH   1  10
TORSDOF 2
ENDMDL
MODEL 2
REMARK VINA RESULT:      -8.2      1.010      3.390
REMARK  2 active torsions:
REMARK  status: ('A' for Active; 'I' for Inactive)
REMARK    1  A    between atoms: C_5  and  N_1 
REMARK    2  A    between atoms: C_7  and  C_5 
ROOT
ATOM      1  N   UNL d   1     -47.821  12.368  23.387  0.00  0.00    -0.288 N 
ATOM      2  C   UNL d   1     -47.335  11.784  23.696  0.00  0.00     0.183 A 
ATOM      3  N   UNL d   1     -46.535  12.059  23.627  0.00  0.00    -0.224 NA
ATOM      4  C   UNL d   1     -47.371  12.986  23.133  0.00  0.00     0.083 A 
ATOM      5  C   UNL d   1     -46.554  12.789  23.285  0.00  0.00     0.099 A 
ATOM      6  C   UNL d   1     -47.563  13.707  22.783  0.00  0.00     0.019 A 
ATOM      7  C   UNL d   1     -45.977  13.354  23.065  0.00  0.00     0.021 A 
ATOM      8  C   UNL d   1     -46.966  14.240  22.579  0.00  0.00     0.002 A 
ATOM      9  C   UNL d   1     -46.177  14.050  22.726  0.00  0.00     0.002 A 
ENDROOT
BRANCH   1  10
ATOM     10  C   UNL d   1     -48.358  12.887  23.106  0.00  0.00     0.066 C 
ATOM     11  C   UNL d   1     -48.137  13.649  22.881  0.00  0.00     0.019 C 
BRANCH  10  12
ATOM     12  C   UNL d   1     -49.145  12.651  23.041  0.00  0.00     0.016 A 
ATOM     13  C   UNL d   1     -49.643  12.692  23.698  0.00  0.00     0.001 A 
ATOM     14  C   UNL d   1     -50.431  12.455  23.634  0.00  0.00     0.000 A 
ATOM     15  C   UNL d   1     -50.724  12.176  22.910  0.00  0.00     0.000 A 
ATOM     16  C   UNL d   1     -50.226  12.135  22.253  0.00  0.00     0.000 A 
ATOM     17  C   UNL d   1     -49.435  12.373  22.321  0.00  0.00     0.001 A 
ENDBRANCH  10  12
ENDBRANCH   1  10
TORSDOF 2
ENDMDL
MODEL 3
REMARK VINA RESULT:      -8.1      1.545      2.786
REMARK  2 active torsions:
REMARK  status: ('A' for Active; 'I' for Inactive)
REMARK    1  A    between atoms: C_5  and  N_1 
REMARK    2  A    between atoms: C_7  and  C_5 
ROOT
ATOM      1  N   UNL d   1     -47.406  13.695  22.922  0.00  0.00    -0.288 N 
ATOM      2  C   UNL d   1     -46.651  14.016  22.936  0.00  0.00     0.183 A 
ATOM      3  N   UNL d   1     -46.122  13.409  23.205  0.00  0.00    -0.224 NA
ATOM      4  C   UNL d   1     -47.376  12.928  23.166  0.00  0.00     0.083 A 
ATOM      5  C   UNL d   1     -46.561  12.746  23.346  0.00  0.00     0.099 A 
ATOM      6  C   UNL d   1     -47.956  12.350  23.258  0.00  0.00     0.019 A 
ATOM      7  C   UNL d   1     -46.391  11.972  23.613  0.00  0.00     0.021 A 
ATOM      8  C   UNL d   1     -47.751  11.596  23.524  0.00  0.00     0.002 A 
ATOM      9  C   UNL d   1     -46.964  11.421  23.698  0.00  0.00     0.002 A 
ENDROOT
BRANCH   1  10
ATOM     10  C   UNL d   1     -48.166  13.456  22.882  0.00  0.00     0.066 C 
ATOM     11  C   UNL d   1     -48.370  12.663  22.985  0.00  0.00     0.019 C 
BRANCH  10  12
ATOM     12  C   UNL d   1     -48.752  14.016  22.734  0.00  0.00     0.016 A 
ATOM     13  C   UNL d   1     -49.098  14.064  21.986  0.00  0.00     0.001 A 
ATOM     14  C   UNL d   1     -49.685  14.625  21.837  0.00  0.00     0.000 A 
ATOM     15  C   UNL d   1     -49.929  15.141  22.439  0.00  0.00     0.000 A 
ATOM     16  C   UNL d   1     -49.584  15.093  23.186  0.00  0.00     0.000 A 
ATOM     17  C   UNL d   1     -48.994  14.529  23.333  0.00  0.00     0.001 A 
ENDBRANCH  10  12
ENDBRANCH   1  10
TORSDOF 2
ENDMDL
