MODEL 1
REMARK VINA RESULT:      32.0      0.000      0.000
REMARK  2 active torsions:
REMARK  status: ('A' for Active; 'I' for Inactive)
REMARK    1  A    between atoms: C_8  and  C_1 
REMARK    2  A    between atoms: C_7  and  C_2 
ROOT
ATOM      1  C   UNL d   1      14.368  13.190  -1.746  0.00  0.00     0.066 A 
ATOM      2  C   UNL d   1      14.096  12.429  -1.586  0.00  0.00     0.174 A 
ATOM      3  C   UNL d   1      14.270  13.529  -2.497  0.00  0.00     0.199 A 
ATOM      4  O   UNL d   1      13.719  11.993  -2.185  0.00  0.00    -0.303 OA
ATOM      5  C   UNL d   1      13.891  13.079  -3.084  0.00  0.00     0.062 A 
ATOM      6  C   UNL d   1      13.622  12.328  -2.929  0.00  0.00     0.106 A 
ATOM      7  C   UNL d   1      13.244  11.880  -3.518  0.00  0.00     0.067 A 
ATOM      8  C   UNL d   1      13.786  13.410  -3.846  0.00  0.00     0.009 A 
ATOM      9  O   UNL d   1      14.550  14.303  -2.645  0.00  0.00    -0.286 OA
ATOM     10  C   UNL d   1      13.144  12.215  -4.270  0.00  0.00     0.198 A 
ATOM     11  C   UNL d   1      13.418  12.984  -4.431  0.00  0.00     0.042 A 
ATOM     12  O   UNL d   1      12.776  11.779  -4.842  0.00  0.00    -0.286 OA
ENDROOT
BRANCH   1  13
ATOM     13  C   UNL d   1      14.737  13.632  -1.178  0.00  0.00     0.005 A 
ATOM     14  C   UNL d   1      15.522  13.532  -0.997  0.00  0.00     0.000 A 
ATOM     15  C   UNL d   1      15.997  12.980  -1.373  0.00  0.00     0.000 C 
ATOM     16  C   UNL d   1      15.894  13.990  -0.412  0.00  0.00     0.000 A 
ATOM     17  C   UNL d   1      15.448  14.553  -0.014  0.00  0.00     0.000 A 
ATOM     18  C   UNL d   1      14.650  14.667  -0.187  0.00  0.00     0.000 A 
ATOM     19  C   UNL d   1      14.298  14.210  -0.763  0.00  0.00     0.000 A 
ENDBRANCH   1  13
BRANCH   2  20
ATOM     20  C   UNL d   1      14.198  12.100  -0.834  0.00  0.00     0.440 C 
ATOM     21  F   UNL d   1      13.578  12.091  -0.374  0.00  0.00    -0.164 F 
ATOM     22  F   UNL d   1      14.243  11.785  -0.076  0.00  0.00    -0.164 F 
ATOM     23  F   UNL d   1      14.989  11.780  -0.587  0.00  0.00    -0.164 F 
ENDBRANCH   2  20
TORSDOF 2
ENDMDL
