MODEL 1
REMARK VINA RESULT:      -7.6      0.000      0.000
REMARK  5 active torsions:
REMARK  status: ('A' for Active; 'I' for Inactive)
REMARK    1  A    between atoms: N_5  and  C_1 
REMARK    2  A    between atoms: C_8  and  C_2 
REMARK       I    between atoms: C_7  and  N_5 
REMARK    3  A    between atoms: C_10  and  C_7 
REMARK    4  A    between atoms: O_12  and  C_8 
REMARK    5  A    between atoms: C_16  and  O_12 
ROOT
ATOM      1  C   UNL d   1      52.212  32.865  53.343  0.00  0.00     0.114 A 
ATOM      2  C   UNL d   1      51.494  33.871  52.853  0.00  0.00     0.094 A 
ATOM      3  S   UNL d   1      51.485  33.083  53.024  0.00  0.00    -0.062 SA
ATOM      4  C   UNL d   1      52.258  34.143  53.078  0.00  0.00     0.013 A 
ATOM      5  C   UNL d   1      52.671  33.542  53.365  0.00  0.00     0.027 A 
ATOM      6  C   UNL d   1      52.535  34.920  53.009  0.00  0.00     0.001 C 
ENDROOT
BRANCH   1   7
ATOM      7  N   UNL d   1      52.453  32.085  53.606  0.00  0.00    -0.201 NA
ATOM      8  C   UNL d   1      52.733  31.543  53.058  0.00  0.00     0.280 C 
ATOM      9  O   UNL d   1      52.785  31.736  52.264  0.00  0.00    -0.265 OA
BRANCH   8  10
ATOM     10  C   UNL d   1      52.962  30.800  53.308  0.00  0.00     0.058 A 
ATOM     11  C   UNL d   1      52.464  30.154  53.236  0.00  0.00     0.005 A 
ATOM     12  C   UNL d   1      52.684  29.399  53.485  0.00  0.00     0.000 A 
ATOM     13  C   UNL d   1      53.437  29.304  53.817  0.00  0.00     0.000 A 
ATOM     14  C   UNL d   1      53.951  29.943  53.896  0.00  0.00     0.000 A 
ATOM     15  C   UNL d   1      53.719  30.694  53.644  0.00  0.00     0.005 A 
ENDBRANCH   8  10
ENDBRANCH   1   7
BRANCH   2  16
ATOM     16  C   UNL d   1      50.878  34.326  52.522  0.00  0.00     0.306 C 
ATOM     17  O   UNL d   1      50.914  34.505  51.727  0.00  0.00    -0.258 OA
BRANCH  16  18
ATOM     18  O   UNL d   1      50.249  34.591  52.973  0.00  0.00    -0.271 OA
BRANCH  18  19
ATOM     19  C   UNL d   1      49.568  34.878  52.613  0.00  0.00     0.126 C 
ATOM     20  C   UNL d   1      49.004  35.266  53.078  0.00  0.00     0.029 C 
ENDBRANCH  18  19
ENDBRANCH  16  18
ENDBRANCH   2  16
TORSDOF 5
ENDMDL
MODEL 2
REMARK VINA RESULT:      -7.5      1.518      4.514
REMARK  5 active torsions:
REMARK  status: ('A' for Active; 'I' for Inactive)
REMARK    1  A    between atoms: N_5  and  C_1 
REMARK    2  A    between atoms: C_8  and  C_2 
REMARK       I    between atoms: C_7  and  N_5 
REMARK    3  A    between atoms: C_10  and  C_7 
REMARK    4  A    between atoms: O_12  and  C_8 
REMARK    5  A    between atoms: C_16  and  O_12 
ROOT
ATOM      1  C   UNL d   1      51.901  33.042  53.217  0.00  0.00     0.114 A 
ATOM      2  C   UNL d   1      53.176  32.836  53.533  0.00  0.00     0.094 A 
ATOM      3  S   UNL d   1      52.577  33.376  53.549  0.00  0.00    -0.062 SA
ATOM      4  C   UNL d   1      52.850  32.147  53.177  0.00  0.00     0.013 A 
ATOM      5  C   UNL d   1      52.100  32.280  52.996  0.00  0.00     0.027 A 
ATOM      6  C   UNL d   1      53.253  31.437  53.038  0.00  0.00     0.001 C 
ENDROOT
BRANCH   1   7
ATOM      7  N   UNL d   1      51.133  33.411  53.118  0.00  0.00    -0.201 NA
ATOM      8  C   UNL d   1      51.038  34.002  52.558  0.00  0.00     0.280 C 
ATOM      9  O   UNL d   1      51.667  34.246  52.093  0.00  0.00    -0.265 OA
BRANCH   8  10
ATOM     10  C   UNL d   1      50.307  34.354  52.463  0.00  0.00     0.058 A 
ATOM     11  C   UNL d   1      49.958  34.779  53.070  0.00  0.00     0.005 A 
ATOM     12  C   UNL d   1      49.220  35.139  52.986  0.00  0.00     0.000 A 
ATOM     13  C   UNL d   1      48.829  35.059  52.260  0.00  0.00     0.000 A 
ATOM     14  C   UNL d   1      49.167  34.635  51.640  0.00  0.00     0.000 A 
ATOM     15  C   UNL d   1      49.905  34.280  51.736  0.00  0.00     0.005 A 
ENDBRANCH   8  10
ENDBRANCH   1   7
BRANCH   2  16
ATOM     16  C   UNL d   1      53.956  32.935  53.810  0.00  0.00     0.306 C 
ATOM     17  O   UNL d   1      54.567  32.881  53.272  0.00  0.00    -0.258 OA
BRANCH  16  18
ATOM     18  O   UNL d   1      54.118  33.083  54.598  0.00  0.00    -0.271 OA
BRANCH  18  19
ATOM     19  C   UNL d   1      54.842  33.400  54.824  0.00  0.00     0.126 C 
ATOM     20  C   UNL d   1      54.956  33.611  55.616  0.00  0.00     0.029 C 
ENDBRANCH  18  19
ENDBRANCH  16  18
ENDBRANCH   2  16
TORSDOF 5
ENDMDL
MODEL 3
REMARK VINA RESULT:      -7.5      1.169      4.494
REMARK  5 active torsions:
REMARK  status: ('A' for Active; 'I' for Inactive)
REMARK    1  A    between atoms: N_5  and  C_1 
REMARK    2  A    between atoms: C_8  and  C_2 
REMARK       I    between atoms: C_7  and  N_5 
REMARK    3  A    between atoms: C_10  and  C_7 
REMARK    4  A    between atoms: O_12  and  C_8 
REMARK    5  A    between atoms: C_16  and  O_12 
ROOT
ATOM      1  C   UNL d   1      52.291  33.599  53.296  0.00  0.00     0.114 A 
ATOM      2  C   UNL d   1      53.185  32.660  53.592  0.00  0.00     0.094 A 
ATOM      3  S   UNL d   1      52.591  32.861  53.085  0.00  0.00    -0.062 SA
ATOM      4  C   UNL d   1      53.248  33.302  54.132  0.00  0.00     0.013 A 
ATOM      5  C   UNL d   1      52.717  33.847  53.948  0.00  0.00     0.027 A 
ATOM      6  C   UNL d   1      53.785  33.355  54.761  0.00  0.00     0.001 C 
ENDROOT
BRANCH   1   7
ATOM      7  N   UNL d   1      51.656  34.031  52.914  0.00  0.00    -0.201 NA
ATOM      8  C   UNL d   1      50.878  33.815  53.055  0.00  0.00     0.280 C 
ATOM      9  O   UNL d   1      50.699  33.192  53.554  0.00  0.00    -0.265 OA
BRANCH   8  10
ATOM     10  C   UNL d   1      50.274  34.227  52.691  0.00  0.00     0.058 A 
ATOM     11  C   UNL d   1      50.119  34.138  51.892  0.00  0.00     0.005 A 
ATOM     12  C   UNL d   1      49.512  34.549  51.514  0.00  0.00     0.000 A 
ATOM     13  C   UNL d   1      49.050  35.065  51.968  0.00  0.00     0.000 A 
ATOM     14  C   UNL d   1      49.193  35.165  52.773  0.00  0.00     0.000 A 
ATOM     15  C   UNL d   1      49.803  34.749  53.140  0.00  0.00     0.005 A 
ENDBRANCH   8  10
ENDBRANCH   1   7
BRANCH   2  16
ATOM     16  C   UNL d   1      53.644  31.963  53.586  0.00  0.00     0.306 C 
ATOM     17  O   UNL d   1      54.440  32.027  53.419  0.00  0.00    -0.258 OA
BRANCH  16  18
ATOM     18  O   UNL d   1      53.316  31.231  53.742  0.00  0.00    -0.271 OA
BRANCH  18  19
ATOM     19  C   UNL d   1      53.723  30.542  53.554  0.00  0.00     0.126 C 
ATOM     20  C   UNL d   1      53.368  29.812  53.714  0.00  0.00     0.029 C 
ENDBRANCH  18  19
ENDBRANCH  16  18
ENDBRANCH   2  16
TORSDOF 5
ENDMDL
MODEL 4
REMARK VINA RESULT:      -7.2      2.013      2.526
REMARK  5 active torsions:
REMARK  status: ('A' for Active; 'I' for Inactive)
REMARK    1  A    between atoms: N_5  and  C_1 
REMARK    2  A    between atoms: C_8  and  C_2 
REMARK       I    between atoms: C_7  and  N_5 
REMARK    3  A    between atoms: C_10  and  C_7 
REMARK    4  A    between atoms: O_12  and  C_8 
REMARK    5  A    between atoms: C_16  and  O_12 
ROOT
ATOM      1  C   UNL d   1      51.499  33.836  53.081  0.00  0.00     0.114 A 
ATOM      2  C   UNL d   1      50.356  34.361  52.647  0.00  0.00     0.094 A 
ATOM      3  S   UNL d   1      50.756  34.113  53.303  0.00  0.00    -0.062 SA
ATOM      4  C   UNL d   1      50.880  34.230  52.001  0.00  0.00     0.013 A 
ATOM      5  C   UNL d   1      51.547  33.921  52.269  0.00  0.00     0.027 A 
ATOM      6  C   UNL d   1      50.719  34.398  51.207  0.00  0.00     0.001 C 
ENDROOT
BRANCH   1   7
ATOM      7  N   UNL d   1      52.111  33.519  53.592  0.00  0.00    -0.201 NA
ATOM      8  C   UNL d   1      52.760  33.983  53.781  0.00  0.00     0.280 C 
ATOM      9  O   UNL d   1      52.832  34.744  53.488  0.00  0.00    -0.265 OA
BRANCH   8  10
ATOM     10  C   UNL d   1      53.342  33.681  54.267  0.00  0.00     0.058 A 
ATOM     11  C   UNL d   1      53.556  32.891  54.235  0.00  0.00     0.005 A 
ATOM     12  C   UNL d   1      54.143  32.574  54.721  0.00  0.00     0.000 A 
ATOM     13  C   UNL d   1      54.521  33.082  55.255  0.00  0.00     0.000 A 
ATOM     14  C   UNL d   1      54.317  33.879  55.300  0.00  0.00     0.000 A 
ATOM     15  C   UNL d   1      53.729  34.184  54.809  0.00  0.00     0.005 A 
ENDBRANCH   8  10
ENDBRANCH   1   7
BRANCH   2  16
ATOM     16  C   UNL d   1      49.587  34.682  52.612  0.00  0.00     0.306 C 
ATOM     17  O   UNL d   1      49.083  34.412  52.030  0.00  0.00    -0.258 OA
BRANCH  16  18
ATOM     18  O   UNL d   1      49.334  35.252  53.141  0.00  0.00    -0.271 OA
BRANCH  18  19
ATOM     19  C   UNL d   1      48.572  35.556  53.093  0.00  0.00     0.126 C 
ATOM     20  C   UNL d   1      48.334  36.125  53.645  0.00  0.00     0.029 C 
ENDBRANCH  18  19
ENDBRANCH  16  18
ENDBRANCH   2  16
TORSDOF 5
ENDMDL
MODEL 5
REMARK VINA RESULT:      -6.9      2.059      4.761
REMARK  5 active torsions:
REMARK  status: ('A' for Active; 'I' for Inactive)
REMARK    1  A    between atoms: N_5  and  C_1 
REMARK    2  A    between atoms: C_8  and  C_2 
REMARK       I    between atoms: C_7  and  N_5 
REMARK    3  A    between atoms: C_10  and  C_7 
REMARK    4  A    between atoms: O_12  and  C_8 
REMARK    5  A    between atoms: C_16  and  O_12 
ROOT
ATOM      1  C   UNL d   1      52.903  31.819  53.554  0.00  0.00     0.114 A 
ATOM      2  C   UNL d   1      53.276  30.544  53.623  0.00  0.00     0.094 A 
ATOM      3  S   UNL d   1      53.254  31.243  54.026  0.00  0.00    -0.062 SA
ATOM      4  C   UNL d   1      52.923  30.704  52.876  0.00  0.00     0.013 A 
ATOM      5  C   UNL d   1      52.708  31.456  52.848  0.00  0.00     0.027 A 
ATOM      6  C   UNL d   1      52.817  30.156  52.264  0.00  0.00     0.001 C 
ENDROOT
BRANCH   1   7
ATOM      7  N   UNL d   1      52.764  32.642  53.753  0.00  0.00    -0.201 NA
ATOM      8  C   UNL d   1      53.380  33.180  53.702  0.00  0.00     0.280 C 
ATOM      9  O   UNL d   1      54.127  32.943  53.464  0.00  0.00    -0.265 OA
BRANCH   8  10
ATOM     10  C   UNL d   1      53.247  33.963  53.892  0.00  0.00     0.058 A 
ATOM     11  C   UNL d   1      52.868  34.468  53.371  0.00  0.00     0.005 A 
ATOM     12  C   UNL d   1      52.728  35.261  53.551  0.00  0.00     0.000 A 
ATOM     13  C   UNL d   1      52.984  35.544  54.286  0.00  0.00     0.000 A 
ATOM     14  C   UNL d   1      53.368  35.049  54.821  0.00  0.00     0.000 A 
ATOM     15  C   UNL d   1      53.502  34.258  54.630  0.00  0.00     0.005 A 
ENDBRANCH   8  10
ENDBRANCH   1   7
BRANCH   2  16
ATOM     16  C   UNL d   1      53.582  29.815  53.887  0.00  0.00     0.306 C 
ATOM     17  O   UNL d   1      54.296  29.562  53.582  0.00  0.00    -0.258 OA
BRANCH  16  18
ATOM     18  O   UNL d   1      53.186  29.356  54.436  0.00  0.00    -0.271 OA
BRANCH  18  19
ATOM     19  C   UNL d   1      53.558  28.712  54.788  0.00  0.00     0.126 C 
ATOM     20  C   UNL d   1      53.244  28.404  55.488  0.00  0.00     0.029 C 
ENDBRANCH  18  19
ENDBRANCH  16  18
ENDBRANCH   2  16
TORSDOF 5
ENDMDL
MODEL 6
REMARK VINA RESULT:      -6.9      2.317      2.654
REMARK  5 active torsions:
REMARK  status: ('A' for Active; 'I' for Inactive)
REMARK    1  A    between atoms: N_5  and  C_1 
REMARK    2  A    between atoms: C_8  and  C_2 
REMARK       I    between atoms: C_7  and  N_5 
REMARK    3  A    between atoms: C_10  and  C_7 
REMARK    4  A    between atoms: O_12  and  C_8 
REMARK    5  A    between atoms: C_16  and  O_12 
ROOT
ATOM      1  C   UNL d   1      53.791  32.609  54.634  0.00  0.00     0.114 A 
ATOM      2  C   UNL d   1      53.953  33.928  54.680  0.00  0.00     0.094 A 
ATOM      3  S   UNL d   1      53.471  33.337  54.419  0.00  0.00    -0.062 SA
ATOM      4  C   UNL d   1      54.593  33.543  55.069  0.00  0.00     0.013 A 
ATOM      5  C   UNL d   1      54.485  32.768  55.036  0.00  0.00     0.027 A 
ATOM      6  C   UNL d   1      55.235  33.919  55.432  0.00  0.00     0.001 C 
ENDROOT
BRANCH   1   7
ATOM      7  N   UNL d   1      53.468  31.830  54.475  0.00  0.00    -0.201 NA
ATOM      8  C   UNL d   1      53.678  31.440  53.786  0.00  0.00     0.280 C 
ATOM      9  O   UNL d   1      54.190  31.783  53.247  0.00  0.00    -0.265 OA
BRANCH   8  10
ATOM     10  C   UNL d   1      53.371  30.698  53.634  0.00  0.00     0.058 A 
ATOM     11  C   UNL d   1      53.566  30.054  54.100  0.00  0.00     0.005 A 
ATOM     12  C   UNL d   1      53.263  29.300  53.956  0.00  0.00     0.000 A 
ATOM     13  C   UNL d   1      52.744  29.205  53.318  0.00  0.00     0.000 A 
ATOM     14  C   UNL d   1      52.538  29.843  52.839  0.00  0.00     0.000 A 
ATOM     15  C   UNL d   1      52.848  30.592  52.993  0.00  0.00     0.005 A 
ENDBRANCH   8  10
ENDBRANCH   1   7
BRANCH   2  16
ATOM     16  C   UNL d   1      53.846  34.750  54.586  0.00  0.00     0.306 C 
ATOM     17  O   UNL d   1      54.432  35.175  54.208  0.00  0.00    -0.258 OA
BRANCH  16  18
ATOM     18  O   UNL d   1      53.176  35.131  54.860  0.00  0.00    -0.271 OA
BRANCH  18  19
ATOM     19  C   UNL d   1      52.969  35.872  54.571  0.00  0.00     0.126 C 
ATOM     20  C   UNL d   1      52.340  36.276  54.925  0.00  0.00     0.029 C 
ENDBRANCH  18  19
ENDBRANCH  16  18
ENDBRANCH   2  16
TORSDOF 5
ENDMDL
