MODEL 1
REMARK VINA RESULT:      -5.1      0.000      0.000
REMARK  4 active torsions:
REMARK  status: ('A' for Active; 'I' for Inactive)
REMARK       I    between atoms: C_3  and  N_1 
REMARK    1  A    between atoms: C_9  and  C_3 
REMARK    2  A    between atoms: S_8  and  C_9 
REMARK    3  A    between atoms: C_12  and  S_8 
REMARK    4  A    between atoms: C_11  and  C_12 
ROOT
ATOM      1  N   UNL d   1      57.056  -0.298  31.638  0.00  0.00    -0.274 N 
ATOM      2  C   UNL d   1      56.543  -0.616  32.199  0.00  0.00     0.067 A 
ATOM      3  C   UNL d   1      57.431  -0.713  31.020  0.00  0.00     0.259 C 
ATOM      4  C   UNL d   1      57.138   0.514  31.791  0.00  0.00     0.083 A 
ATOM      5  C   UNL d   1      56.305  -0.010  32.702  0.00  0.00     0.018 A 
ATOM      6  O   UNL d   1      57.303  -1.531  30.923  0.00  0.00    -0.267 OA
ATOM      7  C   UNL d   1      56.672   0.682  32.448  0.00  0.00     0.021 A 
ATOM      8  C   UNL d   1      56.262  -1.381  32.317  0.00  0.00     0.018 A 
ATOM      9  C   UNL d   1      55.791  -0.158  33.319  0.00  0.00     0.002 A 
ATOM     10  C   UNL d   1      55.750  -1.542  32.929  0.00  0.00     0.002 A 
ATOM     11  C   UNL d   1      55.505  -0.934  33.440  0.00  0.00     0.000 A 
ENDROOT
BRANCH   3  12
ATOM     12  C   UNL d   1      57.938  -0.314  30.492  0.00  0.00     0.125 C 
BRANCH  12  13
ATOM     13  S   UNL d   1      58.415  -0.741  29.977  0.00  0.00    -0.094 SA
BRANCH  13  14
ATOM     14  C   UNL d   1      58.842  -0.344  29.388  0.00  0.00     0.035 C 
BRANCH  14  15
ATOM     15  C   UNL d   1      59.531  -0.689  29.074  0.00  0.00     0.006 A 
ATOM     16  C   UNL d   1      59.500  -1.454  28.768  0.00  0.00     0.001 A 
ATOM     17  C   UNL d   1      60.183  -1.798  28.455  0.00  0.00     0.000 A 
ATOM     18  C   UNL d   1      60.890  -1.365  28.456  0.00  0.00     0.000 A 
ATOM     19  C   UNL d   1      60.919  -0.605  28.760  0.00  0.00     0.000 A 
ATOM     20  C   UNL d   1      60.243  -0.264  29.070  0.00  0.00     0.001 A 
ENDBRANCH  14  15
ENDBRANCH  13  14
ENDBRANCH  12  13
ENDBRANCH   3  12
TORSDOF 4
ENDMDL
MODEL 2
REMARK VINA RESULT:      -4.8      1.225      4.859
REMARK  4 active torsions:
REMARK  status: ('A' for Active; 'I' for Inactive)
REMARK       I    between atoms: C_3  and  N_1 
REMARK    1  A    between atoms: C_9  and  C_3 
REMARK    2  A    between atoms: S_8  and  C_9 
REMARK    3  A    between atoms: C_12  and  S_8 
REMARK    4  A    between atoms: C_11  and  C_12 
ROOT
ATOM      1  N   UNL d   1      58.263  -0.362  30.043  0.00  0.00    -0.274 N 
ATOM      2  C   UNL d   1      58.602  -0.952  29.577  0.00  0.00     0.067 A 
ATOM      3  C   UNL d   1      57.712  -0.476  30.658  0.00  0.00     0.259 C 
ATOM      4  C   UNL d   1      58.564   0.370  29.796  0.00  0.00     0.083 A 
ATOM      5  C   UNL d   1      59.112  -0.593  29.041  0.00  0.00     0.018 A 
ATOM      6  O   UNL d   1      57.451  -1.242  30.855  0.00  0.00    -0.267 OA
ATOM      7  C   UNL d   1      59.086   0.219  29.179  0.00  0.00     0.021 A 
ATOM      8  C   UNL d   1      58.511  -1.770  29.572  0.00  0.00     0.018 A 
ATOM      9  C   UNL d   1      59.532  -1.041  28.502  0.00  0.00     0.002 A 
ATOM     10  C   UNL d   1      58.923  -2.228  29.040  0.00  0.00     0.002 A 
ATOM     11  C   UNL d   1      59.441  -1.871  28.496  0.00  0.00     0.000 A 
ENDROOT
BRANCH   3  12
ATOM     12  C   UNL d   1      57.416   0.178  31.083  0.00  0.00     0.125 C 
BRANCH  12  13
ATOM     13  S   UNL d   1      57.035   0.063  31.802  0.00  0.00    -0.094 SA
BRANCH  13  14
ATOM     14  C   UNL d   1      56.597   0.682  32.138  0.00  0.00     0.035 C 
BRANCH  14  15
ATOM     15  C   UNL d   1      56.248   0.582  32.886  0.00  0.00     0.006 A 
ATOM     16  C   UNL d   1      55.448   0.387  32.940  0.00  0.00     0.001 A 
ATOM     17  C   UNL d   1      55.101   0.288  33.683  0.00  0.00     0.000 A 
ATOM     18  C   UNL d   1      55.565   0.385  34.363  0.00  0.00     0.000 A 
ATOM     19  C   UNL d   1      56.359   0.579  34.308  0.00  0.00     0.000 A 
ATOM     20  C   UNL d   1      56.704   0.678  33.572  0.00  0.00     0.001 A 
ENDBRANCH  14  15
ENDBRANCH  13  14
ENDBRANCH  12  13
ENDBRANCH   3  12
TORSDOF 4
ENDMDL
MODEL 3
REMARK VINA RESULT:      -3.6      1.578      2.455
REMARK  4 active torsions:
REMARK  status: ('A' for Active; 'I' for Inactive)
REMARK       I    between atoms: C_3  and  N_1 
REMARK    1  A    between atoms: C_9  and  C_3 
REMARK    2  A    between atoms: S_8  and  C_9 
REMARK    3  A    between atoms: C_12  and  S_8 
REMARK    4  A    between atoms: C_11  and  C_12 
ROOT
ATOM      1  N   UNL d   1      56.041   0.554  33.282  0.00  0.00    -0.274 N 
ATOM      2  C   UNL d   1      55.963   0.599  34.102  0.00  0.00     0.067 A 
ATOM      3  C   UNL d   1      56.757   0.539  32.855  0.00  0.00     0.259 C 
ATOM      4  C   UNL d   1      55.281   0.525  32.950  0.00  0.00     0.083 A 
ATOM      5  C   UNL d   1      55.161   0.599  34.283  0.00  0.00     0.018 A 
ATOM      6  O   UNL d   1      57.487   0.571  33.254  0.00  0.00    -0.267 OA
ATOM      7  C   UNL d   1      54.746   0.553  33.573  0.00  0.00     0.021 A 
ATOM      8  C   UNL d   1      56.520   0.641  34.706  0.00  0.00     0.018 A 
ATOM      9  C   UNL d   1      54.910   0.640  35.059  0.00  0.00     0.002 A 
ATOM     10  C   UNL d   1      56.283   0.682  35.484  0.00  0.00     0.002 A 
ATOM     11  C   UNL d   1      55.474   0.682  35.674  0.00  0.00     0.000 A 
ENDROOT
BRANCH   3  12
ATOM     12  C   UNL d   1      56.748   0.492  32.022  0.00  0.00     0.125 C 
BRANCH  12  13
ATOM     13  S   UNL d   1      57.447   0.363  31.610  0.00  0.00    -0.094 SA
BRANCH  13  14
ATOM     14  C   UNL d   1      57.431   0.302  30.783  0.00  0.00     0.035 C 
BRANCH  14  15
ATOM     15  C   UNL d   1      58.129   0.122  30.369  0.00  0.00     0.006 A 
ATOM     16  C   UNL d   1      58.743   0.673  30.347  0.00  0.00     0.001 A 
ATOM     17  C   UNL d   1      59.437   0.496  29.936  0.00  0.00     0.000 A 
ATOM     18  C   UNL d   1      59.505  -0.235  29.552  0.00  0.00     0.000 A 
ATOM     19  C   UNL d   1      58.894  -0.781  29.574  0.00  0.00     0.000 A 
ATOM     20  C   UNL d   1      58.206  -0.606  29.981  0.00  0.00     0.001 A 
ENDBRANCH  14  15
ENDBRANCH  13  14
ENDBRANCH  12  13
ENDBRANCH   3  12
TORSDOF 4
ENDMDL
