MODEL 1
REMARK VINA RESULT:     129.9      0.000      0.000
REMARK  4 active torsions:
REMARK  status: ('A' for Active; 'I' for Inactive)
REMARK    1  A    between atoms: C_13  and  N_5 
REMARK    2  A    between atoms: C_14  and  C_6 
REMARK    3  A    between atoms: C_21  and  C_13 
REMARK    4  A    between atoms: O_25  and  C_20 
ROOT
ATOM      1  C   UNL d   1      60.289  49.011  51.284  0.00  0.00     0.080 A 
ATOM      2  C   UNL d   1      60.454  48.787  50.498  0.00  0.00     0.267 A 
ATOM      3  C   UNL d   1      60.900  49.084  51.833  0.00  0.00     0.108 A 
ATOM      4  C   UNL d   1      59.333  49.381  52.286  0.00  0.00     0.111 A 
ATOM      5  N   UNL d   1      61.242  48.641  50.285  0.00  0.00    -0.273 N 
ATOM      6  C   UNL d   1      59.507  49.157  51.503  0.00  0.00     0.020 A 
ATOM      7  C   UNL d   1      59.954  49.454  52.838  0.00  0.00     0.213 A 
ATOM      8  C   UNL d   1      61.679  48.938  51.612  0.00  0.00     0.043 A 
ATOM      9  O   UNL d   1      60.729  49.306  52.608  0.00  0.00    -0.287 OA
ATOM     10  C   UNL d   1      61.850  48.716  50.837  0.00  0.00     0.069 A 
ATOM     11  C   UNL d   1      58.558  49.530  52.516  0.00  0.00     0.105 C 
ATOM     12  N   UNL d   1      57.772  49.676  52.733  0.00  0.00    -0.191 NA
ATOM     13  O   UNL d   1      59.845  48.712  49.946  0.00  0.00    -0.267 OA
ATOM     14  N   UNL d   1      59.785  49.676  53.615  0.00  0.00    -0.120 N 
ATOM     15  C   UNL d   1      62.636  48.567  50.610  0.00  0.00     0.019 C 
ENDROOT
BRANCH   6  16
ATOM     16  C   UNL d   1      58.893  49.084  50.956  0.00  0.00     0.001 A 
ATOM     17  C   UNL d   1      58.445  48.397  50.924  0.00  0.00     0.002 A 
ATOM     18  C   UNL d   1      57.833  48.328  50.376  0.00  0.00     0.024 A 
ATOM     19  C   UNL d   1      57.672  48.951  49.862  0.00  0.00     0.094 A 
ATOM     20  C   UNL d   1      58.126  49.650  49.892  0.00  0.00     0.024 A 
ATOM     21  C   UNL d   1      58.736  49.708  50.444  0.00  0.00     0.002 A 
BRANCH  19  22
ATOM     22  O   UNL d   1      57.060  48.885  49.312  0.00  0.00    -0.328 OA
ATOM     23  C   UNL d   1      56.699  48.157  49.182  0.00  0.00     0.181 C 
ENDBRANCH  19  22
ENDBRANCH   6  16
BRANCH   5  24
ATOM     24  C   UNL d   1      61.416  48.417  49.502  0.00  0.00     0.083 C 
BRANCH  24  25
ATOM     25  C   UNL d   1      61.759  47.680  49.336  0.00  0.00     0.021 A 
ATOM     26  C   UNL d   1      62.537  47.627  49.073  0.00  0.00     0.022 A 
ATOM     27  C   UNL d   1      62.866  46.889  48.912  0.00  0.00     0.099 A 
ATOM     28  N   UNL d   1      62.421  46.206  49.012  0.00  0.00    -0.242 NA
ATOM     29  C   UNL d   1      61.637  46.259  49.276  0.00  0.00     0.099 A 
ATOM     30  C   UNL d   1      61.309  46.996  49.438  0.00  0.00     0.022 A 
ENDBRANCH  24  25
ENDBRANCH   5  24
TORSDOF 4
ENDMDL
