MODEL 1
REMARK VINA RESULT:      34.7      0.000      0.000
REMARK  4 active torsions:
REMARK  status: ('A' for Active; 'I' for Inactive)
REMARK    1  A    between atoms: C_7  and  C_2 
REMARK    2  A    between atoms: O_8  and  C_7 
REMARK    3  A    between atoms: C_9  and  O_8 
REMARK    4  A    between atoms: O_11  and  C_10 
ROOT
ATOM      1  C   UNL d   1      59.148  49.079  51.104  0.00  0.00     0.161 C 
ENDROOT
BRANCH   1   2
ATOM      2  C   UNL d   1      58.400  49.205  50.789  0.00  0.00     0.188 A 
ATOM      3  N   UNL d   1      58.431  49.328  49.959  0.00  0.00    -0.224 NA
ATOM      4  C   UNL d   1      57.652  49.450  49.694  0.00  0.00     0.101 A 
ATOM      5  C   UNL d   1      57.144  49.404  50.347  0.00  0.00     0.101 A 
ATOM      6  C   UNL d   1      57.356  49.596  48.942  0.00  0.00     0.021 A 
ATOM      7  C   UNL d   1      56.330  49.507  50.232  0.00  0.00     0.021 A 
ATOM      8  N   UNL d   1      57.603  49.254  51.020  0.00  0.00    -0.224 NA
ATOM      9  C   UNL d   1      56.033  49.653  49.480  0.00  0.00     0.002 A 
ATOM     10  C   UNL d   1      56.548  49.697  48.833  0.00  0.00     0.002 A 
ENDBRANCH   1   2
BRANCH   1  11
ATOM     11  O   UNL d   1      59.589  49.706  51.381  0.00  0.00    -0.302 OA
BRANCH  11  12
ATOM     12  C   UNL d   1      60.412  49.654  51.416  0.00  0.00     0.102 A 
ATOM     13  C   UNL d   1      60.785  49.633  52.147  0.00  0.00     0.049 A 
ATOM     14  C   UNL d   1      61.610  49.581  52.181  0.00  0.00     0.096 A 
ATOM     15  C   UNL d   1      62.049  49.551  51.482  0.00  0.00     0.024 A 
ATOM     16  C   UNL d   1      61.664  49.573  50.747  0.00  0.00     0.004 A 
ATOM     17  C   UNL d   1      60.844  49.625  50.727  0.00  0.00     0.025 A 
BRANCH  14  18
ATOM     18  O   UNL d   1      61.992  49.559  52.910  0.00  0.00    -0.328 OA
ATOM     19  C   UNL d   1      61.561  49.701  53.603  0.00  0.00     0.181 C 
ENDBRANCH  14  18
ENDBRANCH  11  12
ENDBRANCH   1  11
TORSDOF 4
ENDMDL
