MODEL 1
REMARK VINA RESULT:      -8.8      0.000      0.000
REMARK  4 active torsions:
REMARK  status: ('A' for Active; 'I' for Inactive)
REMARK    1  A    between atoms: C_4  and  C_1 
REMARK    2  A    between atoms: C_9  and  N_2 
REMARK    3  A    between atoms: C_10  and  N_3 
REMARK    4  A    between atoms: O_15  and  C_12 
ROOT
ATOM      1  C   UNL d   1      52.888  31.949  53.525  0.00  0.00     0.133 A 
ATOM      2  N   UNL d   1      52.294  32.386  53.175  0.00  0.00    -0.290 N 
ATOM      3  N   UNL d   1      52.698  31.156  53.443  0.00  0.00    -0.290 N 
ATOM      4  C   UNL d   1      51.978  31.114  53.037  0.00  0.00     0.101 A 
ATOM      5  C   UNL d   1      51.746  31.847  52.882  0.00  0.00     0.101 A 
ENDROOT
BRANCH   1   6
ATOM      6  C   UNL d   1      53.515  32.366  53.866  0.00  0.00     0.036 A 
ATOM      7  C   UNL d   1      54.193  32.535  53.406  0.00  0.00     0.047 A 
ATOM      8  C   UNL d   1      54.819  32.951  53.747  0.00  0.00     0.218 A 
ATOM      9  O   UNL d   1      55.499  33.121  53.286  0.00  0.00    -0.284 OA
ATOM     10  C   UNL d   1      54.770  33.193  54.533  0.00  0.00     0.133 A 
ATOM     11  C   UNL d   1      54.101  33.023  54.981  0.00  0.00     0.028 A 
ATOM     12  C   UNL d   1      53.477  32.610  54.642  0.00  0.00     0.005 A 
BRANCH  10  13
ATOM     13  O   UNL d   1      55.407  33.617  54.884  0.00  0.00    -0.325 OA
ATOM     14  C   UNL d   1      55.278  34.041  55.579  0.00  0.00     0.181 C 
ENDBRANCH  10  13
ENDBRANCH   1   6
BRANCH   2  15
ATOM     15  C   UNL d   1      52.026  33.160  52.999  0.00  0.00     0.066 A 
ATOM     16  C   UNL d   1      52.247  33.523  52.299  0.00  0.00     0.018 A 
ATOM     17  C   UNL d   1      51.996  34.277  52.108  0.00  0.00     0.002 A 
ATOM     18  C   UNL d   1      51.502  34.694  52.634  0.00  0.00     0.000 A 
ATOM     19  C   UNL d   1      51.270  34.331  53.351  0.00  0.00     0.002 A 
ATOM     20  C   UNL d   1      51.537  33.559  53.529  0.00  0.00     0.018 A 
ENDBRANCH   2  15
BRANCH   3  21
ATOM     21  C   UNL d   1      53.051  30.446  53.665  0.00  0.00     0.066 A 
ATOM     22  C   UNL d   1      53.594  30.066  53.170  0.00  0.00     0.018 A 
ATOM     23  C   UNL d   1      53.939  29.373  53.387  0.00  0.00     0.002 A 
ATOM     24  C   UNL d   1      53.760  29.012  54.121  0.00  0.00     0.000 A 
ATOM     25  C   UNL d   1      53.214  29.394  54.618  0.00  0.00     0.002 A 
ATOM     26  C   UNL d   1      52.862  30.104  54.394  0.00  0.00     0.018 A 
ENDBRANCH   3  21
TORSDOF 4
ENDMDL
MODEL 2
REMARK VINA RESULT:      -8.5      0.197      3.319
REMARK  4 active torsions:
REMARK  status: ('A' for Active; 'I' for Inactive)
REMARK    1  A    between atoms: C_4  and  C_1 
REMARK    2  A    between atoms: C_9  and  N_2 
REMARK    3  A    between atoms: C_10  and  N_3 
REMARK    4  A    between atoms: O_15  and  C_12 
ROOT
ATOM      1  C   UNL d   1      52.724  32.128  53.452  0.00  0.00     0.133 A 
ATOM      2  N   UNL d   1      52.676  31.313  53.431  0.00  0.00    -0.290 N 
ATOM      3  N   UNL d   1      52.054  32.428  53.087  0.00  0.00    -0.290 N 
ATOM      4  C   UNL d   1      51.594  31.786  52.842  0.00  0.00     0.101 A 
ATOM      5  C   UNL d   1      51.970  31.129  53.050  0.00  0.00     0.101 A 
ENDROOT
BRANCH   1   6
ATOM      6  C   UNL d   1      53.391  32.459  53.810  0.00  0.00     0.036 A 
ATOM      7  C   UNL d   1      54.069  32.616  53.347  0.00  0.00     0.047 A 
ATOM      8  C   UNL d   1      54.735  32.947  53.705  0.00  0.00     0.218 A 
ATOM      9  O   UNL d   1      55.417  33.104  53.241  0.00  0.00    -0.284 OA
ATOM     10  C   UNL d   1      54.724  33.119  54.511  0.00  0.00     0.133 A 
ATOM     11  C   UNL d   1      54.054  32.963  54.962  0.00  0.00     0.028 A 
ATOM     12  C   UNL d   1      53.391  32.633  54.606  0.00  0.00     0.005 A 
BRANCH  10  13
ATOM     13  O   UNL d   1      55.402  33.456  54.879  0.00  0.00    -0.325 OA
ATOM     14  C   UNL d   1      55.303  33.967  55.519  0.00  0.00     0.181 C 
ENDBRANCH  10  13
ENDBRANCH   1   6
BRANCH   2  15
ATOM     15  C   UNL d   1      53.057  30.598  53.642  0.00  0.00     0.066 A 
ATOM     16  C   UNL d   1      52.906  30.249  54.367  0.00  0.00     0.018 A 
ATOM     17  C   UNL d   1      53.268  29.552  54.592  0.00  0.00     0.002 A 
ATOM     18  C   UNL d   1      53.806  29.180  54.076  0.00  0.00     0.000 A 
ATOM     19  C   UNL d   1      53.968  29.529  53.333  0.00  0.00     0.002 A 
ATOM     20  C   UNL d   1      53.588  30.243  53.120  0.00  0.00     0.018 A 
ENDBRANCH   2  15
BRANCH   3  21
ATOM     21  C   UNL d   1      51.767  33.184  52.927  0.00  0.00     0.066 A 
ATOM     22  C   UNL d   1      52.006  33.597  52.251  0.00  0.00     0.018 A 
ATOM     23  C   UNL d   1      51.726  34.334  52.095  0.00  0.00     0.002 A 
ATOM     24  C   UNL d   1      51.184  34.709  52.611  0.00  0.00     0.000 A 
ATOM     25  C   UNL d   1      50.944  34.294  53.289  0.00  0.00     0.002 A 
ATOM     26  C   UNL d   1      51.232  33.539  53.448  0.00  0.00     0.018 A 
ENDBRANCH   3  21
TORSDOF 4
ENDMDL
MODEL 3
REMARK VINA RESULT:      -8.3      1.508      3.904
REMARK  4 active torsions:
REMARK  status: ('A' for Active; 'I' for Inactive)
REMARK    1  A    between atoms: C_4  and  C_1 
REMARK    2  A    between atoms: C_9  and  N_2 
REMARK    3  A    between atoms: C_10  and  N_3 
REMARK    4  A    between atoms: O_15  and  C_12 
ROOT
ATOM      1  C   UNL d   1      52.526  33.557  53.449  0.00  0.00     0.133 A 
ATOM      2  N   UNL d   1      53.132  33.895  53.880  0.00  0.00    -0.290 N 
ATOM      3  N   UNL d   1      52.042  34.161  53.181  0.00  0.00    -0.290 N 
ATOM      4  C   UNL d   1      52.359  34.875  53.453  0.00  0.00     0.101 A 
ATOM      5  C   UNL d   1      53.005  34.708  53.867  0.00  0.00     0.101 A 
ENDROOT
BRANCH   1   6
ATOM      6  C   UNL d   1      52.525  32.734  53.377  0.00  0.00     0.036 A 
ATOM      7  C   UNL d   1      52.918  32.379  52.729  0.00  0.00     0.047 A 
ATOM      8  C   UNL d   1      52.917  31.557  52.657  0.00  0.00     0.218 A 
ATOM      9  O   UNL d   1      53.312  31.201  52.007  0.00  0.00    -0.284 OA
ATOM     10  C   UNL d   1      52.531  31.097  53.220  0.00  0.00     0.133 A 
ATOM     11  C   UNL d   1      52.146  31.451  53.856  0.00  0.00     0.028 A 
ATOM     12  C   UNL d   1      52.147  32.269  53.928  0.00  0.00     0.005 A 
BRANCH  10  13
ATOM     13  O   UNL d   1      52.529  30.258  53.149  0.00  0.00    -0.325 OA
ATOM     14  C   UNL d   1      52.805  29.797  53.774  0.00  0.00     0.181 C 
ENDBRANCH  10  13
ENDBRANCH   1   6
BRANCH   2  15
ATOM     15  C   UNL d   1      53.824  33.742  54.325  0.00  0.00     0.066 A 
ATOM     16  C   UNL d   1      54.555  33.721  53.956  0.00  0.00     0.018 A 
ATOM     17  C   UNL d   1      55.242  33.573  54.373  0.00  0.00     0.002 A 
ATOM     18  C   UNL d   1      55.207  33.439  55.194  0.00  0.00     0.000 A 
ATOM     19  C   UNL d   1      54.465  33.458  55.581  0.00  0.00     0.002 A 
ATOM     20  C   UNL d   1      53.773  33.611  55.137  0.00  0.00     0.018 A 
ENDBRANCH   2  15
BRANCH   3  21
ATOM     21  C   UNL d   1      51.354  34.200  52.728  0.00  0.00     0.066 A 
ATOM     22  C   UNL d   1      51.387  34.223  51.902  0.00  0.00     0.018 A 
ATOM     23  C   UNL d   1      50.716  34.261  51.461  0.00  0.00     0.002 A 
ATOM     24  C   UNL d   1      49.961  34.277  51.822  0.00  0.00     0.000 A 
ATOM     25  C   UNL d   1      49.928  34.253  52.652  0.00  0.00     0.002 A 
ATOM     26  C   UNL d   1      50.617  34.215  53.102  0.00  0.00     0.018 A 
ENDBRANCH   3  21
TORSDOF 4
ENDMDL
MODEL 4
REMARK VINA RESULT:      -8.0      1.532      3.187
REMARK  4 active torsions:
REMARK  status: ('A' for Active; 'I' for Inactive)
REMARK    1  A    between atoms: C_4  and  C_1 
REMARK    2  A    between atoms: C_9  and  N_2 
REMARK    3  A    between atoms: C_10  and  N_3 
REMARK    4  A    between atoms: O_15  and  C_12 
ROOT
ATOM      1  C   UNL d   1      52.707  33.599  53.593  0.00  0.00     0.133 A 
ATOM      2  N   UNL d   1      52.159  34.106  53.263  0.00  0.00    -0.290 N 
ATOM      3  N   UNL d   1      53.245  34.051  54.014  0.00  0.00    -0.290 N 
ATOM      4  C   UNL d   1      53.020  34.844  53.937  0.00  0.00     0.101 A 
ATOM      5  C   UNL d   1      52.375  34.867  53.490  0.00  0.00     0.101 A 
ENDROOT
BRANCH   1   6
ATOM      6  C   UNL d   1      52.613  32.791  53.447  0.00  0.00     0.036 A 
ATOM      7  C   UNL d   1      53.044  32.435  52.825  0.00  0.00     0.047 A 
ATOM      8  C   UNL d   1      52.950  31.629  52.679  0.00  0.00     0.218 A 
ATOM      9  O   UNL d   1      53.383  31.271  52.054  0.00  0.00    -0.284 OA
ATOM     10  C   UNL d   1      52.436  31.185  53.144  0.00  0.00     0.133 A 
ATOM     11  C   UNL d   1      52.014  31.540  53.755  0.00  0.00     0.028 A 
ATOM     12  C   UNL d   1      52.107  32.343  53.901  0.00  0.00     0.005 A 
BRANCH  10  13
ATOM     13  O   UNL d   1      52.338  30.362  52.997  0.00  0.00    -0.325 OA
ATOM     14  C   UNL d   1      52.525  29.819  53.590  0.00  0.00     0.181 C 
ENDBRANCH  10  13
ENDBRANCH   1   6
BRANCH   2  15
ATOM     15  C   UNL d   1      51.471  34.157  52.789  0.00  0.00     0.066 A 
ATOM     16  C   UNL d   1      50.730  34.157  53.137  0.00  0.00     0.018 A 
ATOM     17  C   UNL d   1      50.046  34.206  52.692  0.00  0.00     0.002 A 
ATOM     18  C   UNL d   1      50.095  34.256  51.862  0.00  0.00     0.000 A 
ATOM     19  C   UNL d   1      50.848  34.257  51.496  0.00  0.00     0.002 A 
ATOM     20  C   UNL d   1      51.537  34.206  51.969  0.00  0.00     0.018 A 
ENDBRANCH   2  15
BRANCH   3  21
ATOM     21  C   UNL d   1      53.916  33.889  54.465  0.00  0.00     0.066 A 
ATOM     22  C   UNL d   1      54.667  33.867  54.119  0.00  0.00     0.018 A 
ATOM     23  C   UNL d   1      55.322  33.709  54.559  0.00  0.00     0.002 A 
ATOM     24  C   UNL d   1      55.265  33.562  55.382  0.00  0.00     0.000 A 
ATOM     25  C   UNL d   1      54.510  33.585  55.728  0.00  0.00     0.002 A 
ATOM     26  C   UNL d   1      53.841  33.747  55.276  0.00  0.00     0.018 A 
ENDBRANCH   3  21
TORSDOF 4
ENDMDL
MODEL 5
REMARK VINA RESULT:      -7.3      1.980      3.066
REMARK  4 active torsions:
REMARK  status: ('A' for Active; 'I' for Inactive)
REMARK    1  A    between atoms: C_4  and  C_1 
REMARK    2  A    between atoms: C_9  and  N_2 
REMARK    3  A    between atoms: C_10  and  N_3 
REMARK    4  A    between atoms: O_15  and  C_12 
ROOT
ATOM      1  C   UNL d   1      52.864  33.003  53.690  0.00  0.00     0.133 A 
ATOM      2  N   UNL d   1      53.277  33.572  54.105  0.00  0.00    -0.290 N 
ATOM      3  N   UNL d   1      53.273  32.296  53.761  0.00  0.00    -0.290 N 
ATOM      4  C   UNL d   1      53.942  32.440  54.226  0.00  0.00     0.101 A 
ATOM      5  C   UNL d   1      53.936  33.199  54.426  0.00  0.00     0.101 A 
ENDROOT
BRANCH   1   6
ATOM      6  C   UNL d   1      52.169  33.239  53.310  0.00  0.00     0.036 A 
ATOM      7  C   UNL d   1      52.211  33.543  52.532  0.00  0.00     0.047 A 
ATOM      8  C   UNL d   1      51.517  33.779  52.153  0.00  0.00     0.218 A 
ATOM      9  O   UNL d   1      51.559  34.085  51.372  0.00  0.00    -0.284 OA
ATOM     10  C   UNL d   1      50.795  33.712  52.542  0.00  0.00     0.133 A 
ATOM     11  C   UNL d   1      50.759  33.411  53.308  0.00  0.00     0.028 A 
ATOM     12  C   UNL d   1      51.450  33.177  53.686  0.00  0.00     0.005 A 
BRANCH  10  13
ATOM     13  O   UNL d   1      50.085  33.951  52.158  0.00  0.00    -0.325 OA
ATOM     14  C   UNL d   1      49.565  34.459  52.546  0.00  0.00     0.181 C 
ENDBRANCH  10  13
ENDBRANCH   1   6
BRANCH   2  15
ATOM     15  C   UNL d   1      53.292  34.378  54.331  0.00  0.00     0.066 A 
ATOM     16  C   UNL d   1      52.939  34.617  55.031  0.00  0.00     0.018 A 
ATOM     17  C   UNL d   1      52.943  35.399  55.269  0.00  0.00     0.002 A 
ATOM     18  C   UNL d   1      53.314  35.974  54.795  0.00  0.00     0.000 A 
ATOM     19  C   UNL d   1      53.678  35.740  54.078  0.00  0.00     0.002 A 
ATOM     20  C   UNL d   1      53.663  34.935  53.851  0.00  0.00     0.018 A 
ENDBRANCH   2  15
BRANCH   3  21
ATOM     21  C   UNL d   1      53.161  31.528  53.483  0.00  0.00     0.066 A 
ATOM     22  C   UNL d   1      53.421  31.304  52.731  0.00  0.00     0.018 A 
ATOM     23  C   UNL d   1      53.312  30.555  52.460  0.00  0.00     0.002 A 
ATOM     24  C   UNL d   1      52.932  29.976  52.931  0.00  0.00     0.000 A 
ATOM     25  C   UNL d   1      52.672  30.201  53.687  0.00  0.00     0.002 A 
ATOM     26  C   UNL d   1      52.785  30.969  53.962  0.00  0.00     0.018 A 
ENDBRANCH   3  21
TORSDOF 4
ENDMDL
MODEL 6
REMARK VINA RESULT:      -6.3      2.063      4.227
REMARK  4 active torsions:
REMARK  status: ('A' for Active; 'I' for Inactive)
REMARK    1  A    between atoms: C_4  and  C_1 
REMARK    2  A    between atoms: C_9  and  N_2 
REMARK    3  A    between atoms: C_10  and  N_3 
REMARK    4  A    between atoms: O_15  and  C_12 
ROOT
ATOM      1  C   UNL d   1      52.749  33.330  53.695  0.00  0.00     0.133 A 
ATOM      2  N   UNL d   1      53.033  32.565  53.677  0.00  0.00    -0.290 N 
ATOM      3  N   UNL d   1      53.259  33.776  54.156  0.00  0.00    -0.290 N 
ATOM      4  C   UNL d   1      53.860  33.273  54.422  0.00  0.00     0.101 A 
ATOM      5  C   UNL d   1      53.718  32.557  54.134  0.00  0.00     0.101 A 
ENDROOT
BRANCH   1   6
ATOM      6  C   UNL d   1      52.056  33.487  53.273  0.00  0.00     0.036 A 
ATOM      7  C   UNL d   1      52.109  33.755  52.483  0.00  0.00     0.047 A 
ATOM      8  C   UNL d   1      51.417  33.912  52.062  0.00  0.00     0.218 A 
ATOM      9  O   UNL d   1      51.470  34.181  51.268  0.00  0.00    -0.284 OA
ATOM     10  C   UNL d   1      50.685  33.804  52.423  0.00  0.00     0.133 A 
ATOM     11  C   UNL d   1      50.638  33.541  53.201  0.00  0.00     0.028 A 
ATOM     12  C   UNL d   1      51.327  33.384  53.621  0.00  0.00     0.005 A 
BRANCH  10  13
ATOM     13  O   UNL d   1      49.977  33.964  51.996  0.00  0.00    -0.325 OA
ATOM     14  C   UNL d   1      49.403  34.453  52.331  0.00  0.00     0.181 C 
ENDBRANCH  10  13
ENDBRANCH   1   6
BRANCH   2  15
ATOM     15  C   UNL d   1      52.904  31.793  53.381  0.00  0.00     0.066 A 
ATOM     16  C   UNL d   1      53.277  31.547  52.695  0.00  0.00     0.018 A 
ATOM     17  C   UNL d   1      53.163  30.797  52.389  0.00  0.00     0.002 A 
ATOM     18  C   UNL d   1      52.657  30.263  52.780  0.00  0.00     0.000 A 
ATOM     19  C   UNL d   1      52.271  30.505  53.482  0.00  0.00     0.002 A 
ATOM     20  C   UNL d   1      52.399  31.277  53.780  0.00  0.00     0.018 A 
ENDBRANCH   2  15
BRANCH   3  21
ATOM     21  C   UNL d   1      53.292  34.566  54.392  0.00  0.00     0.066 A 
ATOM     22  C   UNL d   1      53.598  35.148  53.891  0.00  0.00     0.018 A 
ATOM     23  C   UNL d   1      53.630  35.918  54.122  0.00  0.00     0.002 A 
ATOM     24  C   UNL d   1      53.355  36.156  54.876  0.00  0.00     0.000 A 
ATOM     25  C   UNL d   1      53.048  35.570  55.378  0.00  0.00     0.002 A 
ATOM     26  C   UNL d   1      53.016  34.782  55.141  0.00  0.00     0.018 A 
ENDBRANCH   3  21
TORSDOF 4
ENDMDL
