MODEL 1
REMARK VINA RESULT:      64.5      0.000      0.000
REMARK  5 active torsions:
REMARK  status: ('A' for Active; 'I' for Inactive)
REMARK    1  A    between atoms: N_9  and  C_2 
REMARK    2  A    between atoms: N_11  and  C_6 
REMARK    3  A    between atoms: C_16  and  N_11 
REMARK    4  A    between atoms: C_15  and  N_12 
REMARK    5  A    between atoms: C_24  and  C_15 
ROOT
ATOM      1  N   UNL d   1      13.549  13.873  -4.753  0.00  0.00    -0.041 NA
ATOM      2  C   UNL d   1      13.701  14.480  -4.283  0.00  0.00     0.738 A 
ATOM      3  C   UNL d   1      13.355  13.181  -4.445  0.00  0.00     0.187 A 
ATOM      4  N   UNL d   1      13.658  14.394  -3.501  0.00  0.00    -0.041 NA
ATOM      5  C   UNL d   1      13.311  13.091  -3.663  0.00  0.00     0.094 A 
ATOM      6  C   UNL d   1      13.463  13.701  -3.185  0.00  0.00     0.185 A 
ATOM      7  N   UNL d   1      13.005  11.867  -4.609  0.00  0.00    -0.162 NA
ATOM      8  N   UNL d   1      13.203  12.571  -4.923  0.00  0.00    -0.208 N 
ATOM      9  C   UNL d   1      12.962  11.780  -3.827  0.00  0.00     0.127 A 
ATOM     10  C   UNL d   1      13.245  12.657  -5.701  0.00  0.00     0.123 C 
ENDROOT
BRANCH   2  11
ATOM     11  N   UNL d   1      13.908  15.216  -4.605  0.00  0.00    -0.134 N 
ATOM     12  C   UNL d   1      13.776  15.365  -5.413  0.00  0.00     0.117 A 
ATOM     13  C   UNL d   1      13.984  16.105  -5.739  0.00  0.00     0.100 A 
ATOM     14  N   UNL d   1      14.316  16.684  -5.262  0.00  0.00    -0.300 N 
ATOM     15  C   UNL d   1      14.448  16.535  -4.455  0.00  0.00     0.100 A 
ATOM     16  C   UNL d   1      14.246  15.809  -4.128  0.00  0.00     0.117 A 
BRANCH  14  17
ATOM     17  C   UNL d   1      14.525  17.422  -5.577  0.00  0.00     0.080 C 
BRANCH  17  18
ATOM     18  C   UNL d   1      14.318  18.198  -5.767  0.00  0.00     0.018 A 
ATOM     19  C   UNL d   1      14.805  18.830  -5.534  0.00  0.00     0.002 A 
ATOM     20  C   UNL d   1      14.592  19.596  -5.726  0.00  0.00     0.000 A 
ATOM     21  C   UNL d   1      13.899  19.754  -6.149  0.00  0.00     0.000 A 
ATOM     22  C   UNL d   1      13.412  19.122  -6.382  0.00  0.00     0.000 A 
ATOM     23  C   UNL d   1      13.625  18.341  -6.189  0.00  0.00     0.002 A 
ENDBRANCH  17  18
ENDBRANCH  14  17
ENDBRANCH   2  11
BRANCH   6  24
ATOM     24  N   UNL d   1      13.421  13.619  -2.371  0.00  0.00    -0.226 NA
BRANCH  24  25
ATOM     25  C   UNL d   1      13.970  13.159  -1.971  0.00  0.00     0.083 A 
ATOM     26  C   UNL d   1      14.672  13.494  -1.703  0.00  0.00     0.021 A 
ATOM     27  C   UNL d   1      15.231  13.030  -1.297  0.00  0.00     0.031 A 
ATOM     28  C   UNL d   1      15.085  12.233  -1.160  0.00  0.00     0.140 A 
ATOM     29  C   UNL d   1      14.378  11.887  -1.428  0.00  0.00     0.031 A 
ATOM     30  F   UNL d   1      15.640  11.780  -0.759  0.00  0.00    -0.204 F 
ATOM     31  C   UNL d   1      13.828  12.351  -1.830  0.00  0.00     0.021 A 
ENDBRANCH  24  25
ENDBRANCH   6  24
TORSDOF 5
ENDMDL
MODEL 2
REMARK VINA RESULT:      65.0      1.590      2.997
REMARK  5 active torsions:
REMARK  status: ('A' for Active; 'I' for Inactive)
REMARK    1  A    between atoms: N_9  and  C_2 
REMARK    2  A    between atoms: N_11  and  C_6 
REMARK    3  A    between atoms: C_16  and  N_11 
REMARK    4  A    between atoms: C_15  and  N_12 
REMARK    5  A    between atoms: C_24  and  C_15 
ROOT
ATOM      1  N   UNL d   1      14.822  14.101  -1.546  0.00  0.00    -0.041 NA
ATOM      2  C   UNL d   1      14.497  14.184  -2.253  0.00  0.00     0.738 A 
ATOM      3  C   UNL d   1      14.736  13.428  -1.155  0.00  0.00     0.187 A 
ATOM      4  N   UNL d   1      14.085  13.593  -2.571  0.00  0.00    -0.041 NA
ATOM      5  C   UNL d   1      14.324  12.834  -1.470  0.00  0.00     0.094 A 
ATOM      6  C   UNL d   1      13.995  12.915  -2.183  0.00  0.00     0.185 A 
ATOM      7  N   UNL d   1      14.977  12.663  -0.045  0.00  0.00    -0.162 NA
ATOM      8  N   UNL d   1      15.065  13.348  -0.442  0.00  0.00    -0.208 N 
ATOM      9  C   UNL d   1      14.565  12.071  -0.363  0.00  0.00     0.127 A 
ATOM     10  C   UNL d   1      15.475  13.936  -0.125  0.00  0.00     0.123 C 
ENDROOT
BRANCH   2  11
ATOM     11  N   UNL d   1      14.586  14.896  -2.671  0.00  0.00    -0.134 N 
ATOM     12  C   UNL d   1      14.382  14.930  -3.476  0.00  0.00     0.117 A 
ATOM     13  C   UNL d   1      14.470  15.645  -3.898  0.00  0.00     0.100 A 
ATOM     14  N   UNL d   1      14.757  16.312  -3.517  0.00  0.00    -0.300 N 
ATOM     15  C   UNL d   1      14.961  16.279  -2.712  0.00  0.00     0.100 A 
ATOM     16  C   UNL d   1      14.877  15.578  -2.291  0.00  0.00     0.117 A 
BRANCH  14  17
ATOM     17  C   UNL d   1      14.849  17.027  -3.928  0.00  0.00     0.080 C 
BRANCH  17  18
ATOM     18  C   UNL d   1      14.699  17.486  -4.597  0.00  0.00     0.018 A 
ATOM     19  C   UNL d   1      14.449  17.127  -5.304  0.00  0.00     0.002 A 
ATOM     20  C   UNL d   1      14.302  17.591  -5.962  0.00  0.00     0.000 A 
ATOM     21  C   UNL d   1      14.399  18.411  -5.938  0.00  0.00     0.000 A 
ATOM     22  C   UNL d   1      14.649  18.770  -5.231  0.00  0.00     0.000 A 
ATOM     23  C   UNL d   1      14.799  18.304  -4.559  0.00  0.00     0.002 A 
ENDBRANCH  17  18
ENDBRANCH  14  17
ENDBRANCH   2  11
BRANCH   6  24
ATOM     24  N   UNL d   1      13.565  12.304  -2.520  0.00  0.00    -0.226 NA
BRANCH  24  25
ATOM     25  C   UNL d   1      13.484  12.255  -3.335  0.00  0.00     0.083 A 
ATOM     26  C   UNL d   1      12.853  12.626  -3.711  0.00  0.00     0.021 A 
ATOM     27  C   UNL d   1      12.769  12.577  -4.537  0.00  0.00     0.031 A 
ATOM     28  C   UNL d   1      13.315  12.157  -4.985  0.00  0.00     0.140 A 
ATOM     29  C   UNL d   1      13.955  11.779  -4.613  0.00  0.00     0.031 A 
ATOM     30  F   UNL d   1      13.226  12.112  -5.800  0.00  0.00    -0.204 F 
ATOM     31  C   UNL d   1      14.034  11.831  -3.793  0.00  0.00     0.021 A 
ENDBRANCH  24  25
ENDBRANCH   6  24
TORSDOF 5
ENDMDL
