MODEL 1
REMARK VINA RESULT:      52.6      0.000      0.000
REMARK  4 active torsions:
REMARK  status: ('A' for Active; 'I' for Inactive)
REMARK    1  A    between atoms: S_10  and  C_6 
REMARK    2  A    between atoms: C_16  and  S_10 
REMARK    3  A    between atoms: C_11  and  C_16 
REMARK       I    between atoms: N_13  and  C_11 
REMARK    4  A    between atoms: C_14  and  N_13 
ROOT
ATOM      1  C   UNL d   1      13.664  12.352  -2.503  0.00  0.00     0.155 A 
ATOM      2  C   UNL d   1      14.198  12.946  -2.284  0.00  0.00     0.107 A 
ATOM      3  N   UNL d   1      13.481  12.988  -3.771  0.00  0.00    -0.250 N 
ATOM      4  C   UNL d   1      13.307  12.373  -3.243  0.00  0.00     0.285 A 
ATOM      5  N   UNL d   1      14.373  13.563  -2.813  0.00  0.00    -0.220 NA
ATOM      6  C   UNL d   1      14.010  13.575  -3.552  0.00  0.00     0.182 A 
ATOM      7  N   UNL d   1      13.600  11.820  -1.876  0.00  0.00    -0.239 NA
ATOM      8  C   UNL d   1      14.467  12.787  -1.521  0.00  0.00     0.037 A 
ATOM      9  C   UNL d   1      14.096  12.086  -1.265  0.00  0.00     0.083 A 
ATOM     10  O   UNL d   1      12.770  11.779  -3.470  0.00  0.00    -0.265 OA
ATOM     11  C   UNL d   1      13.122  13.010  -4.519  0.00  0.00     0.104 C 
ATOM     12  C   UNL d   1      14.995  13.178  -1.025  0.00  0.00     0.003 A 
ATOM     13  C   UNL d   1      14.258  11.781  -0.510  0.00  0.00     0.019 A 
ATOM     14  C   UNL d   1      15.157  12.874  -0.271  0.00  0.00     0.000 A 
ATOM     15  C   UNL d   1      14.790  12.181  -0.017  0.00  0.00     0.002 A 
ENDROOT
BRANCH   6  16
ATOM     16  S   UNL d   1      14.182  14.188  -4.081  0.00  0.00    -0.044 SA
BRANCH  16  17
ATOM     17  C   UNL d   1      13.829  14.929  -3.990  0.00  0.00     0.101 C 
BRANCH  17  18
ATOM     18  C   UNL d   1      14.259  15.555  -3.670  0.00  0.00     0.286 C 
ATOM     19  N   UNL d   1      14.226  15.694  -2.863  0.00  0.00    -0.208 NA
ATOM     20  O   UNL d   1      14.718  16.040  -4.147  0.00  0.00    -0.265 OA
BRANCH  19  21
ATOM     21  C   UNL d   1      14.657  16.324  -2.535  0.00  0.00     0.085 A 
ATOM     22  C   UNL d   1      14.825  16.326  -1.737  0.00  0.00     0.019 A 
ATOM     23  C   UNL d   1      15.256  16.955  -1.409  0.00  0.00     0.002 A 
ATOM     24  C   UNL d   1      15.436  16.968  -0.588  0.00  0.00     0.000 C 
ATOM     25  C   UNL d   1      15.511  17.572  -1.888  0.00  0.00     0.000 A 
ATOM     26  C   UNL d   1      15.338  17.567  -2.700  0.00  0.00     0.002 A 
ATOM     27  C   UNL d   1      14.911  16.941  -3.015  0.00  0.00     0.019 A 
ENDBRANCH  19  21
ENDBRANCH  17  18
ENDBRANCH  16  17
ENDBRANCH   6  16
TORSDOF 4
ENDMDL
