MODEL 1
REMARK VINA RESULT:      17.1      0.000      0.000
REMARK  4 active torsions:
REMARK  status: ('A' for Active; 'I' for Inactive)
REMARK    1  A    between atoms: S_2  and  C_1 
REMARK    2  A    between atoms: C_10  and  S_2 
REMARK    3  A    between atoms: N_7  and  C_4 
REMARK    4  A    between atoms: C_8  and  N_7 
ROOT
ATOM      1  C   UNL d   1      45.846 -15.993  44.418  0.00  0.00     0.187 A 
ATOM      2  N   UNL d   1      46.289 -15.297  44.367  0.00  0.00    -0.208 NA
ATOM      3  C   UNL d   1      45.849 -14.693  44.697  0.00  0.00     0.198 A 
ATOM      4  C   UNL d   1      45.131 -15.811  44.780  0.00  0.00     0.118 A 
ATOM      5  S   UNL d   1      45.135 -15.006  44.952  0.00  0.00    -0.035 SA
ATOM      6 CL   UNL d   1      44.506 -16.348  44.948  0.00  0.00    -0.073 Cl
ENDROOT
BRANCH   1   7
ATOM      7  S   UNL d   1      46.003 -16.767  44.180  0.00  0.00     0.228 S 
ATOM      8  O   UNL d   1      45.894 -17.028  44.955  0.00  0.00    -0.216 OA
ATOM      9  O   UNL d   1      46.113 -16.507  43.405  0.00  0.00    -0.216 OA
BRANCH   7  10
ATOM     10  C   UNL d   1      46.160 -17.541  43.942  0.00  0.00     0.089 A 
ATOM     11  C   UNL d   1      46.206 -17.724  43.133  0.00  0.00     0.011 A 
ATOM     12  C   UNL d   1      46.364 -18.506  42.893  0.00  0.00     0.001 A 
ATOM     13  C   UNL d   1      46.476 -19.098  43.464  0.00  0.00     0.000 A 
ATOM     14  C   UNL d   1      46.430 -18.914  44.265  0.00  0.00     0.001 A 
ATOM     15  C   UNL d   1      46.633 -19.872  43.226  0.00  0.00     0.000 C 
ATOM     16  C   UNL d   1      46.272 -18.132  44.505  0.00  0.00     0.011 A 
ENDBRANCH   7  10
ENDBRANCH   1   7
BRANCH   3  17
ATOM     17  N   UNL d   1      46.093 -13.903  44.756  0.00  0.00    -0.196 NA
BRANCH  17  18
ATOM     18  C   UNL d   1      45.758 -13.333  44.266  0.00  0.00     0.196 A 
ATOM     19  N   UNL d   1      45.315 -13.393  43.572  0.00  0.00    -0.219 NA
ATOM     20  C   UNL d   1      45.129 -12.629  43.326  0.00  0.00     0.108 A 
ATOM     21  C   UNL d   1      45.452 -12.099  43.863  0.00  0.00     0.059 A 
ATOM     22  S   UNL d   1      45.840 -12.532  44.443  0.00  0.00    -0.046 SA
ENDBRANCH  17  18
ENDBRANCH   3  17
TORSDOF 4
ENDMDL
