MODEL 1
REMARK VINA RESULT:      43.5      0.000      0.000
REMARK  3 active torsions:
REMARK  status: ('A' for Active; 'I' for Inactive)
REMARK    1  A    between atoms: S_3  and  C_1 
REMARK    2  A    between atoms: C_7  and  N_2 
REMARK    3  A    between atoms: C_11  and  C_7 
ROOT
ATOM      1  C   UNL d   1     -51.331  24.166  33.765  0.00  0.00     0.255 A 
ATOM      2  N   UNL d   1     -51.613  24.877  34.029  0.00  0.00    -0.278 N 
ATOM      3  N   UNL d   1     -51.934  23.729  33.455  0.00  0.00    -0.215 NA
ATOM      4  C   UNL d   1     -52.435  24.894  33.879  0.00  0.00     0.084 A 
ATOM      5  C   UNL d   1     -52.636  24.178  33.521  0.00  0.00     0.100 A 
ATOM      6  C   UNL d   1     -53.017  25.461  34.022  0.00  0.00     0.019 A 
ATOM      7  C   UNL d   1     -53.418  24.029  33.306  0.00  0.00     0.021 A 
ATOM      8  C   UNL d   1     -53.800  25.312  33.806  0.00  0.00     0.002 A 
ATOM      9  C   UNL d   1     -54.000  24.597  33.448  0.00  0.00     0.002 A 
ENDROOT
BRANCH   2  10
ATOM     10  C   UNL d   1     -51.183  25.493  34.385  0.00  0.00     0.082 C 
BRANCH  10  11
ATOM     11  C   UNL d   1     -51.145  26.229  34.031  0.00  0.00     0.018 A 
ATOM     12  C   UNL d   1     -50.426  26.645  33.994  0.00  0.00     0.002 A 
ATOM     13  C   UNL d   1     -50.383  27.382  33.640  0.00  0.00     0.000 A 
ATOM     14  C   UNL d   1     -51.049  27.720  33.319  0.00  0.00     0.000 A 
ATOM     15  C   UNL d   1     -51.772  27.306  33.354  0.00  0.00     0.000 A 
ATOM     16  C   UNL d   1     -51.811  26.569  33.708  0.00  0.00     0.002 A 
ENDBRANCH  10  11
ENDBRANCH   2  10
BRANCH   1  17
ATOM     17  S   UNL d   1     -50.543  23.924  33.807  0.00  0.00     0.174 S 
ATOM     18  O   UNL d   1     -50.760  23.303  34.304  0.00  0.00    -0.589 OA
ATOM     19  O   UNL d   1     -49.755  23.683  33.849  0.00  0.00    -0.589 OA
ATOM     20  O   UNL d   1     -50.326  24.547  33.309  0.00  0.00    -0.589 OA
ENDBRANCH   1  17
TORSDOF 3
ENDMDL
MODEL 2
REMARK VINA RESULT:      43.9      1.507      2.399
REMARK  3 active torsions:
REMARK  status: ('A' for Active; 'I' for Inactive)
REMARK    1  A    between atoms: S_3  and  C_1 
REMARK    2  A    between atoms: C_7  and  N_2 
REMARK    3  A    between atoms: C_11  and  C_7 
ROOT
ATOM      1  C   UNL d   1     -52.414  24.193  33.679  0.00  0.00     0.255 A 
ATOM      2  N   UNL d   1     -51.994  24.816  33.980  0.00  0.00    -0.278 N 
ATOM      3  N   UNL d   1     -51.908  23.632  33.397  0.00  0.00    -0.215 NA
ATOM      4  C   UNL d   1     -51.182  24.643  33.885  0.00  0.00     0.084 A 
ATOM      5  C   UNL d   1     -51.128  23.904  33.521  0.00  0.00     0.100 A 
ATOM      6  C   UNL d   1     -50.496  25.058  34.080  0.00  0.00     0.019 A 
ATOM      7  C   UNL d   1     -50.388  23.580  33.352  0.00  0.00     0.021 A 
ATOM      8  C   UNL d   1     -49.756  24.733  33.911  0.00  0.00     0.002 A 
ATOM      9  C   UNL d   1     -49.702  23.995  33.548  0.00  0.00     0.002 A 
ENDROOT
BRANCH   2  10
ATOM     10  C   UNL d   1     -52.293  25.510  34.325  0.00  0.00     0.082 C 
BRANCH  10  11
ATOM     11  C   UNL d   1     -52.057  26.243  34.050  0.00  0.00     0.018 A 
ATOM     12  C   UNL d   1     -52.587  26.731  33.635  0.00  0.00     0.002 A 
ATOM     13  C   UNL d   1     -52.355  27.466  33.357  0.00  0.00     0.000 A 
ATOM     14  C   UNL d   1     -51.597  27.730  33.486  0.00  0.00     0.000 A 
ATOM     15  C   UNL d   1     -51.063  27.243  33.902  0.00  0.00     0.000 A 
ATOM     16  C   UNL d   1     -51.298  26.509  34.177  0.00  0.00     0.002 A 
ENDBRANCH  10  11
ENDBRANCH   2  10
BRANCH   1  17
ATOM     17  S   UNL d   1     -53.237  24.141  33.664  0.00  0.00     0.174 S 
ATOM     18  O   UNL d   1     -53.283  24.932  33.436  0.00  0.00    -0.589 OA
ATOM     19  O   UNL d   1     -54.060  24.088  33.649  0.00  0.00    -0.589 OA
ATOM     20  O   UNL d   1     -53.191  23.348  33.892  0.00  0.00    -0.589 OA
ENDBRANCH   1  17
TORSDOF 3
ENDMDL
MODEL 3
REMARK VINA RESULT:      46.0      1.670      2.979
REMARK  3 active torsions:
REMARK  status: ('A' for Active; 'I' for Inactive)
REMARK    1  A    between atoms: S_3  and  C_1 
REMARK    2  A    between atoms: C_7  and  N_2 
REMARK    3  A    between atoms: C_11  and  C_7 
ROOT
ATOM      1  C   UNL d   1     -50.162  26.059  33.669  0.00  0.00     0.255 A 
ATOM      2  N   UNL d   1     -50.878  25.682  33.639  0.00  0.00    -0.278 N 
ATOM      3  N   UNL d   1     -49.565  25.524  33.582  0.00  0.00    -0.215 NA
ATOM      4  C   UNL d   1     -50.729  24.867  33.526  0.00  0.00     0.084 A 
ATOM      5  C   UNL d   1     -49.911  24.768  33.491  0.00  0.00     0.100 A 
ATOM      6  C   UNL d   1     -51.227  24.214  33.453  0.00  0.00     0.019 A 
ATOM      7  C   UNL d   1     -49.590  24.016  33.383  0.00  0.00     0.021 A 
ATOM      8  C   UNL d   1     -50.906  23.461  33.344  0.00  0.00     0.002 A 
ATOM      9  C   UNL d   1     -50.088  23.362  33.309  0.00  0.00     0.002 A 
ENDROOT
BRANCH   2  10
ATOM     10  C   UNL d   1     -51.634  26.021  33.704  0.00  0.00     0.082 C 
BRANCH  10  11
ATOM     11  C   UNL d   1     -52.302  25.553  33.655  0.00  0.00     0.018 A 
ATOM     12  C   UNL d   1     -53.015  25.860  33.357  0.00  0.00     0.002 A 
ATOM     13  C   UNL d   1     -53.687  25.395  33.306  0.00  0.00     0.000 A 
ATOM     14  C   UNL d   1     -53.665  24.619  33.550  0.00  0.00     0.000 A 
ATOM     15  C   UNL d   1     -52.952  24.308  33.850  0.00  0.00     0.000 A 
ATOM     16  C   UNL d   1     -52.283  24.776  33.899  0.00  0.00     0.002 A 
ENDBRANCH  10  11
ENDBRANCH   2  10
BRANCH   1  17
ATOM     17  S   UNL d   1     -50.060  26.871  33.775  0.00  0.00     0.174 S 
ATOM     18  O   UNL d   1     -49.315  26.823  33.423  0.00  0.00    -0.589 OA
ATOM     19  O   UNL d   1     -49.957  27.683  33.880  0.00  0.00    -0.589 OA
ATOM     20  O   UNL d   1     -50.805  26.920  34.127  0.00  0.00    -0.589 OA
ENDBRANCH   1  17
TORSDOF 3
ENDMDL
