MODEL 1
REMARK VINA RESULT:      -8.9      0.000      0.000
REMARK  1 active torsions:
REMARK  status: ('A' for Active; 'I' for Inactive)
REMARK    1  A    between atoms: N_11  and  C_4 
ROOT
ATOM      1  N   UNL d   1     -48.766  13.689  22.982  0.00  0.00    -0.195 N 
ATOM      2  C   UNL d   1     -48.272  13.026  23.052  0.00  0.00     0.168 A 
ATOM      3  C   UNL d   1     -47.472  13.083  22.888  0.00  0.00     0.073 A 
ATOM      4  C   UNL d   1     -49.562  13.613  23.149  0.00  0.00     0.153 A 
ATOM      5  N   UNL d   1     -47.664  14.469  22.585  0.00  0.00    -0.143 NA
ATOM      6  C   UNL d   1     -47.170  13.806  22.655  0.00  0.00     0.185 A 
ATOM      7  N   UNL d   1     -48.587  12.305  23.287  0.00  0.00    -0.227 NA
ATOM      8  C   UNL d   1     -46.983  12.427  22.958  0.00  0.00     0.007 A 
ATOM      9  N   UNL d   1     -46.362  13.879  22.486  0.00  0.00    -0.225 NA
ATOM     10  C   UNL d   1     -49.879  12.902  23.383  0.00  0.00     0.057 A 
ATOM     11  C   UNL d   1     -46.184  12.484  22.794  0.00  0.00     0.019 A 
ATOM     12  C   UNL d   1     -49.385  12.239  23.453  0.00  0.00     0.086 A 
ATOM     13  C   UNL d   1     -45.868  13.216  22.556  0.00  0.00     0.083 A 
ATOM     14  C   UNL d   1     -47.301  11.703  23.194  0.00  0.00     0.000 C 
ATOM     15  C   UNL d   1     -49.716  11.491  23.698  0.00  0.00     0.021 C 
ATOM     16  C   UNL d   1     -45.073  13.280  22.392  0.00  0.00     0.021 C 
ENDROOT
BRANCH   4  17
ATOM     17  N   UNL d   1     -50.065  14.302  23.074  0.00  0.00    -0.285 N 
ATOM     18  C   UNL d   1     -50.548  14.403  22.369  0.00  0.00     0.108 A 
ATOM     19  C   UNL d   1     -51.045  15.086  22.299  0.00  0.00     0.142 A 
ATOM     20  O   UNL d   1     -51.064  15.667  22.922  0.00  0.00    -0.300 OA
ATOM     21  C   UNL d   1     -50.585  15.561  23.615  0.00  0.00     0.142 A 
ATOM     22  C   UNL d   1     -50.089  14.879  23.686  0.00  0.00     0.108 A 
ENDBRANCH   4  17
TORSDOF 1
ENDMDL
MODEL 2
REMARK VINA RESULT:      -8.1      1.001      1.359
REMARK  1 active torsions:
REMARK  status: ('A' for Active; 'I' for Inactive)
REMARK    1  A    between atoms: N_11  and  C_4 
ROOT
ATOM      1  N   UNL d   1     -48.226  13.102  23.128  0.00  0.00    -0.195 N 
ATOM      2  C   UNL d   1     -48.026  12.319  23.318  0.00  0.00     0.168 A 
ATOM      3  C   UNL d   1     -47.243  12.080  23.330  0.00  0.00     0.073 A 
ATOM      4  C   UNL d   1     -49.013  13.321  23.120  0.00  0.00     0.153 A 
ATOM      5  N   UNL d   1     -46.864  13.411  22.963  0.00  0.00    -0.143 NA
ATOM      6  C   UNL d   1     -46.663  12.628  23.153  0.00  0.00     0.185 A 
ATOM      7  N   UNL d   1     -48.617  11.777  23.494  0.00  0.00    -0.227 NA
ATOM      8  C   UNL d   1     -47.045  11.306  23.518  0.00  0.00     0.007 A 
ATOM      9  N   UNL d   1     -45.866  12.402  23.161  0.00  0.00    -0.225 NA
ATOM     10  C   UNL d   1     -49.602  12.789  23.294  0.00  0.00     0.057 A 
ATOM     11  C   UNL d   1     -46.263  11.067  23.531  0.00  0.00     0.019 A 
ATOM     12  C   UNL d   1     -49.402  12.006  23.484  0.00  0.00     0.086 A 
ATOM     13  C   UNL d   1     -45.665  11.619  23.351  0.00  0.00     0.083 A 
ATOM     14  C   UNL d   1     -47.640  10.763  23.695  0.00  0.00     0.000 C 
ATOM     15  C   UNL d   1     -50.020  11.446  23.667  0.00  0.00     0.021 C 
ATOM     16  C   UNL d   1     -44.885  11.388  23.362  0.00  0.00     0.021 C 
ENDROOT
BRANCH   4  17
ATOM     17  N   UNL d   1     -49.211  14.130  22.924  0.00  0.00    -0.285 N 
ATOM     18  C   UNL d   1     -49.294  14.714  23.551  0.00  0.00     0.108 A 
ATOM     19  C   UNL d   1     -49.490  15.514  23.353  0.00  0.00     0.142 A 
ATOM     20  O   UNL d   1     -49.605  15.738  22.538  0.00  0.00    -0.300 OA
ATOM     21  C   UNL d   1     -49.522  15.157  21.924  0.00  0.00     0.142 A 
ATOM     22  C   UNL d   1     -49.325  14.357  22.122  0.00  0.00     0.108 A 
ENDBRANCH   4  17
TORSDOF 1
ENDMDL
MODEL 3
REMARK VINA RESULT:      -7.7      1.581      3.800
REMARK  1 active torsions:
REMARK  status: ('A' for Active; 'I' for Inactive)
REMARK    1  A    between atoms: N_11  and  C_4 
ROOT
ATOM      1  N   UNL d   1     -48.339  13.391  23.041  0.00  0.00    -0.195 N 
ATOM      2  C   UNL d   1     -49.136  13.297  23.254  0.00  0.00     0.168 A 
ATOM      3  C   UNL d   1     -49.623  13.949  23.344  0.00  0.00     0.073 A 
ATOM      4  C   UNL d   1     -47.869  12.728  22.956  0.00  0.00     0.153 A 
ATOM      5  N   UNL d   1     -48.512  14.787  23.008  0.00  0.00    -0.143 NA
ATOM      6  C   UNL d   1     -49.308  14.693  23.220  0.00  0.00     0.185 A 
ATOM      7  N   UNL d   1     -49.440  12.544  23.376  0.00  0.00    -0.227 NA
ATOM      8  C   UNL d   1     -50.411  13.857  23.554  0.00  0.00     0.007 A 
ATOM      9  N   UNL d   1     -49.789  15.363  23.307  0.00  0.00    -0.225 NA
ATOM     10  C   UNL d   1     -48.165  11.981  23.076  0.00  0.00     0.057 A 
ATOM     11  C   UNL d   1     -50.897  14.507  23.644  0.00  0.00     0.019 A 
ATOM     12  C   UNL d   1     -48.962  11.888  23.288  0.00  0.00     0.086 A 
ATOM     13  C   UNL d   1     -50.585  15.269  23.520  0.00  0.00     0.083 A 
ATOM     14  C   UNL d   1     -50.716  13.099  23.676  0.00  0.00     0.000 C 
ATOM     15  C   UNL d   1     -49.275  11.103  23.414  0.00  0.00     0.021 C 
ATOM     16  C   UNL d   1     -51.064  15.922  23.608  0.00  0.00     0.021 C 
ENDROOT
BRANCH   4  17
ATOM     17  N   UNL d   1     -47.048  12.833  22.737  0.00  0.00    -0.285 N 
ATOM     18  C   UNL d   1     -46.439  12.834  23.346  0.00  0.00     0.108 A 
ATOM     19  C   UNL d   1     -45.628  12.938  23.125  0.00  0.00     0.142 A 
ATOM     20  O   UNL d   1     -45.418  13.042  22.306  0.00  0.00    -0.300 OA
ATOM     21  C   UNL d   1     -46.023  13.041  21.709  0.00  0.00     0.142 A 
ATOM     22  C   UNL d   1     -46.834  12.936  21.930  0.00  0.00     0.108 A 
ENDBRANCH   4  17
TORSDOF 1
ENDMDL
MODEL 4
REMARK VINA RESULT:      -6.6      1.259      2.281
REMARK  1 active torsions:
REMARK  status: ('A' for Active; 'I' for Inactive)
REMARK    1  A    between atoms: N_11  and  C_4 
ROOT
ATOM      1  N   UNL d   1     -48.059  12.798  23.112  0.00  0.00    -0.195 N 
ATOM      2  C   UNL d   1     -47.270  12.988  22.936  0.00  0.00     0.168 A 
ATOM      3  C   UNL d   1     -46.669  12.452  23.086  0.00  0.00     0.073 A 
ATOM      4  C   UNL d   1     -48.645  13.345  22.956  0.00  0.00     0.153 A 
ATOM      5  N   UNL d   1     -47.650  11.538  23.586  0.00  0.00    -0.143 NA
ATOM      6  C   UNL d   1     -46.862  11.727  23.411  0.00  0.00     0.185 A 
ATOM      7  N   UNL d   1     -47.089  13.719  22.610  0.00  0.00    -0.227 NA
ATOM      8  C   UNL d   1     -45.889  12.640  22.912  0.00  0.00     0.007 A 
ATOM      9  N   UNL d   1     -46.265  11.175  23.567  0.00  0.00    -0.225 NA
ATOM     10  C   UNL d   1     -48.471  14.071  22.633  0.00  0.00     0.057 A 
ATOM     11  C   UNL d   1     -45.289  12.106  23.061  0.00  0.00     0.019 A 
ATOM     12  C   UNL d   1     -47.682  14.260  22.458  0.00  0.00     0.086 A 
ATOM     13  C   UNL d   1     -45.476  11.365  23.392  0.00  0.00     0.083 A 
ATOM     14  C   UNL d   1     -45.709  13.376  22.584  0.00  0.00     0.000 C 
ATOM     15  C   UNL d   1     -47.498  15.022  22.118  0.00  0.00     0.021 C 
ATOM     16  C   UNL d   1     -44.883  10.827  23.543  0.00  0.00     0.021 C 
ENDROOT
BRANCH   4  17
ATOM     17  N   UNL d   1     -49.456  13.142  23.140  0.00  0.00    -0.285 N 
ATOM     18  C   UNL d   1     -49.756  12.360  22.940  0.00  0.00     0.108 A 
ATOM     19  C   UNL d   1     -50.559  12.162  23.124  0.00  0.00     0.142 A 
ATOM     20  O   UNL d   1     -51.064  12.733  23.503  0.00  0.00    -0.300 OA
ATOM     21  C   UNL d   1     -50.763  13.503  23.697  0.00  0.00     0.142 A 
ATOM     22  C   UNL d   1     -49.960  13.701  23.514  0.00  0.00     0.108 A 
ENDBRANCH   4  17
TORSDOF 1
ENDMDL
MODEL 5
REMARK VINA RESULT:      -6.3      9.432     10.344
REMARK  1 active torsions:
REMARK  status: ('A' for Active; 'I' for Inactive)
REMARK    1  A    between atoms: N_11  and  C_4 
ROOT
ATOM      1  N   UNL d   1     -39.490  14.974  19.500  0.00  0.00    -0.195 N 
ATOM      2  C   UNL d   1     -39.510  14.675  18.726  0.00  0.00     0.168 A 
ATOM      3  C   UNL d   1     -40.029  14.982  18.173  0.00  0.00     0.073 A 
ATOM      4  C   UNL d   1     -38.964  14.655  20.038  0.00  0.00     0.153 A 
ATOM      5  N   UNL d   1     -40.507  15.889  19.172  0.00  0.00    -0.143 NA
ATOM      6  C   UNL d   1     -40.527  15.590  18.398  0.00  0.00     0.185 A 
ATOM      7  N   UNL d   1     -39.004  14.064  18.512  0.00  0.00    -0.227 NA
ATOM      8  C   UNL d   1     -40.049  14.686  17.408  0.00  0.00     0.007 A 
ATOM      9  N   UNL d   1     -41.058  15.911  17.850  0.00  0.00    -0.225 NA
ATOM     10  C   UNL d   1     -38.462  14.050  19.831  0.00  0.00     0.057 A 
ATOM     11  C   UNL d   1     -40.567  14.992  16.855  0.00  0.00     0.019 A 
ATOM     12  C   UNL d   1     -38.482  13.751  19.057  0.00  0.00     0.086 A 
ATOM     13  C   UNL d   1     -41.079  15.612  17.076  0.00  0.00     0.083 A 
ATOM     14  C   UNL d   1     -39.540  14.072  17.194  0.00  0.00     0.000 C 
ATOM     15  C   UNL d   1     -37.955  13.115  18.838  0.00  0.00     0.021 C 
ATOM     16  C   UNL d   1     -41.598  15.922  16.531  0.00  0.00     0.021 C 
ENDROOT
BRANCH   4  17
ATOM     17  N   UNL d   1     -38.950  14.969  20.834  0.00  0.00    -0.285 N 
ATOM     18  C   UNL d   1     -39.479  14.645  21.431  0.00  0.00     0.108 A 
ATOM     19  C   UNL d   1     -39.462  14.959  22.217  0.00  0.00     0.142 A 
ATOM     20  O   UNL d   1     -38.925  15.591  22.415  0.00  0.00    -0.300 OA
ATOM     21  C   UNL d   1     -38.405  15.907  21.821  0.00  0.00     0.142 A 
ATOM     22  C   UNL d   1     -38.423  15.592  21.035  0.00  0.00     0.108 A 
ENDBRANCH   4  17
TORSDOF 1
ENDMDL
MODEL 6
REMARK VINA RESULT:      -6.0      9.243     10.802
REMARK  1 active torsions:
REMARK  status: ('A' for Active; 'I' for Inactive)
REMARK    1  A    between atoms: N_11  and  C_4 
ROOT
ATOM      1  N   UNL d   1     -39.407  15.059  18.109  0.00  0.00    -0.195 N 
ATOM      2  C   UNL d   1     -39.946  15.346  18.671  0.00  0.00     0.168 A 
ATOM      3  C   UNL d   1     -39.756  15.350  19.467  0.00  0.00     0.073 A 
ATOM      4  C   UNL d   1     -39.615  15.063  17.318  0.00  0.00     0.153 A 
ATOM      5  N   UNL d   1     -38.486  14.779  19.134  0.00  0.00    -0.143 NA
ATOM      6  C   UNL d   1     -39.025  15.066  19.697  0.00  0.00     0.185 A 
ATOM      7  N   UNL d   1     -40.678  15.628  18.428  0.00  0.00    -0.227 NA
ATOM      8  C   UNL d   1     -40.289  15.633  20.023  0.00  0.00     0.007 A 
ATOM      9  N   UNL d   1     -38.817  15.063  20.499  0.00  0.00    -0.225 NA
ATOM     10  C   UNL d   1     -40.338  15.342  17.073  0.00  0.00     0.057 A 
ATOM     11  C   UNL d   1     -40.099  15.637  20.818  0.00  0.00     0.019 A 
ATOM     12  C   UNL d   1     -40.877  15.629  17.635  0.00  0.00     0.086 A 
ATOM     13  C   UNL d   1     -39.356  15.350  21.061  0.00  0.00     0.083 A 
ATOM     14  C   UNL d   1     -41.024  15.917  19.778  0.00  0.00     0.000 C 
ATOM     15  C   UNL d   1     -41.637  15.922  17.379  0.00  0.00     0.021 C 
ATOM     16  C   UNL d   1     -39.161  15.351  21.852  0.00  0.00     0.021 C 
ENDROOT
BRANCH   4  17
ATOM     17  N   UNL d   1     -39.053  14.766  16.745  0.00  0.00    -0.285 N 
ATOM     18  C   UNL d   1     -38.991  13.918  16.607  0.00  0.00     0.108 A 
ATOM     19  C   UNL d   1     -38.434  13.628  16.039  0.00  0.00     0.142 A 
ATOM     20  O   UNL d   1     -37.940  14.171  15.608  0.00  0.00    -0.300 OA
ATOM     21  C   UNL d   1     -38.006  15.007  15.748  0.00  0.00     0.142 A 
ATOM     22  C   UNL d   1     -38.563  15.297  16.316  0.00  0.00     0.108 A 
ENDBRANCH   4  17
TORSDOF 1
ENDMDL
