MODEL 1
REMARK VINA RESULT:      59.8      0.000      0.000
REMARK  7 active torsions:
REMARK  status: ('A' for Active; 'I' for Inactive)
REMARK    1  A    between atoms: C_2  and  S_1 
REMARK    2  A    between atoms: N_5  and  S_1 
REMARK    3  A    between atoms: C_3  and  C_7 
REMARK       I    between atoms: N_8  and  C_3 
REMARK    4  A    between atoms: C_16  and  N_5 
REMARK    5  A    between atoms: C_21  and  N_8 
REMARK    6  A    between atoms: C_15  and  C_16 
REMARK    7  A    between atoms: C_30  and  C_23 
ROOT
ATOM      1  C   UNL d   1      14.178  12.197  -1.622  0.00  0.00     0.133 A 
ATOM      2  C   UNL d   1      14.929  12.336  -1.344  0.00  0.00     0.020 A 
ATOM      3  C   UNL d   1      15.085  12.269  -0.536  0.00  0.00     0.059 A 
ATOM      4  C   UNL d   1      13.572  11.991  -1.102  0.00  0.00     0.152 A 
ATOM      5  C   UNL d   1      14.479  12.062  -0.016  0.00  0.00     0.007 A 
ATOM      6  C   UNL d   1      13.721  11.924  -0.307  0.00  0.00     0.030 A 
ATOM      7  F   UNL d   1      12.794  11.848  -1.398  0.00  0.00    -0.203 F 
ENDROOT
BRANCH   1   8
ATOM      8  S   UNL d   1      14.026  12.269  -2.455  0.00  0.00     0.288 S 
ATOM      9  O   UNL d   1      14.674  11.784  -2.608  0.00  0.00    -0.198 OA
ATOM     10  O   UNL d   1      13.371  12.760  -2.274  0.00  0.00    -0.198 OA
BRANCH   8  11
ATOM     11  N   UNL d   1      13.864  12.349  -3.245  0.00  0.00    -0.155 NA
BRANCH  11  12
ATOM     12  C   UNL d   1      13.223  12.801  -3.505  0.00  0.00     0.139 C 
BRANCH  12  13
ATOM     13  C   UNL d   1      13.330  13.328  -4.142  0.00  0.00     0.145 A 
ATOM     14  O   UNL d   1      13.291  14.140  -4.029  0.00  0.00    -0.301 OA
ATOM     15  C   UNL d   1      13.399  14.653  -4.669  0.00  0.00     0.123 A 
ATOM     16  C   UNL d   1      13.360  15.471  -4.555  0.00  0.00     0.027 A 
ATOM     17  C   UNL d   1      13.546  14.346  -5.421  0.00  0.00     0.123 A 
ATOM     18  C   UNL d   1      13.468  15.982  -5.194  0.00  0.00     0.002 A 
ATOM     19  C   UNL d   1      13.615  15.676  -5.947  0.00  0.00     0.002 A 
ATOM     20  C   UNL d   1      13.654  14.858  -6.061  0.00  0.00     0.027 A 
ATOM     21  O   UNL d   1      13.584  13.533  -5.534  0.00  0.00    -0.301 OA
ATOM     22  C   UNL d   1      13.477  13.026  -4.895  0.00  0.00     0.149 A 
ENDBRANCH  12  13
ENDBRANCH  11  12
ENDBRANCH   8  11
ENDBRANCH   1   8
BRANCH   3  23
ATOM     23  C   UNL d   1      15.851  12.408  -0.239  0.00  0.00     0.279 C 
ATOM     24  N   UNL d   1      16.087  13.170  -0.024  0.00  0.00    -0.208 NA
ATOM     25  O   UNL d   1      16.374  11.782  -0.161  0.00  0.00    -0.265 OA
BRANCH  24  26
ATOM     26  C   UNL d   1      15.560  13.800  -0.103  0.00  0.00     0.085 A 
ATOM     27  C   UNL d   1      15.853  14.547  -0.269  0.00  0.00     0.019 A 
ATOM     28  C   UNL d   1      15.322  15.183  -0.349  0.00  0.00     0.002 A 
ATOM     29  C   UNL d   1      14.509  15.057  -0.260  0.00  0.00     0.000 A 
ATOM     30  C   UNL d   1      14.233  14.305  -0.094  0.00  0.00     0.002 A 
ATOM     31  C   UNL d   1      14.764  13.669  -0.015  0.00  0.00     0.019 A 
BRANCH  29  32
ATOM     32  C   UNL d   1      13.983  15.679  -0.338  0.00  0.00     0.000 C 
ATOM     33  C   UNL d   1      14.191  16.343  -0.781  0.00  0.00     0.000 C 
ENDBRANCH  29  32
ENDBRANCH  24  26
ENDBRANCH   3  23
TORSDOF 7
ENDMDL
MODEL 2
REMARK VINA RESULT:      61.1      2.432      4.203
REMARK  7 active torsions:
REMARK  status: ('A' for Active; 'I' for Inactive)
REMARK    1  A    between atoms: C_2  and  S_1 
REMARK    2  A    between atoms: N_5  and  S_1 
REMARK    3  A    between atoms: C_3  and  C_7 
REMARK       I    between atoms: N_8  and  C_3 
REMARK    4  A    between atoms: C_16  and  N_5 
REMARK    5  A    between atoms: C_21  and  N_8 
REMARK    6  A    between atoms: C_15  and  C_16 
REMARK    7  A    between atoms: C_30  and  C_23 
ROOT
ATOM      1  C   UNL d   1      13.551  14.582  -4.234  0.00  0.00     0.133 A 
ATOM      2  C   UNL d   1      13.271  13.879  -4.529  0.00  0.00     0.020 A 
ATOM      3  C   UNL d   1      13.358  13.186  -4.089  0.00  0.00     0.059 A 
ATOM      4  C   UNL d   1      13.923  14.607  -3.497  0.00  0.00     0.152 A 
ATOM      5  C   UNL d   1      13.730  13.211  -3.353  0.00  0.00     0.007 A 
ATOM      6  C   UNL d   1      14.011  13.929  -3.062  0.00  0.00     0.030 A 
ATOM      7  F   UNL d   1      14.212  15.341  -3.196  0.00  0.00    -0.203 F 
ENDROOT
BRANCH   1   8
ATOM      8  S   UNL d   1      13.457  15.291  -4.693  0.00  0.00     0.288 S 
ATOM      9  O   UNL d   1      13.151  15.673  -4.030  0.00  0.00    -0.198 OA
ATOM     10  O   UNL d   1      13.771  14.881  -5.354  0.00  0.00    -0.198 OA
BRANCH   8  11
ATOM     11  N   UNL d   1      13.375  15.956  -5.148  0.00  0.00    -0.155 NA
BRANCH  11  12
ATOM     12  C   UNL d   1      14.031  16.415  -5.355  0.00  0.00     0.139 C 
BRANCH  12  13
ATOM     13  C   UNL d   1      13.912  17.200  -5.609  0.00  0.00     0.145 A 
ATOM     14  O   UNL d   1      14.409  17.804  -5.359  0.00  0.00    -0.301 OA
ATOM     15  C   UNL d   1      14.281  18.579  -5.618  0.00  0.00     0.123 A 
ATOM     16  C   UNL d   1      14.781  19.188  -5.366  0.00  0.00     0.027 A 
ATOM     17  C   UNL d   1      13.653  18.743  -6.128  0.00  0.00     0.123 A 
ATOM     18  C   UNL d   1      14.653  19.961  -5.625  0.00  0.00     0.002 A 
ATOM     19  C   UNL d   1      14.025  20.127  -6.136  0.00  0.00     0.002 A 
ATOM     20  C   UNL d   1      13.525  19.518  -6.388  0.00  0.00     0.027 A 
ATOM     21  O   UNL d   1      13.157  18.139  -6.378  0.00  0.00    -0.301 OA
ATOM     22  C   UNL d   1      13.287  17.369  -6.119  0.00  0.00     0.149 A 
ENDBRANCH  12  13
ENDBRANCH  11  12
ENDBRANCH   8  11
ENDBRANCH   1   8
BRANCH   3  23
ATOM     23  C   UNL d   1      13.074  12.459  -4.382  0.00  0.00     0.279 C 
ATOM     24  N   UNL d   1      13.099  11.779  -3.914  0.00  0.00    -0.208 NA
ATOM     25  O   UNL d   1      12.768  12.421  -5.140  0.00  0.00    -0.265 OA
BRANCH  24  26
ATOM     26  C   UNL d   1      13.407  11.818  -3.149  0.00  0.00     0.085 A 
ATOM     27  C   UNL d   1      12.892  11.870  -2.513  0.00  0.00     0.019 A 
ATOM     28  C   UNL d   1      13.203  11.909  -1.742  0.00  0.00     0.002 A 
ATOM     29  C   UNL d   1      14.021  11.894  -1.624  0.00  0.00     0.000 A 
ATOM     30  C   UNL d   1      14.521  11.842  -2.270  0.00  0.00     0.002 A 
ATOM     31  C   UNL d   1      14.211  11.803  -3.041  0.00  0.00     0.019 A 
BRANCH  29  32
ATOM     32  C   UNL d   1      14.331  11.932  -0.867  0.00  0.00     0.000 C 
ATOM     33  C   UNL d   1      13.896  12.282  -0.260  0.00  0.00     0.000 C 
ENDBRANCH  29  32
ENDBRANCH  24  26
ENDBRANCH   3  23
TORSDOF 7
ENDMDL
