MODEL 1
REMARK VINA RESULT:      33.8      0.000      0.000
REMARK  3 active torsions:
REMARK  status: ('A' for Active; 'I' for Inactive)
REMARK    1  A    between atoms: C_11  and  C_4 
REMARK    2  A    between atoms: N_14  and  C_7 
REMARK    3  A    between atoms: C_10  and  C_12 
ROOT
ATOM      1  C   UNL d   1      14.206  13.068  -2.312  0.00  0.00     0.186 A 
ATOM      2  N   UNL d   1      13.833  12.409  -2.644  0.00  0.00    -0.193 N 
ATOM      3  N   UNL d   1      14.232  13.786  -2.734  0.00  0.00    -0.204 NA
ATOM      4  C   UNL d   1      14.496  12.851  -1.570  0.00  0.00     0.140 A 
ATOM      5  N   UNL d   1      13.891  11.779  -2.107  0.00  0.00    -0.058 NA
ATOM      6  N   UNL d   1      14.302  12.054  -1.440  0.00  0.00    -0.127 NA
ATOM      7  C   UNL d   1      13.882  13.845  -3.496  0.00  0.00     0.188 A 
ATOM      8  C   UNL d   1      13.512  13.176  -3.817  0.00  0.00     0.056 A 
ATOM      9  C   UNL d   1      13.483  12.457  -3.399  0.00  0.00     0.089 A 
ATOM     10  C   UNL d   1      13.165  13.228  -4.567  0.00  0.00     0.005 A 
ATOM     11  C   UNL d   1      13.113  11.806  -3.732  0.00  0.00     0.019 A 
ATOM     12  C   UNL d   1      12.795  12.569  -4.895  0.00  0.00     0.000 A 
ATOM     13  C   UNL d   1      12.769  11.858  -4.478  0.00  0.00     0.002 A 
ENDROOT
BRANCH   4  14
ATOM     14  C   UNL d   1      14.906  13.345  -1.049  0.00  0.00     0.022 A 
ATOM     15  C   UNL d   1      14.728  14.149  -1.023  0.00  0.00     0.005 A 
ATOM     16  C   UNL d   1      15.132  14.645  -0.508  0.00  0.00     0.071 A 
ATOM     17  C   UNL d   1      15.718  14.339  -0.015  0.00  0.00     0.004 A 
ATOM     18  C   UNL d   1      15.896  13.526  -0.044  0.00  0.00    -0.000 A 
ATOM     19  C   UNL d   1      15.488  13.038  -0.561  0.00  0.00     0.002 A 
BRANCH  16  20
ATOM     20  C   UNL d   1      14.954  15.448  -0.483  0.00  0.00     0.419 C 
ATOM     21  F   UNL d   1      14.733  16.242  -0.431  0.00  0.00    -0.166 F 
ATOM     22  F   UNL d   1      15.629  15.639  -0.904  0.00  0.00    -0.166 F 
ATOM     23  F   UNL d   1      14.263  15.262  -0.053  0.00  0.00    -0.166 F 
ENDBRANCH  16  20
ENDBRANCH   4  14
BRANCH   7  24
ATOM     24  N   UNL d   1      13.908  14.556  -3.913  0.00  0.00    -0.108 NA
ATOM     25  N   UNL d   1      13.826  15.276  -3.508  0.00  0.00    -0.021 N 
ENDBRANCH   7  24
TORSDOF 3
ENDMDL
