MODEL 1
REMARK VINA RESULT:      38.8      0.000      0.000
REMARK  6 active torsions:
REMARK  status: ('A' for Active; 'I' for Inactive)
REMARK    1  A    between atoms: S_10  and  C_5 
REMARK    2  A    between atoms: C_11  and  N_8 
REMARK    3  A    between atoms: C_15  and  S_10 
REMARK    4  A    between atoms: C_16  and  C_11 
REMARK    5  A    between atoms: C_17  and  C_15 
REMARK    6  A    between atoms: C_23  and  C_16 
ROOT
ATOM      1  C   UNL d   1      46.326 -18.228  43.647  0.00  0.00     0.174 A 
ATOM      2  C   UNL d   1      46.355 -18.323  42.824  0.00  0.00     0.159 A 
ATOM      3  N   UNL d   1      46.199 -17.434  43.803  0.00  0.00    -0.203 NA
ATOM      4  N   UNL d   1      46.422 -18.888  44.132  0.00  0.00    -0.239 N 
ATOM      5  C   UNL d   1      46.150 -17.049  43.074  0.00  0.00     0.181 A 
ATOM      6  C   UNL d   1      46.549 -19.657  43.821  0.00  0.00     0.358 A 
ATOM      7  N   UNL d   1      46.577 -19.753  42.998  0.00  0.00    -0.152 NA
ATOM      8  N   UNL d   1      46.238 -17.539  42.405  0.00  0.00    -0.279 N 
ATOM      9  C   UNL d   1      46.480 -19.079  42.486  0.00  0.00     0.302 A 
ATOM     10  O   UNL d   1      46.647 -20.330  44.307  0.00  0.00    -0.244 OA
ATOM     11  O   UNL d   1      46.508 -19.174  41.663  0.00  0.00    -0.263 OA
ATOM     12  C   UNL d   1      46.394 -18.792  44.955  0.00  0.00     0.105 C 
ENDROOT
BRANCH   5  13
ATOM     13  S   UNL d   1      46.021 -16.244  43.190  0.00  0.00    -0.049 SA
BRANCH  13  14
ATOM     14  C   UNL d   1      46.205 -15.701  43.789  0.00  0.00     0.038 C 
BRANCH  14  15
ATOM     15  C   UNL d   1      45.875 -14.946  43.777  0.00  0.00     0.007 A 
ATOM     16  C   UNL d   1      45.271 -14.758  44.304  0.00  0.00     0.001 A 
ATOM     17  C   UNL d   1      44.941 -14.002  44.292  0.00  0.00     0.000 A 
ATOM     18  C   UNL d   1      45.216 -13.437  43.753  0.00  0.00     0.000 A 
ATOM     19  C   UNL d   1      45.824 -13.633  43.226  0.00  0.00     0.000 A 
ATOM     20  C   UNL d   1      44.884 -12.678  43.741  0.00  0.00     0.000 C 
ATOM     21  C   UNL d   1      46.151 -14.390  43.241  0.00  0.00     0.001 A 
ENDBRANCH  14  15
ENDBRANCH  13  14
ENDBRANCH   5  13
BRANCH   8  22
ATOM     22  C   UNL d   1      46.201 -17.223  41.644  0.00  0.00     0.082 C 
BRANCH  22  23
ATOM     23  C   UNL d   1      46.423 -17.678  40.993  0.00  0.00     0.019 C 
BRANCH  23  24
ATOM     24  C   UNL d   1      46.126 -17.508  40.244  0.00  0.00     0.002 C 
ATOM     25  C   UNL d   1      46.542 -17.014  39.731  0.00  0.00     0.000 C 
ATOM     26  C   UNL d   1      45.405 -17.831  39.997  0.00  0.00     0.000 C 
ENDBRANCH  23  24
ENDBRANCH  22  23
ENDBRANCH   8  22
TORSDOF 6
ENDMDL
