MODEL 1
REMARK VINA RESULT:      -5.8      0.000      0.000
REMARK  6 active torsions:
REMARK  status: ('A' for Active; 'I' for Inactive)
REMARK    1  A    between atoms: C_2  and  S_1 
REMARK    2  A    between atoms: N_6  and  S_1 
REMARK    3  A    between atoms: C_14  and  N_6 
REMARK    4  A    between atoms: C_8  and  C_13 
REMARK    5  A    between atoms: C_13  and  C_15 
REMARK    6  A    between atoms: C_15  and  C_14 
ROOT
ATOM      1  S   UNL d   1     -49.115  14.554  22.780  0.00  0.00     0.291 S 
ATOM      2  O   UNL d   1     -49.396  13.812  23.038  0.00  0.00    -0.198 OA
ATOM      3  O   UNL d   1     -48.832  15.291  22.522  0.00  0.00    -0.198 OA
ENDROOT
BRANCH   1   4
ATOM      4  C   UNL d   1     -49.796  14.923  23.085  0.00  0.00     0.135 A 
ATOM      5  S   UNL d   1     -50.566  14.651  23.034  0.00  0.00    -0.073 SA
ATOM      6  C   UNL d   1     -51.063  15.193  23.413  0.00  0.00     0.036 A 
ATOM      7  C   UNL d   1     -50.622  15.792  23.697  0.00  0.00     0.008 A 
ATOM      8  C   UNL d   1     -49.825  15.643  23.503  0.00  0.00     0.020 A 
ENDBRANCH   1   4
BRANCH   1   9
ATOM      9  N   UNL d   1     -48.428  14.185  22.471  0.00  0.00    -0.156 NA
BRANCH   9  10
ATOM     10  C   UNL d   1     -47.774  14.029  22.952  0.00  0.00     0.112 C 
BRANCH  10  11
ATOM     11  C   UNL d   1     -47.107  13.659  22.656  0.00  0.00     0.028 C 
BRANCH  11  12
ATOM     12  C   UNL d   1     -46.450  13.546  23.140  0.00  0.00     0.072 C 
BRANCH  12  13
ATOM     13  C   UNL d   1     -45.815  13.079  22.897  0.00  0.00     0.211 C 
ATOM     14  O   UNL d   1     -45.622  12.372  23.289  0.00  0.00    -0.644 OA
ATOM     15  O   UNL d   1     -45.353  13.307  22.254  0.00  0.00    -0.644 OA
ENDBRANCH  12  13
ENDBRANCH  11  12
ENDBRANCH  10  11
ENDBRANCH   9  10
ENDBRANCH   1   9
TORSDOF 6
ENDMDL
MODEL 2
REMARK VINA RESULT:      -5.4      2.147      2.293
REMARK  6 active torsions:
REMARK  status: ('A' for Active; 'I' for Inactive)
REMARK    1  A    between atoms: C_2  and  S_1 
REMARK    2  A    between atoms: N_6  and  S_1 
REMARK    3  A    between atoms: C_14  and  N_6 
REMARK    4  A    between atoms: C_8  and  C_13 
REMARK    5  A    between atoms: C_13  and  C_15 
REMARK    6  A    between atoms: C_15  and  C_14 
ROOT
ATOM      1  S   UNL d   1     -48.954  12.104  23.095  0.00  0.00     0.291 S 
ATOM      2  O   UNL d   1     -48.860  12.796  23.552  0.00  0.00    -0.198 OA
ATOM      3  O   UNL d   1     -49.043  11.416  22.640  0.00  0.00    -0.198 OA
ENDROOT
BRANCH   1   4
ATOM      4  C   UNL d   1     -49.778  12.221  23.078  0.00  0.00     0.135 A 
ATOM      5  S   UNL d   1     -50.302  12.114  23.698  0.00  0.00    -0.073 SA
ATOM      6  C   UNL d   1     -51.064  12.294  23.433  0.00  0.00     0.036 A 
ATOM      7  C   UNL d   1     -51.027  12.510  22.668  0.00  0.00     0.008 A 
ATOM      8  C   UNL d   1     -50.231  12.471  22.425  0.00  0.00     0.020 A 
ENDBRANCH   1   4
BRANCH   1   9
ATOM      9  N   UNL d   1     -48.124  11.984  23.110  0.00  0.00    -0.156 NA
BRANCH   9  10
ATOM     10  C   UNL d   1     -47.598  12.616  23.029  0.00  0.00     0.112 C 
BRANCH  10  11
ATOM     11  C   UNL d   1     -46.791  12.496  22.981  0.00  0.00     0.028 C 
BRANCH  11  12
ATOM     12  C   UNL d   1     -46.298  13.105  22.727  0.00  0.00     0.072 C 
BRANCH  12  13
ATOM     13  C   UNL d   1     -45.488  12.985  22.628  0.00  0.00     0.211 C 
ATOM     14  O   UNL d   1     -45.098  12.341  22.981  0.00  0.00    -0.644 OA
ATOM     15  O   UNL d   1     -45.043  13.507  22.172  0.00  0.00    -0.644 OA
ENDBRANCH  12  13
ENDBRANCH  11  12
ENDBRANCH  10  11
ENDBRANCH   9  10
ENDBRANCH   1   9
TORSDOF 6
ENDMDL
MODEL 3
REMARK VINA RESULT:      -5.4      1.772      2.404
REMARK  6 active torsions:
REMARK  status: ('A' for Active; 'I' for Inactive)
REMARK    1  A    between atoms: C_2  and  S_1 
REMARK    2  A    between atoms: N_6  and  S_1 
REMARK    3  A    between atoms: C_14  and  N_6 
REMARK    4  A    between atoms: C_8  and  C_13 
REMARK    5  A    between atoms: C_13  and  C_15 
REMARK    6  A    between atoms: C_15  and  C_14 
ROOT
ATOM      1  S   UNL d   1     -46.914  13.900  22.833  0.00  0.00     0.291 S 
ATOM      2  O   UNL d   1     -47.238  13.131  22.801  0.00  0.00    -0.198 OA
ATOM      3  O   UNL d   1     -46.588  14.662  22.864  0.00  0.00    -0.198 OA
ENDROOT
BRANCH   1   4
ATOM      4  C   UNL d   1     -47.675  14.229  22.758  0.00  0.00     0.135 A 
ATOM      5  S   UNL d   1     -48.388  13.854  22.904  0.00  0.00    -0.073 SA
ATOM      6  C   UNL d   1     -49.002  14.389  22.759  0.00  0.00     0.036 A 
ATOM      7  C   UNL d   1     -48.688  15.083  22.527  0.00  0.00     0.008 A 
ATOM      8  C   UNL d   1     -47.859  15.005  22.520  0.00  0.00     0.020 A 
ENDBRANCH   1   4
BRANCH   1   9
ATOM      9  N   UNL d   1     -46.146  13.571  22.908  0.00  0.00    -0.156 NA
BRANCH   9  10
ATOM     10  C   UNL d   1     -45.706  13.354  22.243  0.00  0.00     0.112 C 
BRANCH  10  11
ATOM     11  C   UNL d   1     -44.973  13.000  22.314  0.00  0.00     0.028 C 
BRANCH  11  12
ATOM     12  C   UNL d   1     -44.506  12.883  21.646  0.00  0.00     0.072 C 
BRANCH  12  13
ATOM     13  C   UNL d   1     -43.763  12.527  21.700  0.00  0.00     0.211 C 
ATOM     14  O   UNL d   1     -43.135  12.758  21.206  0.00  0.00    -0.644 OA
ATOM     15  O   UNL d   1     -43.626  11.931  22.251  0.00  0.00    -0.644 OA
ENDBRANCH  12  13
ENDBRANCH  11  12
ENDBRANCH  10  11
ENDBRANCH   9  10
ENDBRANCH   1   9
TORSDOF 6
ENDMDL
MODEL 4
REMARK VINA RESULT:      -4.1      8.466     10.373
REMARK  6 active torsions:
REMARK  status: ('A' for Active; 'I' for Inactive)
REMARK    1  A    between atoms: C_2  and  S_1 
REMARK    2  A    between atoms: N_6  and  S_1 
REMARK    3  A    between atoms: C_14  and  N_6 
REMARK    4  A    between atoms: C_8  and  C_13 
REMARK    5  A    between atoms: C_13  and  C_15 
REMARK    6  A    between atoms: C_15  and  C_14 
ROOT
ATOM      1  S   UNL d   1     -39.692  14.387  17.792  0.00  0.00     0.291 S 
ATOM      2  O   UNL d   1     -39.984  13.619  17.937  0.00  0.00    -0.198 OA
ATOM      3  O   UNL d   1     -39.404  15.152  17.651  0.00  0.00    -0.198 OA
ENDROOT
BRANCH   1   4
ATOM      4  C   UNL d   1     -39.128  14.078  17.263  0.00  0.00     0.135 A 
ATOM      5  S   UNL d   1     -38.860  14.427  16.573  0.00  0.00    -0.073 SA
ATOM      6  C   UNL d   1     -38.303  13.925  16.223  0.00  0.00     0.036 A 
ATOM      7  C   UNL d   1     -38.218  13.277  16.678  0.00  0.00     0.008 A 
ATOM      8  C   UNL d   1     -38.726  13.352  17.335  0.00  0.00     0.020 A 
ENDBRANCH   1   4
BRANCH   1   9
ATOM      9  N   UNL d   1     -40.259  14.701  18.325  0.00  0.00    -0.156 NA
BRANCH   9  10
ATOM     10  C   UNL d   1     -40.127  14.699  19.140  0.00  0.00     0.112 C 
BRANCH  10  11
ATOM     11  C   UNL d   1     -40.594  15.137  19.649  0.00  0.00     0.028 C 
BRANCH  11  12
ATOM     12  C   UNL d   1     -40.592  14.971  20.455  0.00  0.00     0.072 C 
BRANCH  12  13
ATOM     13  C   UNL d   1     -40.852  15.528  21.007  0.00  0.00     0.211 C 
ATOM     14  O   UNL d   1     -40.318  15.922  21.509  0.00  0.00    -0.644 OA
ATOM     15  O   UNL d   1     -41.653  15.707  21.072  0.00  0.00    -0.644 OA
ENDBRANCH  12  13
ENDBRANCH  11  12
ENDBRANCH  10  11
ENDBRANCH   9  10
ENDBRANCH   1   9
TORSDOF 6
ENDMDL
MODEL 5
REMARK VINA RESULT:      -4.1      8.823      9.488
REMARK  6 active torsions:
REMARK  status: ('A' for Active; 'I' for Inactive)
REMARK    1  A    between atoms: C_2  and  S_1 
REMARK    2  A    between atoms: N_6  and  S_1 
REMARK    3  A    between atoms: C_14  and  N_6 
REMARK    4  A    between atoms: C_8  and  C_13 
REMARK    5  A    between atoms: C_13  and  C_15 
REMARK    6  A    between atoms: C_15  and  C_14 
ROOT
ATOM      1  S   UNL d   1     -40.133  15.103  20.517  0.00  0.00     0.291 S 
ATOM      2  O   UNL d   1     -40.790  14.627  20.711  0.00  0.00    -0.198 OA
ATOM      3  O   UNL d   1     -39.482  15.579  20.321  0.00  0.00    -0.198 OA
ENDROOT
BRANCH   1   4
ATOM      4  C   UNL d   1     -39.741  14.853  21.208  0.00  0.00     0.135 A 
ATOM      5  S   UNL d   1     -39.375  15.329  21.764  0.00  0.00    -0.073 SA
ATOM      6  C   UNL d   1     -39.058  14.846  22.357  0.00  0.00     0.036 A 
ATOM      7  C   UNL d   1     -39.219  14.086  22.182  0.00  0.00     0.008 A 
ATOM      8  C   UNL d   1     -39.645  14.067  21.467  0.00  0.00     0.020 A 
ENDBRANCH   1   4
BRANCH   1   9
ATOM      9  N   UNL d   1     -40.526  15.358  19.821  0.00  0.00    -0.156 NA
BRANCH   9  10
ATOM     10  C   UNL d   1     -40.355  15.020  19.086  0.00  0.00     0.112 C 
BRANCH  10  11
ATOM     11  C   UNL d   1     -40.670  15.323  18.395  0.00  0.00     0.028 C 
BRANCH  11  12
ATOM     12  C   UNL d   1     -40.600  14.901  17.691  0.00  0.00     0.072 C 
BRANCH  12  13
ATOM     13  C   UNL d   1     -40.772  15.251  16.964  0.00  0.00     0.211 C 
ATOM     14  O   UNL d   1     -41.545  15.247  16.655  0.00  0.00    -0.644 OA
ATOM     15  O   UNL d   1     -40.179  15.614  16.525  0.00  0.00    -0.644 OA
ENDBRANCH  12  13
ENDBRANCH  11  12
ENDBRANCH  10  11
ENDBRANCH   9  10
ENDBRANCH   1   9
TORSDOF 6
ENDMDL
MODEL 6
REMARK VINA RESULT:      -4.1      9.012      9.422
REMARK  6 active torsions:
REMARK  status: ('A' for Active; 'I' for Inactive)
REMARK    1  A    between atoms: C_2  and  S_1 
REMARK    2  A    between atoms: N_6  and  S_1 
REMARK    3  A    between atoms: C_14  and  N_6 
REMARK    4  A    between atoms: C_8  and  C_13 
REMARK    5  A    between atoms: C_13  and  C_15 
REMARK    6  A    between atoms: C_15  and  C_14 
ROOT
ATOM      1  S   UNL d   1     -40.508  14.688  18.863  0.00  0.00     0.291 S 
ATOM      2  O   UNL d   1     -40.576  13.883  18.656  0.00  0.00    -0.198 OA
ATOM      3  O   UNL d   1     -40.440  15.488  19.072  0.00  0.00    -0.198 OA
ENDROOT
BRANCH   1   4
ATOM      4  C   UNL d   1     -40.485  14.898  18.058  0.00  0.00     0.135 A 
ATOM      5  S   UNL d   1     -40.831  15.554  17.712  0.00  0.00    -0.073 SA
ATOM      6  C   UNL d   1     -40.667  15.542  16.901  0.00  0.00     0.036 A 
ATOM      7  C   UNL d   1     -40.230  14.897  16.736  0.00  0.00     0.008 A 
ATOM      8  C   UNL d   1     -40.105  14.479  17.446  0.00  0.00     0.020 A 
ENDBRANCH   1   4
BRANCH   1   9
ATOM      9  N   UNL d   1     -40.530  14.480  19.676  0.00  0.00    -0.156 NA
BRANCH   9  10
ATOM     10  C   UNL d   1     -39.837  14.424  20.122  0.00  0.00     0.112 C 
BRANCH  10  11
ATOM     11  C   UNL d   1     -39.860  14.283  20.927  0.00  0.00     0.028 C 
BRANCH  11  12
ATOM     12  C   UNL d   1     -39.165  14.116  21.335  0.00  0.00     0.072 C 
BRANCH  12  13
ATOM     13  C   UNL d   1     -39.154  14.066  22.159  0.00  0.00     0.211 C 
ATOM     14  O   UNL d   1     -39.063  14.744  22.633  0.00  0.00    -0.644 OA
ATOM     15  O   UNL d   1     -39.234  13.338  22.534  0.00  0.00    -0.644 OA
ENDBRANCH  12  13
ENDBRANCH  11  12
ENDBRANCH  10  11
ENDBRANCH   9  10
ENDBRANCH   1   9
TORSDOF 6
ENDMDL
