MODEL 1
REMARK VINA RESULT:       8.1      0.000      0.000
REMARK  8 active torsions:
REMARK  status: ('A' for Active; 'I' for Inactive)
REMARK    1  A    between atoms: C_4  and  C_1 
REMARK    2  A    between atoms: C_2  and  C_15 
REMARK    3  A    between atoms: C_3  and  C_2 
REMARK    4  A    between atoms: C_16  and  C_4 
REMARK    5  A    between atoms: O_14  and  C_9 
REMARK    6  A    between atoms: S_13  and  C_16 
REMARK    7  A    between atoms: C_15  and  S_13 
REMARK    8  A    between atoms: C_17  and  O_14 
ROOT
ATOM      1  C   UNL d   1      45.534 -15.218  44.542  0.00  0.00     0.040 A 
ATOM      2  C   UNL d   1      44.858 -14.748  44.527  0.00  0.00     0.005 A 
ATOM      3  C   UNL d   1      46.283 -14.863  44.579  0.00  0.00     0.005 A 
ATOM      4  C   UNL d   1      45.671 -13.572  44.586  0.00  0.00     0.100 A 
ATOM      5  C   UNL d   1      44.922 -13.927  44.549  0.00  0.00     0.025 A 
ATOM      6  C   UNL d   1      46.348 -14.042  44.600  0.00  0.00     0.025 A 
ENDROOT
BRANCH   1   7
ATOM      7  C   UNL d   1      45.454 -16.046  44.520  0.00  0.00     0.202 C 
ATOM      8  O   UNL d   1      44.862 -16.425  44.948  0.00  0.00    -0.286 OA
BRANCH   7   9
ATOM      9  C   UNL d   1      45.984 -16.498  44.057  0.00  0.00     0.077 C 
BRANCH   9  10
ATOM     10  S   UNL d   1      46.043 -17.330  44.182  0.00  0.00    -0.082 SA
BRANCH  10  11
ATOM     11  C   UNL d   1      46.304 -17.818  43.573  0.00  0.00     0.042 C 
BRANCH  11  12
ATOM     12  C   UNL d   1      46.449 -18.615  43.721  0.00  0.00     0.077 C 
BRANCH  12  13
ATOM     13  C   UNL d   1      46.372 -19.171  43.115  0.00  0.00     0.211 C 
ATOM     14  O   UNL d   1      46.647 -18.989  42.357  0.00  0.00    -0.644 OA
ATOM     15  O   UNL d   1      46.025 -19.902  43.264  0.00  0.00    -0.644 OA
ENDBRANCH  12  13
ENDBRANCH  11  12
ENDBRANCH  10  11
ENDBRANCH   9  10
ENDBRANCH   7   9
ENDBRANCH   1   7
BRANCH   4  16
ATOM     16  O   UNL d   1      45.743 -12.730  44.608  0.00  0.00    -0.305 OA
BRANCH  16  17
ATOM     17  C   UNL d   1      45.266 -12.266  44.121  0.00  0.00     0.123 C 
ATOM     18  C   UNL d   1      45.474 -12.149  43.331  0.00  0.00     0.029 C 
ENDBRANCH  16  17
ENDBRANCH   4  16
TORSDOF 8
ENDMDL
MODEL 2
REMARK VINA RESULT:       8.3      0.968      4.984
REMARK  8 active torsions:
REMARK  status: ('A' for Active; 'I' for Inactive)
REMARK    1  A    between atoms: C_4  and  C_1 
REMARK    2  A    between atoms: C_2  and  C_15 
REMARK    3  A    between atoms: C_3  and  C_2 
REMARK    4  A    between atoms: C_16  and  C_4 
REMARK    5  A    between atoms: O_14  and  C_9 
REMARK    6  A    between atoms: S_13  and  C_16 
REMARK    7  A    between atoms: C_15  and  S_13 
REMARK    8  A    between atoms: C_17  and  O_14 
ROOT
ATOM      1  C   UNL d   1      45.804 -17.051  44.394  0.00  0.00     0.040 A 
ATOM      2  C   UNL d   1      45.908 -17.188  43.589  0.00  0.00     0.005 A 
ATOM      3  C   UNL d   1      45.980 -17.650  44.941  0.00  0.00     0.005 A 
ATOM      4  C   UNL d   1      46.362 -18.516  43.871  0.00  0.00     0.100 A 
ATOM      5  C   UNL d   1      46.186 -17.917  43.324  0.00  0.00     0.025 A 
ATOM      6  C   UNL d   1      46.257 -18.379  44.677  0.00  0.00     0.025 A 
ENDROOT
BRANCH   1   7
ATOM      7  C   UNL d   1      45.523 -16.311  44.648  0.00  0.00     0.202 C 
ATOM      8  O   UNL d   1      44.764 -16.230  44.955  0.00  0.00    -0.286 OA
BRANCH   7   9
ATOM      9  C   UNL d   1      46.020 -15.640  44.590  0.00  0.00     0.077 C 
BRANCH   9  10
ATOM     10  S   UNL d   1      45.741 -14.890  44.855  0.00  0.00    -0.082 SA
BRANCH  10  11
ATOM     11  C   UNL d   1      45.855 -14.221  44.388  0.00  0.00     0.042 C 
BRANCH  11  12
ATOM     12  C   UNL d   1      45.636 -13.481  44.672  0.00  0.00     0.077 C 
BRANCH  12  13
ATOM     13  C   UNL d   1      45.773 -12.804  44.218  0.00  0.00     0.211 C 
ATOM     14  O   UNL d   1      45.405 -12.725  43.483  0.00  0.00    -0.644 OA
ATOM     15  O   UNL d   1      46.273 -12.213  44.497  0.00  0.00    -0.644 OA
ENDBRANCH  12  13
ENDBRANCH  11  12
ENDBRANCH  10  11
ENDBRANCH   9  10
ENDBRANCH   7   9
ENDBRANCH   1   7
BRANCH   4  16
ATOM     16  O   UNL d   1      46.647 -19.266  43.604  0.00  0.00    -0.305 OA
BRANCH  16  17
ATOM     17  C   UNL d   1      46.130 -19.793  43.237  0.00  0.00     0.123 C 
ATOM     18  C   UNL d   1      46.401 -20.279  42.629  0.00  0.00     0.029 C 
ENDBRANCH  16  17
ENDBRANCH   4  16
TORSDOF 8
ENDMDL
MODEL 3
REMARK VINA RESULT:      10.8      1.371      5.086
REMARK  8 active torsions:
REMARK  status: ('A' for Active; 'I' for Inactive)
REMARK    1  A    between atoms: C_4  and  C_1 
REMARK    2  A    between atoms: C_2  and  C_15 
REMARK    3  A    between atoms: C_3  and  C_2 
REMARK    4  A    between atoms: C_16  and  C_4 
REMARK    5  A    between atoms: O_14  and  C_9 
REMARK    6  A    between atoms: S_13  and  C_16 
REMARK    7  A    between atoms: C_15  and  S_13 
REMARK    8  A    between atoms: C_17  and  O_14 
ROOT
ATOM      1  C   UNL d   1      46.159 -18.493  43.575  0.00  0.00     0.040 A 
ATOM      2  C   UNL d   1      46.165 -19.316  43.604  0.00  0.00     0.005 A 
ATOM      3  C   UNL d   1      46.314 -18.104  42.859  0.00  0.00     0.005 A 
ATOM      4  C   UNL d   1      46.481 -19.366  42.209  0.00  0.00     0.100 A 
ATOM      5  C   UNL d   1      46.325 -19.755  42.926  0.00  0.00     0.025 A 
ATOM      6  C   UNL d   1      46.474 -18.542  42.180  0.00  0.00     0.025 A 
ENDROOT
BRANCH   1   7
ATOM      7  C   UNL d   1      45.995 -18.063  44.268  0.00  0.00     0.202 C 
ATOM      8  O   UNL d   1      45.730 -18.443  44.948  0.00  0.00    -0.286 OA
BRANCH   7   9
ATOM      9  C   UNL d   1      46.103 -17.233  44.272  0.00  0.00     0.077 C 
BRANCH   9  10
ATOM     10  S   UNL d   1      45.843 -16.782  44.936  0.00  0.00    -0.082 SA
BRANCH  10  11
ATOM     11  C   UNL d   1      45.953 -15.966  44.945  0.00  0.00     0.042 C 
BRANCH  11  12
ATOM     12  C   UNL d   1      45.340 -15.468  44.713  0.00  0.00     0.077 C 
BRANCH  12  13
ATOM     13  C   UNL d   1      45.468 -14.654  44.648  0.00  0.00     0.211 C 
ATOM     14  O   UNL d   1      46.183 -14.378  44.340  0.00  0.00    -0.644 OA
ATOM     15  O   UNL d   1      44.887 -14.123  44.888  0.00  0.00    -0.644 OA
ENDBRANCH  12  13
ENDBRANCH  11  12
ENDBRANCH  10  11
ENDBRANCH   9  10
ENDBRANCH   7   9
ENDBRANCH   1   7
BRANCH   4  16
ATOM     16  O   UNL d   1      46.646 -19.811  41.510  0.00  0.00    -0.305 OA
BRANCH  16  17
ATOM     17  C   UNL d   1      46.327 -19.570  40.788  0.00  0.00     0.123 C 
ATOM     18  C   UNL d   1      46.645 -19.855  40.082  0.00  0.00     0.029 C 
ENDBRANCH  16  17
ENDBRANCH   4  16
TORSDOF 8
ENDMDL
