MODEL 1
REMARK VINA RESULT:      74.5      0.000      0.000
REMARK  6 active torsions:
REMARK  status: ('A' for Active; 'I' for Inactive)
REMARK    1  A    between atoms: S_10  and  C_3 
REMARK    2  A    between atoms: C_14  and  C_7 
REMARK    3  A    between atoms: C_18  and  S_10 
REMARK       I    between atoms: N_11  and  C_12 
REMARK    4  A    between atoms: C_13  and  N_11 
REMARK    5  A    between atoms: C_12  and  C_18 
REMARK    6  A    between atoms: O_20  and  C_16 
ROOT
ATOM      1  N   UNL d   1      59.932  49.056  51.233  0.00  0.00    -0.186 N 
ATOM      2  N   UNL d   1      59.262  49.053  50.764  0.00  0.00    -0.162 NA
ATOM      3  C   UNL d   1      60.700  48.776  51.100  0.00  0.00     0.217 A 
ATOM      4  C   UNL d   1      59.914  49.380  51.990  0.00  0.00     0.187 A 
ATOM      5  N   UNL d   1      61.140  48.931  51.773  0.00  0.00    -0.120 NA
ATOM      6  N   UNL d   1      60.655  49.305  52.325  0.00  0.00    -0.127 NA
ATOM      7  C   UNL d   1      58.560  49.380  51.054  0.00  0.00     0.103 A 
ATOM      8  C   UNL d   1      59.208  49.708  52.280  0.00  0.00     0.042 A 
ATOM      9  C   UNL d   1      58.538  49.707  51.815  0.00  0.00     0.024 A 
ENDROOT
BRANCH   3  10
ATOM     10  S   UNL d   1      60.989  48.405  50.421  0.00  0.00    -0.041 SA
BRANCH  10  11
ATOM     11  C   UNL d   1      61.687  47.986  50.445  0.00  0.00     0.101 C 
BRANCH  11  12
ATOM     12  C   UNL d   1      61.762  47.290  50.026  0.00  0.00     0.286 C 
ATOM     13  N   UNL d   1      61.621  46.558  50.385  0.00  0.00    -0.206 NA
ATOM     14  O   UNL d   1      61.982  47.305  49.231  0.00  0.00    -0.265 OA
BRANCH  13  15
ATOM     15  C   UNL d   1      61.697  45.853  49.961  0.00  0.00     0.107 A 
ATOM     16  C   UNL d   1      61.335  45.165  50.227  0.00  0.00     0.112 A 
ATOM     17  C   UNL d   1      61.417  44.460  49.795  0.00  0.00     0.026 A 
ATOM     18  C   UNL d   1      61.859  44.461  49.107  0.00  0.00     0.002 A 
ATOM     19  C   UNL d   1      62.226  45.141  48.831  0.00  0.00     0.002 A 
ATOM     20  C   UNL d   1      62.144  45.845  49.263  0.00  0.00     0.021 A 
BRANCH  16  21
ATOM     21  O   UNL d   1      60.888  45.180  50.930  0.00  0.00    -0.327 OA
ATOM     22  C   UNL d   1      60.913  44.534  51.450  0.00  0.00     0.181 C 
ENDBRANCH  16  21
ENDBRANCH  13  15
ENDBRANCH  11  12
ENDBRANCH  10  11
ENDBRANCH   3  10
BRANCH   7  23
ATOM     23  C   UNL d   1      57.886  49.374  50.574  0.00  0.00     0.039 A 
ATOM     24  C   UNL d   1      57.192  49.050  50.835  0.00  0.00     0.101 A 
ATOM     25  N   UNL d   1      56.533  49.047  50.359  0.00  0.00    -0.242 NA
ATOM     26  C   UNL d   1      56.564  49.376  49.601  0.00  0.00     0.099 A 
ATOM     27  C   UNL d   1      57.270  49.706  49.335  0.00  0.00     0.021 A 
ATOM     28  C   UNL d   1      57.939  49.708  49.821  0.00  0.00     0.005 A 
ENDBRANCH   7  23
TORSDOF 6
ENDMDL
