MODEL 1
REMARK VINA RESULT:      -5.2      0.000      0.000
REMARK  6 active torsions:
REMARK  status: ('A' for Active; 'I' for Inactive)
REMARK    1  A    between atoms: C_2  and  C_1 
REMARK       I    between atoms: N_10  and  C_1 
REMARK    2  A    between atoms: C_3  and  C_4 
REMARK    3  A    between atoms: C_16  and  N_10 
REMARK    4  A    between atoms: C_11  and  O_12 
REMARK    5  A    between atoms: O_12  and  C_17 
REMARK    6  A    between atoms: C_17  and  C_16 
ROOT
ATOM      1  C   UNL d   1      57.778  -0.025  30.651  0.00  0.00     0.279 C 
ATOM      2  O   UNL d   1      58.119   0.681  30.394  0.00  0.00    -0.265 OA
ATOM      3  N   UNL d   1      57.962  -0.734  30.271  0.00  0.00    -0.204 NA
ENDROOT
BRANCH   1   4
ATOM      4  C   UNL d   1      57.254  -0.023  31.284  0.00  0.00     0.058 A 
ATOM      5  C   UNL d   1      57.164  -0.698  31.749  0.00  0.00     0.004 A 
ATOM      6  C   UNL d   1      56.644  -0.699  32.380  0.00  0.00    -0.004 A 
ATOM      7  C   UNL d   1      56.202  -0.015  32.556  0.00  0.00    -0.023 A 
ATOM      8  C   UNL d   1      56.292   0.661  32.091  0.00  0.00    -0.004 A 
ATOM      9  C   UNL d   1      56.818   0.657  31.456  0.00  0.00     0.004 A 
BRANCH   7  10
ATOM     10  C   UNL d   1      55.673  -0.009  33.194  0.00  0.00     0.019 C 
ATOM     11  C   UNL d   1      55.136   0.001  33.837  0.00  0.00     0.004 C 
ATOM     12  C   UNL d   1      56.025  -0.703  33.500  0.00  0.00     0.004 C 
ATOM     13  C   UNL d   1      55.320   0.680  32.895  0.00  0.00     0.004 C 
ENDBRANCH   7  10
ENDBRANCH   1   4
BRANCH   3  14
ATOM     14  C   UNL d   1      58.488  -0.739  29.635  0.00  0.00     0.129 C 
BRANCH  14  15
ATOM     15  C   UNL d   1      58.651  -1.444  29.239  0.00  0.00     0.143 C 
BRANCH  15  16
ATOM     16  O   UNL d   1      59.428  -1.716  29.182  0.00  0.00    -0.303 OA
BRANCH  16  17
ATOM     17  C   UNL d   1      59.587  -2.500  28.938  0.00  0.00     0.100 A 
ATOM     18  C   UNL d   1      58.973  -3.002  28.739  0.00  0.00     0.025 A 
ATOM     19  C   UNL d   1      59.137  -3.770  28.500  0.00  0.00     0.002 A 
ATOM     20  C   UNL d   1      59.918  -4.033  28.460  0.00  0.00     0.000 A 
ATOM     21  C   UNL d   1      60.535  -3.528  28.660  0.00  0.00     0.002 A 
ATOM     22  C   UNL d   1      60.368  -2.763  28.898  0.00  0.00     0.025 A 
ENDBRANCH  16  17
ENDBRANCH  15  16
ENDBRANCH  14  15
ENDBRANCH   3  14
TORSDOF 6
ENDMDL
MODEL 2
REMARK VINA RESULT:      -4.8      0.732      5.458
REMARK  6 active torsions:
REMARK  status: ('A' for Active; 'I' for Inactive)
REMARK    1  A    between atoms: C_2  and  C_1 
REMARK       I    between atoms: N_10  and  C_1 
REMARK    2  A    between atoms: C_3  and  C_4 
REMARK    3  A    between atoms: C_16  and  N_10 
REMARK    4  A    between atoms: C_11  and  O_12 
REMARK    5  A    between atoms: O_12  and  C_17 
REMARK    6  A    between atoms: C_17  and  C_16 
ROOT
ATOM      1  C   UNL d   1      58.551  -0.697  29.582  0.00  0.00     0.279 C 
ATOM      2  O   UNL d   1      58.527  -0.040  29.084  0.00  0.00    -0.265 OA
ATOM      3  N   UNL d   1      58.153  -0.682  30.304  0.00  0.00    -0.204 NA
ENDROOT
BRANCH   1   4
ATOM      4  C   UNL d   1      58.972  -1.367  29.359  0.00  0.00     0.058 A 
ATOM      5  C   UNL d   1      59.797  -1.350  29.338  0.00  0.00     0.004 A 
ATOM      6  C   UNL d   1      60.218  -2.015  29.117  0.00  0.00    -0.004 A 
ATOM      7  C   UNL d   1      59.814  -2.715  28.911  0.00  0.00    -0.023 A 
ATOM      8  C   UNL d   1      58.990  -2.732  28.933  0.00  0.00    -0.004 A 
ATOM      9  C   UNL d   1      58.569  -2.058  29.157  0.00  0.00     0.004 A 
BRANCH   7  10
ATOM     10  C   UNL d   1      60.236  -3.392  28.686  0.00  0.00     0.019 C 
ATOM     11  C   UNL d   1      60.667  -4.074  28.460  0.00  0.00     0.004 C 
ATOM     12  C   UNL d   1      59.519  -3.799  28.546  0.00  0.00     0.004 C 
ATOM     13  C   UNL d   1      60.951  -2.993  28.825  0.00  0.00     0.004 C 
ENDBRANCH   7  10
ENDBRANCH   1   4
BRANCH   3  14
ATOM     14  C   UNL d   1      57.730  -0.010  30.529  0.00  0.00     0.129 C 
BRANCH  14  15
ATOM     15  C   UNL d   1      57.406   0.040  31.287  0.00  0.00     0.143 C 
BRANCH  15  16
ATOM     16  O   UNL d   1      56.634  -0.216  31.424  0.00  0.00    -0.303 OA
BRANCH  16  17
ATOM     17  C   UNL d   1      56.296  -0.158  32.187  0.00  0.00     0.100 A 
ATOM     18  C   UNL d   1      56.177   0.574  32.530  0.00  0.00     0.025 A 
ATOM     19  C   UNL d   1      55.845   0.623  33.280  0.00  0.00     0.002 A 
ATOM     20  C   UNL d   1      55.632  -0.065  33.683  0.00  0.00     0.000 A 
ATOM     21  C   UNL d   1      55.752  -0.801  33.337  0.00  0.00     0.002 A 
ATOM     22  C   UNL d   1      56.083  -0.846  32.590  0.00  0.00     0.025 A 
ENDBRANCH  16  17
ENDBRANCH  15  16
ENDBRANCH  14  15
ENDBRANCH   3  14
TORSDOF 6
ENDMDL
MODEL 3
REMARK VINA RESULT:      -4.2      1.056      5.596
REMARK  6 active torsions:
REMARK  status: ('A' for Active; 'I' for Inactive)
REMARK    1  A    between atoms: C_2  and  C_1 
REMARK       I    between atoms: N_10  and  C_1 
REMARK    2  A    between atoms: C_3  and  C_4 
REMARK    3  A    between atoms: C_16  and  N_10 
REMARK    4  A    between atoms: C_11  and  O_12 
REMARK    5  A    between atoms: O_12  and  C_17 
REMARK    6  A    between atoms: C_17  and  C_16 
ROOT
ATOM      1  C   UNL d   1      57.816  -0.002  30.229  0.00  0.00     0.279 C 
ATOM      2  O   UNL d   1      57.423   0.573  29.787  0.00  0.00    -0.265 OA
ATOM      3  N   UNL d   1      57.630  -0.108  31.026  0.00  0.00    -0.204 NA
ENDROOT
BRANCH   1   4
ATOM      4  C   UNL d   1      58.393  -0.470  29.877  0.00  0.00     0.058 A 
ATOM      5  C   UNL d   1      59.126  -0.146  29.682  0.00  0.00     0.004 A 
ATOM      6  C   UNL d   1      59.702  -0.609  29.331  0.00  0.00    -0.004 A 
ATOM      7  C   UNL d   1      59.549  -1.412  29.169  0.00  0.00    -0.023 A 
ATOM      8  C   UNL d   1      58.816  -1.736  29.364  0.00  0.00    -0.004 A 
ATOM      9  C   UNL d   1      58.238  -1.265  29.718  0.00  0.00     0.004 A 
BRANCH   7  10
ATOM     10  C   UNL d   1      60.129  -1.887  28.814  0.00  0.00     0.019 C 
ATOM     11  C   UNL d   1      60.718  -2.362  28.455  0.00  0.00     0.004 C 
ATOM     12  C   UNL d   1      59.601  -2.536  28.808  0.00  0.00     0.004 C 
ATOM     13  C   UNL d   1      60.655  -1.245  28.818  0.00  0.00     0.004 C 
ENDBRANCH   7  10
ENDBRANCH   1   4
BRANCH   3  14
ATOM     14  C   UNL d   1      57.051   0.361  31.381  0.00  0.00     0.129 C 
BRANCH  14  15
ATOM     15  C   UNL d   1      56.956   0.351  32.201  0.00  0.00     0.143 C 
BRANCH  15  16
ATOM     16  O   UNL d   1      56.355  -0.101  32.541  0.00  0.00    -0.303 OA
BRANCH  16  17
ATOM     17  C   UNL d   1      55.963   0.165  33.231  0.00  0.00     0.100 A 
ATOM     18  C   UNL d   1      56.394   0.423  33.876  0.00  0.00     0.025 A 
ATOM     19  C   UNL d   1      56.002   0.682  34.550  0.00  0.00     0.002 A 
ATOM     20  C   UNL d   1      55.177   0.681  34.574  0.00  0.00     0.000 A 
ATOM     21  C   UNL d   1      54.745   0.421  33.925  0.00  0.00     0.002 A 
ATOM     22  C   UNL d   1      55.138   0.164  33.256  0.00  0.00     0.025 A 
ENDBRANCH  16  17
ENDBRANCH  15  16
ENDBRANCH  14  15
ENDBRANCH   3  14
TORSDOF 6
ENDMDL
MODEL 4
REMARK VINA RESULT:      -2.8      8.376      9.717
REMARK  6 active torsions:
REMARK  status: ('A' for Active; 'I' for Inactive)
REMARK    1  A    between atoms: C_2  and  C_1 
REMARK       I    between atoms: N_10  and  C_1 
REMARK    2  A    between atoms: C_3  and  C_4 
REMARK    3  A    between atoms: C_16  and  N_10 
REMARK    4  A    between atoms: C_11  and  O_12 
REMARK    5  A    between atoms: O_12  and  C_17 
REMARK    6  A    between atoms: C_17  and  C_16 
ROOT
ATOM      1  C   UNL d   1      58.304  -9.769  32.607  0.00  0.00     0.279 C 
ATOM      2  O   UNL d   1      57.617  -9.812  33.063  0.00  0.00    -0.265 OA
ATOM      3  N   UNL d   1      59.041  -9.737  32.975  0.00  0.00    -0.204 NA
ENDROOT
BRANCH   1   4
ATOM      4  C   UNL d   1      58.253  -9.758  31.787  0.00  0.00     0.058 A 
ATOM      5  C   UNL d   1      57.516  -9.782  31.417  0.00  0.00     0.004 A 
ATOM      6  C   UNL d   1      57.462  -9.771  30.601  0.00  0.00    -0.004 A 
ATOM      7  C   UNL d   1      58.155  -9.736  30.139  0.00  0.00    -0.023 A 
ATOM      8  C   UNL d   1      58.892  -9.712  30.508  0.00  0.00    -0.004 A 
ATOM      9  C   UNL d   1      58.941  -9.723  31.332  0.00  0.00     0.004 A 
BRANCH   7  10
ATOM     10  C   UNL d   1      58.107  -9.725  29.311  0.00  0.00     0.019 C 
ATOM     11  C   UNL d   1      58.053  -9.713  28.476  0.00  0.00     0.004 C 
ATOM     12  C   UNL d   1      58.937  -9.817  29.257  0.00  0.00     0.004 C 
ATOM     13  C   UNL d   1      57.284  -9.633  29.360  0.00  0.00     0.004 C 
ENDBRANCH   7  10
ENDBRANCH   1   4
BRANCH   3  14
ATOM     14  C   UNL d   1      59.094  -9.748  33.798  0.00  0.00     0.129 C 
BRANCH  14  15
ATOM     15  C   UNL d   1      59.664  -9.291  34.183  0.00  0.00     0.143 C 
BRANCH  15  16
ATOM     16  O   UNL d   1      59.624  -9.181  34.999  0.00  0.00    -0.303 OA
BRANCH  16  17
ATOM     17  C   UNL d   1      59.802  -8.437  35.337  0.00  0.00     0.100 A 
ATOM     18  C   UNL d   1      59.203  -7.967  35.635  0.00  0.00     0.025 A 
ATOM     19  C   UNL d   1      59.385  -7.237  35.965  0.00  0.00     0.002 A 
ATOM     20  C   UNL d   1      60.169  -6.981  35.996  0.00  0.00     0.000 A 
ATOM     21  C   UNL d   1      60.770  -7.455  35.696  0.00  0.00     0.002 A 
ATOM     22  C   UNL d   1      60.585  -8.181  35.368  0.00  0.00     0.025 A 
ENDBRANCH  16  17
ENDBRANCH  15  16
ENDBRANCH  14  15
ENDBRANCH   3  14
TORSDOF 6
ENDMDL
