MODEL 1
REMARK VINA RESULT:      -0.0      0.000      0.000
REMARK  3 active torsions:
REMARK  status: ('A' for Active; 'I' for Inactive)
REMARK    1  A    between atoms: C_8  and  C_1 
REMARK    2  A    between atoms: O_13  and  C_6 
REMARK    3  A    between atoms: C_17  and  O_13 
ROOT
ATOM      1  C   UNL d   1     -41.636-121.374 -53.161  0.00  0.00     0.009 A 
ATOM      2  C   UNL d   1     -41.509-121.991 -52.623  0.00  0.00     0.046 A 
ATOM      3  C   UNL d   1     -41.309-121.815 -51.838  0.00  0.00     0.105 A 
ATOM      4  O   UNL d   1     -41.238-121.032 -51.597  0.00  0.00    -0.273 OA
ATOM      5  C   UNL d   1     -41.567-120.591 -52.922  0.00  0.00     0.069 A 
ATOM      6  C   UNL d   1     -41.578-122.774 -52.861  0.00  0.00     0.102 A 
ATOM      7  C   UNL d   1     -41.368-120.415 -52.141  0.00  0.00     0.300 A 
ATOM      8  C   UNL d   1     -41.181-122.424 -51.299  0.00  0.00     0.025 A 
ATOM      9  C   UNL d   1     -41.451-123.387 -52.324  0.00  0.00     0.025 A 
ATOM     10  O   UNL d   1     -41.297-119.626 -51.897  0.00  0.00    -0.259 OA
ATOM     11  C   UNL d   1     -41.252-123.212 -51.543  0.00  0.00     0.004 A 
ATOM     12  C   UNL d   1     -41.123-123.816 -51.001  0.00  0.00     0.000 C 
ENDROOT
BRANCH   1  13
ATOM     13  C   UNL d   1     -41.836-121.550 -53.946  0.00  0.00     0.000 A 
ATOM     14  C   UNL d   1     -41.238-121.636 -54.514  0.00  0.00     0.000 A 
ATOM     15  C   UNL d   1     -41.440-121.814 -55.308  0.00  0.00     0.000 A 
ATOM     16  C   UNL d   1     -42.229-121.904 -55.522  0.00  0.00     0.000 A 
ATOM     17  C   UNL d   1     -42.825-121.815 -54.941  0.00  0.00     0.000 A 
ATOM     18  C   UNL d   1     -42.626-121.640 -54.160  0.00  0.00     0.000 A 
ENDBRANCH   1  13
BRANCH   6  19
ATOM     19  O   UNL d   1     -41.778-122.951 -53.646  0.00  0.00    -0.305 OA
BRANCH  19  20
ATOM     20  C   UNL d   1     -41.680-123.707 -53.937  0.00  0.00     0.123 C 
ATOM     21  C   UNL d   1     -41.326-123.817 -54.671  0.00  0.00     0.029 C 
ENDBRANCH  19  20
ENDBRANCH   6  19
TORSDOF 3
ENDMDL
MODEL 2
REMARK VINA RESULT:       1.0      0.986      2.452
REMARK  3 active torsions:
REMARK  status: ('A' for Active; 'I' for Inactive)
REMARK    1  A    between atoms: C_8  and  C_1 
REMARK    2  A    between atoms: O_13  and  C_6 
REMARK    3  A    between atoms: C_17  and  O_13 
ROOT
ATOM      1  C   UNL d   1     -41.528-122.951 -52.249  0.00  0.00     0.009 A 
ATOM      2  C   UNL d   1     -41.428-122.139 -52.119  0.00  0.00     0.046 A 
ATOM      3  C   UNL d   1     -41.242-121.866 -51.359  0.00  0.00     0.105 A 
ATOM      4  O   UNL d   1     -41.158-122.400 -50.738  0.00  0.00    -0.273 OA
ATOM      5  C   UNL d   1     -41.445-123.486 -51.631  0.00  0.00     0.069 A 
ATOM      6  C   UNL d   1     -41.511-121.603 -52.737  0.00  0.00     0.102 A 
ATOM      7  C   UNL d   1     -41.260-123.215 -50.874  0.00  0.00     0.300 A 
ATOM      8  C   UNL d   1     -41.141-121.060 -51.223  0.00  0.00     0.025 A 
ATOM      9  C   UNL d   1     -41.411-120.796 -52.606  0.00  0.00     0.025 A 
ATOM     10  O   UNL d   1     -41.175-123.752 -50.249  0.00  0.00    -0.259 OA
ATOM     11  C   UNL d   1     -41.226-120.524 -51.849  0.00  0.00     0.004 A 
ATOM     12  C   UNL d   1     -41.124-119.720 -51.709  0.00  0.00     0.000 C 
ENDROOT
BRANCH   1  13
ATOM     13  C   UNL d   1     -41.714-123.224 -53.009  0.00  0.00     0.000 A 
ATOM     14  C   UNL d   1     -42.494-123.173 -53.286  0.00  0.00     0.000 A 
ATOM     15  C   UNL d   1     -42.682-123.449 -54.055  0.00  0.00     0.000 A 
ATOM     16  C   UNL d   1     -42.094-123.769 -54.533  0.00  0.00     0.000 A 
ATOM     17  C   UNL d   1     -41.310-123.815 -54.244  0.00  0.00     0.000 A 
ATOM     18  C   UNL d   1     -41.125-123.543 -53.488  0.00  0.00     0.000 A 
ENDBRANCH   1  13
BRANCH   6  19
ATOM     19  O   UNL d   1     -41.697-121.876 -53.497  0.00  0.00    -0.305 OA
BRANCH  19  20
ATOM     20  C   UNL d   1     -41.954-121.356 -54.070  0.00  0.00     0.123 C 
ATOM     21  C   UNL d   1     -41.521-121.269 -54.764  0.00  0.00     0.029 C 
ENDBRANCH  19  20
ENDBRANCH   6  19
TORSDOF 3
ENDMDL
