MODEL 1
REMARK VINA RESULT:      16.7      0.000      0.000
REMARK  5 active torsions:
REMARK  status: ('A' for Active; 'I' for Inactive)
REMARK    1  A    between atoms: N_2  and  S_1 
REMARK    2  A    between atoms: C_4  and  S_1 
REMARK    3  A    between atoms: C_3  and  C_8 
REMARK       I    between atoms: N_7  and  C_3 
REMARK    4  A    between atoms: C_16  and  N_7 
REMARK    5  A    between atoms: C_15  and  C_16 
ROOT
ATOM      1  C   UNL d   1      45.923 -17.161  44.124  0.00  0.00     0.104 A 
ATOM      2  C   UNL d   1      45.580 -15.568  44.366  0.00  0.00     0.058 A 
ATOM      3  C   UNL d   1      45.343 -16.941  44.669  0.00  0.00     0.013 A 
ATOM      4  C   UNL d   1      46.333 -16.566  43.698  0.00  0.00     0.013 A 
ATOM      5  C   UNL d   1      45.164 -16.156  44.798  0.00  0.00     0.005 A 
ATOM      6  C   UNL d   1      46.150 -15.765  43.829  0.00  0.00     0.005 A 
ENDROOT
BRANCH   2   7
ATOM      7  C   UNL d   1      45.402 -14.739  44.492  0.00  0.00     0.279 C 
ATOM      8  N   UNL d   1      45.889 -14.172  44.127  0.00  0.00    -0.206 NA
ATOM      9  O   UNL d   1      44.775 -14.528  44.954  0.00  0.00    -0.265 OA
BRANCH   8  10
ATOM     10  C   UNL d   1      45.727 -13.382  44.241  0.00  0.00     0.104 C 
BRANCH  10  11
ATOM     11  C   UNL d   1      45.386 -12.953  43.643  0.00  0.00     0.038 A 
ATOM     12  C   UNL d   1      44.628 -12.622  43.736  0.00  0.00     0.101 A 
ATOM     13  N   UNL d   1      44.286 -12.193  43.138  0.00  0.00    -0.242 NA
ATOM     14  C   UNL d   1      44.692 -12.080  42.426  0.00  0.00     0.099 A 
ATOM     15  C   UNL d   1      45.438 -12.401  42.325  0.00  0.00     0.021 A 
ATOM     16  C   UNL d   1      45.786 -12.843  42.947  0.00  0.00     0.005 A 
ENDBRANCH  10  11
ENDBRANCH   8  10
ENDBRANCH   2   7
BRANCH   1  17
ATOM     17  S   UNL d   1      46.106 -17.963  43.992  0.00  0.00     0.271 S 
ATOM     18  O   UNL d   1      46.262 -18.064  44.803  0.00  0.00    -0.200 OA
ATOM     19  O   UNL d   1      45.945 -17.859  43.159  0.00  0.00    -0.200 OA
BRANCH  17  20
ATOM     20  N   UNL d   1      46.289 -18.767  43.856  0.00  0.00    -0.229 N 
ATOM     21  C   UNL d   1      46.299 -19.288  44.494  0.00  0.00     0.092 A 
ATOM     22  C   UNL d   1      46.477 -20.072  44.359  0.00  0.00     0.020 A 
ATOM     23  C   UNL d   1      46.646 -20.325  43.575  0.00  0.00     0.003 A 
ATOM     24  C   UNL d   1      46.632 -19.801  42.956  0.00  0.00     0.020 A 
ATOM     25  C   UNL d   1      46.453 -19.019  43.099  0.00  0.00     0.092 A 
ENDBRANCH  17  20
ENDBRANCH   1  17
TORSDOF 5
ENDMDL
