MODEL 1
REMARK VINA RESULT:      46.9      0.000      0.000
REMARK  4 active torsions:
REMARK  status: ('A' for Active; 'I' for Inactive)
REMARK    1  A    between atoms: C_9  and  C_3 
REMARK    2  A    between atoms: C_6  and  C_10 
REMARK    3  A    between atoms: S_8  and  C_9 
REMARK    4  A    between atoms: C_10  and  S_8 
ROOT
ATOM      1  C   UNL d   1     -49.241  27.387  34.586  0.00  0.00     0.074 C 
ENDROOT
BRANCH   1   2
ATOM      2  S   UNL d   1     -49.633  27.463  33.863  0.00  0.00    -0.083 SA
BRANCH   2   3
ATOM      3  C   UNL d   1     -49.693  26.796  33.381  0.00  0.00     0.035 C 
BRANCH   3   4
ATOM      4  C   UNL d   1     -50.413  26.396  33.357  0.00  0.00     0.006 A 
ATOM      5  C   UNL d   1     -50.397  25.570  33.331  0.00  0.00     0.001 A 
ATOM      6  C   UNL d   1     -49.689  25.146  33.330  0.00  0.00     0.000 C 
ATOM      7  C   UNL d   1     -51.116  25.139  33.306  0.00  0.00     0.000 A 
ATOM      8  C   UNL d   1     -51.825  25.542  33.307  0.00  0.00     0.000 A 
ATOM      9  C   UNL d   1     -51.812  26.361  33.332  0.00  0.00     0.000 A 
ATOM     10  C   UNL d   1     -51.090  26.789  33.357  0.00  0.00     0.001 A 
ENDBRANCH   3   4
ENDBRANCH   2   3
ENDBRANCH   1   2
BRANCH   1  11
ATOM     11  C   UNL d   1     -48.735  27.985  34.844  0.00  0.00     0.169 A 
ATOM     12  N   UNL d   1     -48.826  28.395  35.560  0.00  0.00    -0.225 NA
ATOM     13  C   UNL d   1     -48.199  28.946  35.603  0.00  0.00     0.101 A 
ATOM     14  C   UNL d   1     -47.733  28.856  34.897  0.00  0.00     0.101 A 
ATOM     15  C   UNL d   1     -47.973  29.505  36.148  0.00  0.00     0.021 A 
ATOM     16  N   UNL d   1     -48.087  28.252  34.443  0.00  0.00    -0.225 NA
ATOM     17  C   UNL d   1     -47.082  29.333  34.800  0.00  0.00     0.021 A 
ATOM     18  C   UNL d   1     -46.874  29.870  35.336  0.00  0.00     0.002 A 
ATOM     19  C   UNL d   1     -47.340  29.960  36.041  0.00  0.00     0.002 A 
ENDBRANCH   1  11
TORSDOF 4
ENDMDL
MODEL 2
REMARK VINA RESULT:      47.1      1.125      4.750
REMARK  4 active torsions:
REMARK  status: ('A' for Active; 'I' for Inactive)
REMARK    1  A    between atoms: C_9  and  C_3 
REMARK    2  A    between atoms: C_6  and  C_10 
REMARK    3  A    between atoms: S_8  and  C_9 
REMARK    4  A    between atoms: C_10  and  S_8 
ROOT
ATOM      1  C   UNL d   1     -49.187  27.852  33.398  0.00  0.00     0.074 C 
ENDROOT
BRANCH   1   2
ATOM      2  S   UNL d   1     -48.953  28.170  34.122  0.00  0.00    -0.083 SA
BRANCH   2   3
ATOM      3  C   UNL d   1     -48.571  28.902  34.122  0.00  0.00     0.035 C 
BRANCH   3   4
ATOM      4  C   UNL d   1     -48.205  29.152  34.817  0.00  0.00     0.006 A 
ATOM      5  C   UNL d   1     -47.965  29.941  34.866  0.00  0.00     0.001 A 
ATOM      6  C   UNL d   1     -48.082  30.473  34.246  0.00  0.00     0.000 C 
ATOM      7  C   UNL d   1     -47.590  30.220  35.562  0.00  0.00     0.000 A 
ATOM      8  C   UNL d   1     -47.467  29.708  36.184  0.00  0.00     0.000 A 
ATOM      9  C   UNL d   1     -47.715  28.930  36.108  0.00  0.00     0.000 A 
ATOM     10  C   UNL d   1     -48.090  28.654  35.410  0.00  0.00     0.001 A 
ENDBRANCH   3   4
ENDBRANCH   2   3
ENDBRANCH   1   2
BRANCH   1  11
ATOM     11  C   UNL d   1     -49.744  27.243  33.376  0.00  0.00     0.169 A 
ATOM     12  N   UNL d   1     -50.565  27.364  33.366  0.00  0.00    -0.225 NA
ATOM     13  C   UNL d   1     -50.919  26.607  33.345  0.00  0.00     0.101 A 
ATOM     14  C   UNL d   1     -50.292  26.033  33.342  0.00  0.00     0.101 A 
ATOM     15  C   UNL d   1     -51.687  26.342  33.327  0.00  0.00     0.021 A 
ATOM     16  N   UNL d   1     -49.571  26.455  33.362  0.00  0.00    -0.225 NA
ATOM     17  C   UNL d   1     -50.488  25.245  33.322  0.00  0.00     0.021 A 
ATOM     18  C   UNL d   1     -51.236  25.001  33.306  0.00  0.00     0.002 A 
ATOM     19  C   UNL d   1     -51.863  25.575  33.308  0.00  0.00     0.002 A 
ENDBRANCH   1  11
TORSDOF 4
ENDMDL
