MODEL 1
REMARK VINA RESULT:      -0.9      0.000      0.000
REMARK  4 active torsions:
REMARK  status: ('A' for Active; 'I' for Inactive)
REMARK    1  A    between atoms: S_10  and  C_3 
REMARK    2  A    between atoms: C_11  and  C_7 
REMARK    3  A    between atoms: C_13  and  S_10 
REMARK    4  A    between atoms: C_15  and  C_13 
ROOT
ATOM      1  N   UNL d   1      57.989   0.064  31.643  0.00  0.00    -0.186 N 
ATOM      2  N   UNL d   1      57.255  -0.194  31.898  0.00  0.00    -0.162 NA
ATOM      3  C   UNL d   1      58.386  -0.024  30.921  0.00  0.00     0.217 A 
ATOM      4  C   UNL d   1      58.481   0.501  32.144  0.00  0.00     0.187 A 
ATOM      5  N   UNL d   1      59.111   0.355  30.986  0.00  0.00    -0.120 NA
ATOM      6  N   UNL d   1      59.171   0.681  31.744  0.00  0.00    -0.127 NA
ATOM      7  C   UNL d   1      57.005  -0.015  32.669  0.00  0.00     0.102 A 
ATOM      8  C   UNL d   1      58.227   0.679  32.916  0.00  0.00     0.042 A 
ATOM      9  C   UNL d   1      57.494   0.422  33.174  0.00  0.00     0.024 A 
ENDROOT
BRANCH   3  10
ATOM     10  S   UNL d   1      58.120  -0.419  30.244  0.00  0.00    -0.046 SA
BRANCH  10  11
ATOM     11  C   UNL d   1      58.628  -0.569  29.625  0.00  0.00     0.038 C 
BRANCH  11  12
ATOM     12  C   UNL d   1      58.712  -1.330  29.337  0.00  0.00     0.007 A 
ATOM     13  C   UNL d   1      58.095  -1.880  29.391  0.00  0.00     0.003 A 
ATOM     14  C   UNL d   1      58.190  -2.652  29.095  0.00  0.00     0.030 A 
ATOM     15  C   UNL d   1      58.901  -2.864  28.749  0.00  0.00     0.140 A 
ATOM     16  C   UNL d   1      59.526  -2.334  28.686  0.00  0.00     0.030 A 
ATOM     17  F   UNL d   1      58.991  -3.633  28.457  0.00  0.00    -0.204 F 
ATOM     18  C   UNL d   1      59.431  -1.563  28.981  0.00  0.00     0.003 A 
ENDBRANCH  11  12
ENDBRANCH  10  11
ENDBRANCH   3  10
BRANCH   7  19
ATOM     19  C   UNL d   1      56.265  -0.274  32.932  0.00  0.00     0.022 A 
ATOM     20  C   UNL d   1      56.124  -1.072  33.027  0.00  0.00     0.022 A 
ATOM     21  C   UNL d   1      55.393  -1.348  33.288  0.00  0.00     0.099 A 
ATOM     22  N   UNL d   1      54.787  -0.781  33.456  0.00  0.00    -0.242 NA
ATOM     23  C   UNL d   1      54.931   0.020  33.359  0.00  0.00     0.099 A 
ATOM     24  C   UNL d   1      55.670   0.273  33.097  0.00  0.00     0.022 A 
ENDBRANCH   7  19
TORSDOF 4
ENDMDL
MODEL 2
REMARK VINA RESULT:      -0.7      2.579      4.791
REMARK  4 active torsions:
REMARK  status: ('A' for Active; 'I' for Inactive)
REMARK    1  A    between atoms: S_10  and  C_3 
REMARK    2  A    between atoms: C_11  and  C_7 
REMARK    3  A    between atoms: C_13  and  S_10 
REMARK    4  A    between atoms: C_15  and  C_13 
ROOT
ATOM      1  N   UNL d   1      58.802   0.672  32.215  0.00  0.00    -0.186 N 
ATOM      2  N   UNL d   1      58.574   0.667  31.428  0.00  0.00    -0.162 NA
ATOM      3  C   UNL d   1      58.362   0.678  32.918  0.00  0.00     0.217 A 
ATOM      4  C   UNL d   1      59.602   0.672  32.423  0.00  0.00     0.187 A 
ATOM      5  N   UNL d   1      58.893   0.681  33.543  0.00  0.00    -0.120 NA
ATOM      6  N   UNL d   1      59.662   0.678  33.238  0.00  0.00    -0.127 NA
ATOM      7  C   UNL d   1      59.154   0.661  30.835  0.00  0.00     0.102 A 
ATOM      8  C   UNL d   1      60.181   0.667  31.826  0.00  0.00     0.042 A 
ATOM      9  C   UNL d   1      59.957   0.662  31.039  0.00  0.00     0.024 A 
ENDROOT
BRANCH   3  10
ATOM     10  S   UNL d   1      57.539   0.679  32.997  0.00  0.00    -0.046 SA
BRANCH  10  11
ATOM     11  C   UNL d   1      57.184   0.338  33.647  0.00  0.00     0.038 C 
BRANCH  11  12
ATOM     12  C   UNL d   1      56.369   0.314  33.706  0.00  0.00     0.007 A 
ATOM     13  C   UNL d   1      55.983   0.543  34.403  0.00  0.00     0.003 A 
ATOM     14  C   UNL d   1      55.153   0.515  34.455  0.00  0.00     0.030 A 
ATOM     15  C   UNL d   1      54.719   0.260  33.809  0.00  0.00     0.140 A 
ATOM     16  C   UNL d   1      55.083   0.029  33.108  0.00  0.00     0.030 A 
ATOM     17  F   UNL d   1      53.894   0.234  33.864  0.00  0.00    -0.204 F 
ATOM     18  C   UNL d   1      55.912   0.056  33.057  0.00  0.00     0.003 A 
ENDBRANCH  11  12
ENDBRANCH  10  11
ENDBRANCH   3  10
BRANCH   7  19
ATOM     19  C   UNL d   1      58.929   0.656  30.040  0.00  0.00     0.022 A 
ATOM     20  C   UNL d   1      59.500   0.625  29.457  0.00  0.00     0.022 A 
ATOM     21  C   UNL d   1      59.294   0.619  28.660  0.00  0.00     0.099 A 
ATOM     22  N   UNL d   1      58.473   0.645  28.457  0.00  0.00    -0.242 NA
ATOM     23  C   UNL d   1      57.902   0.676  29.044  0.00  0.00     0.099 A 
ATOM     24  C   UNL d   1      58.131   0.682  29.835  0.00  0.00     0.022 A 
ENDBRANCH   7  19
TORSDOF 4
ENDMDL
MODEL 3
REMARK VINA RESULT:      -0.6      8.708      9.183
REMARK  4 active torsions:
REMARK  status: ('A' for Active; 'I' for Inactive)
REMARK    1  A    between atoms: S_10  and  C_3 
REMARK    2  A    between atoms: C_11  and  C_7 
REMARK    3  A    between atoms: C_13  and  S_10 
REMARK    4  A    between atoms: C_15  and  C_13 
ROOT
ATOM      1  N   UNL d   1      59.642  -9.593  31.794  0.00  0.00    -0.186 N 
ATOM      2  N   UNL d   1      59.308  -9.456  32.529  0.00  0.00    -0.162 NA
ATOM      3  C   UNL d   1      59.305  -9.698  31.043  0.00  0.00     0.217 A 
ATOM      4  C   UNL d   1      60.463  -9.649  31.707  0.00  0.00     0.187 A 
ATOM      5  N   UNL d   1      59.917  -9.816  30.510  0.00  0.00    -0.120 NA
ATOM      6  N   UNL d   1      60.635  -9.786  30.919  0.00  0.00    -0.127 NA
ATOM      7  C   UNL d   1      59.799  -9.374  33.192  0.00  0.00     0.102 A 
ATOM      8  C   UNL d   1      60.953  -9.566  32.374  0.00  0.00     0.042 A 
ATOM      9  C   UNL d   1      60.622  -9.429  33.110  0.00  0.00     0.024 A 
ENDROOT
BRANCH   3  10
ATOM     10  S   UNL d   1      58.502  -9.688  30.847  0.00  0.00    -0.046 SA
BRANCH  10  11
ATOM     11  C   UNL d   1      58.220  -9.175  30.279  0.00  0.00     0.038 C 
BRANCH  11  12
ATOM     12  C   UNL d   1      57.517  -9.335  29.892  0.00  0.00     0.007 A 
ATOM     13  C   UNL d   1      56.870  -9.659  30.296  0.00  0.00     0.003 A 
ATOM     14  C   UNL d   1      56.159  -9.818  29.896  0.00  0.00     0.030 A 
ATOM     15  C   UNL d   1      56.103  -9.651  29.096  0.00  0.00     0.140 A 
ATOM     16  C   UNL d   1      56.733  -9.329  28.677  0.00  0.00     0.030 A 
ATOM     17  F   UNL d   1      55.394  -9.810  28.701  0.00  0.00    -0.204 F 
ATOM     18  C   UNL d   1      57.444  -9.170  29.077  0.00  0.00     0.003 A 
ENDBRANCH  11  12
ENDBRANCH  10  11
ENDBRANCH   3  10
BRANCH   7  19
ATOM     19  C   UNL d   1      59.467  -9.236  33.936  0.00  0.00     0.022 A 
ATOM     20  C   UNL d   1      59.010  -9.812  34.290  0.00  0.00     0.022 A 
ATOM     21  C   UNL d   1      58.671  -9.692  35.031  0.00  0.00     0.099 A 
ATOM     22  N   UNL d   1      58.808  -8.952  35.419  0.00  0.00    -0.242 NA
ATOM     23  C   UNL d   1      59.267  -8.376  35.062  0.00  0.00     0.099 A 
ATOM     24  C   UNL d   1      59.596  -8.517  34.320  0.00  0.00     0.022 A 
ENDBRANCH   7  19
TORSDOF 4
ENDMDL
MODEL 4
REMARK VINA RESULT:       1.1      2.000      2.378
REMARK  4 active torsions:
REMARK  status: ('A' for Active; 'I' for Inactive)
REMARK    1  A    between atoms: S_10  and  C_3 
REMARK    2  A    between atoms: C_11  and  C_7 
REMARK    3  A    between atoms: C_13  and  S_10 
REMARK    4  A    between atoms: C_15  and  C_13 
ROOT
ATOM      1  N   UNL d   1      57.026  -0.764  31.610  0.00  0.00    -0.186 N 
ATOM      2  N   UNL d   1      56.747  -0.319  32.238  0.00  0.00    -0.162 NA
ATOM      3  C   UNL d   1      57.572  -0.593  31.010  0.00  0.00     0.217 A 
ATOM      4  C   UNL d   1      56.759  -1.537  31.489  0.00  0.00     0.187 A 
ATOM      5  N   UNL d   1      57.633  -1.256  30.531  0.00  0.00    -0.120 NA
ATOM      6  N   UNL d   1      57.130  -1.843  30.827  0.00  0.00    -0.127 NA
ATOM      7  C   UNL d   1      56.190  -0.649  32.757  0.00  0.00     0.102 A 
ATOM      8  C   UNL d   1      56.201  -1.866  32.011  0.00  0.00     0.042 A 
ATOM      9  C   UNL d   1      55.920  -1.424  32.639  0.00  0.00     0.024 A 
ENDROOT
BRANCH   3  10
ATOM     10  S   UNL d   1      57.990   0.112  30.896  0.00  0.00    -0.046 SA
BRANCH  10  11
ATOM     11  C   UNL d   1      58.015   0.464  30.161  0.00  0.00     0.038 C 
BRANCH  11  12
ATOM     12  C   UNL d   1      58.718   0.495  29.743  0.00  0.00     0.007 A 
ATOM     13  C   UNL d   1      58.724   0.532  28.916  0.00  0.00     0.003 A 
ATOM     14  C   UNL d   1      59.444   0.563  28.499  0.00  0.00     0.030 A 
ATOM     15  C   UNL d   1      60.148   0.557  28.916  0.00  0.00     0.140 A 
ATOM     16  C   UNL d   1      60.165   0.521  29.737  0.00  0.00     0.030 A 
ATOM     17  F   UNL d   1      60.862   0.588  28.499  0.00  0.00    -0.204 F 
ATOM     18  C   UNL d   1      59.446   0.490  30.153  0.00  0.00     0.003 A 
ENDBRANCH  11  12
ENDBRANCH  10  11
ENDBRANCH   3  10
BRANCH   7  19
ATOM     19  C   UNL d   1      55.905  -0.204  33.393  0.00  0.00     0.022 A 
ATOM     20  C   UNL d   1      55.130   0.052  33.394  0.00  0.00     0.022 A 
ATOM     21  C   UNL d   1      54.830   0.496  34.018  0.00  0.00     0.099 A 
ATOM     22  N   UNL d   1      55.346   0.682  34.664  0.00  0.00    -0.242 NA
ATOM     23  C   UNL d   1      56.123   0.423  34.660  0.00  0.00     0.099 A 
ATOM     24  C   UNL d   1      56.402  -0.020  34.024  0.00  0.00     0.022 A 
ENDBRANCH   7  19
TORSDOF 4
ENDMDL
MODEL 5
REMARK VINA RESULT:       1.8      3.060      5.291
REMARK  4 active torsions:
REMARK  status: ('A' for Active; 'I' for Inactive)
REMARK    1  A    between atoms: S_10  and  C_3 
REMARK    2  A    between atoms: C_11  and  C_7 
REMARK    3  A    between atoms: C_13  and  S_10 
REMARK    4  A    between atoms: C_15  and  C_13 
ROOT
ATOM      1  N   UNL d   1      59.784  -3.125  28.763  0.00  0.00    -0.186 N 
ATOM      2  N   UNL d   1      59.178  -3.675  28.726  0.00  0.00    -0.162 NA
ATOM      3  C   UNL d   1      59.782  -2.308  28.905  0.00  0.00     0.217 A 
ATOM      4  C   UNL d   1      60.570  -3.354  28.648  0.00  0.00     0.187 A 
ATOM      5  N   UNL d   1      60.559  -2.048  28.876  0.00  0.00    -0.120 NA
ATOM      6  N   UNL d   1      61.049  -2.694  28.717  0.00  0.00    -0.127 NA
ATOM      7  C   UNL d   1      59.358  -4.470  28.571  0.00  0.00     0.102 A 
ATOM      8  C   UNL d   1      60.747  -4.152  28.493  0.00  0.00     0.042 A 
ATOM      9  C   UNL d   1      60.144  -4.704  28.455  0.00  0.00     0.024 A 
ENDROOT
BRANCH   3  10
ATOM     10  S   UNL d   1      59.126  -1.824  29.052  0.00  0.00    -0.046 SA
BRANCH  10  11
ATOM     11  C   UNL d   1      59.213  -1.119  29.451  0.00  0.00     0.038 C 
BRANCH  11  12
ATOM     12  C   UNL d   1      58.592  -0.813  29.887  0.00  0.00     0.007 A 
ATOM     13  C   UNL d   1      58.090  -1.308  30.323  0.00  0.00     0.003 A 
ATOM     14  C   UNL d   1      57.460  -0.988  30.763  0.00  0.00     0.030 A 
ATOM     15  C   UNL d   1      57.340  -0.178  30.760  0.00  0.00     0.140 A 
ATOM     16  C   UNL d   1      57.826   0.330  30.334  0.00  0.00     0.030 A 
ATOM     17  F   UNL d   1      56.713   0.136  31.199  0.00  0.00    -0.204 F 
ATOM     18  C   UNL d   1      58.455   0.010  29.895  0.00  0.00     0.003 A 
ENDBRANCH  11  12
ENDBRANCH  10  11
ENDBRANCH   3  10
BRANCH   7  19
ATOM     19  C   UNL d   1      58.750  -5.029  28.532  0.00  0.00     0.022 A 
ATOM     20  C   UNL d   1      58.931  -5.825  28.507  0.00  0.00     0.022 A 
ATOM     21  C   UNL d   1      58.339  -6.395  28.469  0.00  0.00     0.099 A 
ATOM     22  N   UNL d   1      57.533  -6.136  28.455  0.00  0.00    -0.242 NA
ATOM     23  C   UNL d   1      57.354  -5.338  28.480  0.00  0.00     0.099 A 
ATOM     24  C   UNL d   1      57.963  -4.784  28.519  0.00  0.00     0.022 A 
ENDBRANCH   7  19
TORSDOF 4
ENDMDL
