MODEL 1
REMARK VINA RESULT:      -9.7      0.000      0.000
REMARK  3 active torsions:
REMARK  status: ('A' for Active; 'I' for Inactive)
REMARK    1  A    between atoms: C_4  and  S_1 
REMARK    2  A    between atoms: N_7  and  S_1 
REMARK    3  A    between atoms: C_14  and  N_7 
ROOT
ATOM      1  S   UNL d   1      52.641  32.772  53.172  0.00  0.00     0.285 S 
ATOM      2  O   UNL d   1      52.585  32.576  52.386  0.00  0.00    -0.198 OA
ATOM      3  O   UNL d   1      52.712  32.968  54.000  0.00  0.00    -0.198 OA
ENDROOT
BRANCH   1   4
ATOM      4  C   UNL d   1      51.969  33.267  53.110  0.00  0.00     0.105 A 
ATOM      5  C   UNL d   1      52.065  34.051  52.944  0.00  0.00     0.012 A 
ATOM      6  C   UNL d   1      51.378  34.548  52.883  0.00  0.00     0.001 A 
ATOM      7  C   UNL d   1      52.838  34.389  52.828  0.00  0.00     0.001 C 
ATOM      8  C   UNL d   1      50.641  34.263  52.985  0.00  0.00     0.000 A 
ATOM      9  C   UNL d   1      50.537  33.415  53.165  0.00  0.00     0.001 A 
ATOM     10  C   UNL d   1      50.026  34.808  52.910  0.00  0.00     0.000 C 
ATOM     11  C   UNL d   1      51.185  32.959  53.220  0.00  0.00     0.013 A 
ENDBRANCH   1   4
BRANCH   1  12
ATOM     12  N   UNL d   1      53.300  32.293  53.258  0.00  0.00    -0.158 NA
BRANCH  12  13
ATOM     13  C   UNL d   1      53.229  31.442  53.340  0.00  0.00     0.094 A 
ATOM     14  C   UNL d   1      53.376  31.066  54.053  0.00  0.00     0.029 A 
ATOM     15  C   UNL d   1      53.310  30.265  54.130  0.00  0.00     0.059 A 
ATOM     16  S   UNL d   1      53.429  29.761  54.792  0.00  0.00    -0.018 SA
ATOM     17  C   UNL d   1      53.093  29.804  53.498  0.00  0.00     0.110 A 
ATOM     18  C   UNL d   1      53.268  29.006  54.491  0.00  0.00     0.332 A 
ATOM     19  O   UNL d   1      53.326  28.317  54.995  0.00  0.00    -0.251 OA
ATOM     20  O   UNL d   1      53.072  29.016  53.744  0.00  0.00    -0.268 OA
ATOM     21  C   UNL d   1      52.943  30.137  52.789  0.00  0.00     0.027 A 
ATOM     22  C   UNL d   1      53.002  30.964  52.674  0.00  0.00     0.022 A 
ENDBRANCH  12  13
ENDBRANCH   1  12
TORSDOF 3
ENDMDL
MODEL 2
REMARK VINA RESULT:      -9.7      1.464      4.417
REMARK  3 active torsions:
REMARK  status: ('A' for Active; 'I' for Inactive)
REMARK    1  A    between atoms: C_4  and  S_1 
REMARK    2  A    between atoms: N_7  and  S_1 
REMARK    3  A    between atoms: C_14  and  N_7 
ROOT
ATOM      1  S   UNL d   1      53.070  31.652  53.073  0.00  0.00     0.285 S 
ATOM      2  O   UNL d   1      52.267  31.545  53.016  0.00  0.00    -0.198 OA
ATOM      3  O   UNL d   1      53.912  31.778  53.124  0.00  0.00    -0.198 OA
ENDROOT
BRANCH   1   4
ATOM      4  C   UNL d   1      53.145  30.953  53.528  0.00  0.00     0.105 A 
ATOM      5  C   UNL d   1      53.085  30.233  53.168  0.00  0.00     0.012 A 
ATOM      6  C   UNL d   1      53.163  29.529  53.636  0.00  0.00     0.001 A 
ATOM      7  C   UNL d   1      52.947  30.167  52.330  0.00  0.00     0.001 C 
ATOM      8  C   UNL d   1      53.293  29.556  54.422  0.00  0.00     0.000 A 
ATOM      9  C   UNL d   1      53.357  30.335  54.811  0.00  0.00     0.001 A 
ATOM     10  C   UNL d   1      53.357  28.830  54.806  0.00  0.00     0.000 C 
ATOM     11  C   UNL d   1      53.284  30.988  54.366  0.00  0.00     0.013 A 
ENDBRANCH   1   4
BRANCH   1  12
ATOM     12  N   UNL d   1      53.022  32.340  52.630  0.00  0.00    -0.158 NA
BRANCH  12  13
ATOM     13  C   UNL d   1      52.744  33.076  52.971  0.00  0.00     0.094 A 
ATOM     14  C   UNL d   1      53.247  33.577  53.379  0.00  0.00     0.029 A 
ATOM     15  C   UNL d   1      52.986  34.269  53.700  0.00  0.00     0.059 A 
ATOM     16  S   UNL d   1      53.389  34.865  54.136  0.00  0.00    -0.018 SA
ATOM     17  C   UNL d   1      52.208  34.493  53.628  0.00  0.00     0.110 A 
ATOM     18  C   UNL d   1      52.795  35.421  54.297  0.00  0.00     0.332 A 
ATOM     19  O   UNL d   1      52.975  36.131  54.739  0.00  0.00    -0.251 OA
ATOM     20  O   UNL d   1      52.107  35.218  54.009  0.00  0.00    -0.268 OA
ATOM     21  C   UNL d   1      51.691  34.028  53.237  0.00  0.00     0.027 A 
ATOM     22  C   UNL d   1      51.929  33.304  52.892  0.00  0.00     0.022 A 
ENDBRANCH  12  13
ENDBRANCH   1  12
TORSDOF 3
ENDMDL
MODEL 3
REMARK VINA RESULT:      -9.0      1.680      4.565
REMARK  3 active torsions:
REMARK  status: ('A' for Active; 'I' for Inactive)
REMARK    1  A    between atoms: C_4  and  S_1 
REMARK    2  A    between atoms: N_7  and  S_1 
REMARK    3  A    between atoms: C_14  and  N_7 
ROOT
ATOM      1  S   UNL d   1      52.756  32.794  53.089  0.00  0.00     0.285 S 
ATOM      2  O   UNL d   1      52.610  32.914  53.878  0.00  0.00    -0.198 OA
ATOM      3  O   UNL d   1      52.905  32.683  52.256  0.00  0.00    -0.198 OA
ENDROOT
BRANCH   1   4
ATOM      4  C   UNL d   1      52.927  31.987  53.229  0.00  0.00     0.105 A 
ATOM      5  C   UNL d   1      53.616  31.782  53.597  0.00  0.00     0.012 A 
ATOM      6  C   UNL d   1      53.782  30.961  53.736  0.00  0.00     0.001 A 
ATOM      7  C   UNL d   1      54.176  32.372  53.848  0.00  0.00     0.001 C 
ATOM      8  C   UNL d   1      53.279  30.384  53.513  0.00  0.00     0.000 A 
ATOM      9  C   UNL d   1      52.534  30.606  53.115  0.00  0.00     0.001 A 
ATOM     10  C   UNL d   1      53.512  29.612  53.683  0.00  0.00     0.000 C 
ATOM     11  C   UNL d   1      52.387  31.376  52.990  0.00  0.00     0.013 A 
ENDBRANCH   1   4
BRANCH   1  12
ATOM     12  N   UNL d   1      52.592  33.580  52.926  0.00  0.00    -0.158 NA
BRANCH  12  13
ATOM     13  C   UNL d   1      51.787  33.870  52.872  0.00  0.00     0.094 A 
ATOM     14  C   UNL d   1      51.389  33.902  52.156  0.00  0.00     0.029 A 
ATOM     15  C   UNL d   1      50.631  34.175  52.105  0.00  0.00     0.059 A 
ATOM     16  S   UNL d   1      50.117  34.259  51.446  0.00  0.00    -0.018 SA
ATOM     17  C   UNL d   1      50.236  34.428  52.768  0.00  0.00     0.110 A 
ATOM     18  C   UNL d   1      49.424  34.569  51.781  0.00  0.00     0.332 A 
ATOM     19  O   UNL d   1      48.745  34.742  51.290  0.00  0.00    -0.251 OA
ATOM     20  O   UNL d   1      49.480  34.672  52.545  0.00  0.00    -0.268 OA
ATOM     21  C   UNL d   1      50.593  34.410  53.481  0.00  0.00     0.027 A 
ATOM     22  C   UNL d   1      51.378  34.134  53.569  0.00  0.00     0.022 A 
ENDBRANCH  12  13
ENDBRANCH   1  12
TORSDOF 3
ENDMDL
MODEL 4
REMARK VINA RESULT:      -8.2      2.134      4.468
REMARK  3 active torsions:
REMARK  status: ('A' for Active; 'I' for Inactive)
REMARK    1  A    between atoms: C_4  and  S_1 
REMARK    2  A    between atoms: N_7  and  S_1 
REMARK    3  A    between atoms: C_14  and  N_7 
ROOT
ATOM      1  S   UNL d   1      52.823  33.048  53.506  0.00  0.00     0.285 S 
ATOM      2  O   UNL d   1      53.173  33.412  52.870  0.00  0.00    -0.198 OA
ATOM      3  O   UNL d   1      52.443  32.661  54.165  0.00  0.00    -0.198 OA
ENDROOT
BRANCH   1   4
ATOM      4  C   UNL d   1      53.460  33.270  54.001  0.00  0.00     0.105 A 
ATOM      5  C   UNL d   1      54.116  32.802  54.043  0.00  0.00     0.012 A 
ATOM      6  C   UNL d   1      54.759  33.034  54.549  0.00  0.00     0.001 A 
ATOM      7  C   UNL d   1      54.176  32.082  53.593  0.00  0.00     0.001 C 
ATOM      8  C   UNL d   1      54.734  33.702  54.983  0.00  0.00     0.000 A 
ATOM      9  C   UNL d   1      54.024  34.208  54.937  0.00  0.00     0.001 A 
ATOM     10  C   UNL d   1      55.396  33.858  55.449  0.00  0.00     0.000 C 
ATOM     11  C   UNL d   1      53.429  33.983  54.463  0.00  0.00     0.013 A 
ENDBRANCH   1   4
BRANCH   1  12
ATOM     12  N   UNL d   1      52.188  32.819  53.041  0.00  0.00    -0.158 NA
BRANCH  12  13
ATOM     13  C   UNL d   1      51.601  33.384  52.773  0.00  0.00     0.094 A 
ATOM     14  C   UNL d   1      50.964  33.596  53.243  0.00  0.00     0.029 A 
ATOM     15  C   UNL d   1      50.411  34.128  52.991  0.00  0.00     0.059 A 
ATOM     16  S   UNL d   1      49.721  34.428  53.366  0.00  0.00    -0.018 SA
ATOM     17  C   UNL d   1      50.470  34.471  52.258  0.00  0.00     0.110 A 
ATOM     18  C   UNL d   1      49.408  34.950  52.803  0.00  0.00     0.332 A 
ATOM     19  O   UNL d   1      48.689  35.384  52.966  0.00  0.00    -0.251 OA
ATOM     20  O   UNL d   1      49.831  34.985  52.157  0.00  0.00    -0.268 OA
ATOM     21  C   UNL d   1      51.077  34.288  51.774  0.00  0.00     0.027 A 
ATOM     22  C   UNL d   1      51.668  33.741  52.004  0.00  0.00     0.022 A 
ENDBRANCH  12  13
ENDBRANCH   1  12
TORSDOF 3
ENDMDL
MODEL 5
REMARK VINA RESULT:      -7.7      2.185      2.765
REMARK  3 active torsions:
REMARK  status: ('A' for Active; 'I' for Inactive)
REMARK    1  A    between atoms: C_4  and  S_1 
REMARK    2  A    between atoms: N_7  and  S_1 
REMARK    3  A    between atoms: C_14  and  N_7 
ROOT
ATOM      1  S   UNL d   1      51.746  33.720  52.639  0.00  0.00     0.285 S 
ATOM      2  O   UNL d   1      51.403  33.015  52.849  0.00  0.00    -0.198 OA
ATOM      3  O   UNL d   1      52.119  34.455  52.417  0.00  0.00    -0.198 OA
ENDROOT
BRANCH   1   4
ATOM      4  C   UNL d   1      51.016  34.119  52.736  0.00  0.00     0.105 A 
ATOM      5  C   UNL d   1      50.553  34.267  52.092  0.00  0.00     0.012 A 
ATOM      6  C   UNL d   1      49.814  34.673  52.198  0.00  0.00     0.001 A 
ATOM      7  C   UNL d   1      50.790  34.027  51.311  0.00  0.00     0.001 C 
ATOM      8  C   UNL d   1      49.563  34.911  52.916  0.00  0.00     0.000 A 
ATOM      9  C   UNL d   1      50.063  34.750  53.613  0.00  0.00     0.001 A 
ATOM     10  C   UNL d   1      48.835  35.298  52.938  0.00  0.00     0.000 C 
ATOM     11  C   UNL d   1      50.752  34.371  53.504  0.00  0.00     0.013 A 
ENDBRANCH   1   4
BRANCH   1  12
ATOM     12  N   UNL d   1      52.471  33.353  52.538  0.00  0.00    -0.158 NA
BRANCH  12  13
ATOM     13  C   UNL d   1      52.973  33.158  53.205  0.00  0.00     0.094 A 
ATOM     14  C   UNL d   1      53.431  33.726  53.578  0.00  0.00     0.029 A 
ATOM     15  C   UNL d   1      53.904  33.542  54.206  0.00  0.00     0.059 A 
ATOM     16  S   UNL d   1      54.415  34.020  54.671  0.00  0.00    -0.018 SA
ATOM     17  C   UNL d   1      53.940  32.783  54.490  0.00  0.00     0.110 A 
ATOM     18  C   UNL d   1      54.731  33.486  55.221  0.00  0.00     0.332 A 
ATOM     19  O   UNL d   1      55.290  33.750  55.812  0.00  0.00    -0.251 OA
ATOM     20  O   UNL d   1      54.464  32.766  55.128  0.00  0.00    -0.268 OA
ATOM     21  C   UNL d   1      53.506  32.205  54.152  0.00  0.00     0.027 A 
ATOM     22  C   UNL d   1      53.006  32.361  53.499  0.00  0.00     0.022 A 
ENDBRANCH  12  13
ENDBRANCH   1  12
TORSDOF 3
ENDMDL
