MODEL 1
REMARK VINA RESULT:      75.2      0.000      0.000
REMARK  6 active torsions:
REMARK  status: ('A' for Active; 'I' for Inactive)
REMARK    1  A    between atoms: S_2  and  N_1 
REMARK    2  A    between atoms: C_11  and  S_2 
REMARK    3  A    between atoms: C_6  and  C_4 
REMARK    4  A    between atoms: C_12  and  C_5 
REMARK    5  A    between atoms: O_14  and  C_8 
REMARK    6  A    between atoms: O_16  and  C_13 
ROOT
ATOM      1  N   UNL d   1      14.265  14.368  -2.689  0.00  0.00    -0.152 N 
ATOM      2  N   UNL d   1      14.212  13.610  -2.331  0.00  0.00    -0.155 NA
ATOM      3  C   UNL d   1      14.698  14.871  -2.197  0.00  0.00     0.098 A 
ATOM      4  C   UNL d   1      14.617  13.647  -1.615  0.00  0.00     0.104 A 
ATOM      5  C   UNL d   1      14.912  14.427  -1.541  0.00  0.00     0.041 A 
ENDROOT
BRANCH   3   6
ATOM      6  C   UNL d   1      14.880  15.663  -2.340  0.00  0.00     0.043 A 
ATOM      7  C   UNL d   1      14.856  16.210  -1.722  0.00  0.00     0.118 A 
ATOM      8  C   UNL d   1      15.037  17.002  -1.865  0.00  0.00     0.116 A 
ATOM      9  C   UNL d   1      15.236  17.221  -2.622  0.00  0.00     0.026 A 
ATOM     10  C   UNL d   1      15.267  16.699  -3.251  0.00  0.00     0.002 A 
ATOM     11  C   UNL d   1      15.086  15.907  -3.108  0.00  0.00     0.004 A 
BRANCH   7  12
ATOM     12  O   UNL d   1      14.652  15.964  -0.962  0.00  0.00    -0.326 OA
ATOM     13  C   UNL d   1      15.093  16.220  -0.314  0.00  0.00     0.181 C 
ENDBRANCH   7  12
BRANCH   8  14
ATOM     14  O   UNL d   1      15.008  17.522  -1.244  0.00  0.00    -0.326 OA
ATOM     15  C   UNL d   1      15.669  17.812  -0.873  0.00  0.00     0.181 C 
ENDBRANCH   8  14
ENDBRANCH   3   6
BRANCH   1  16
ATOM     16  S   UNL d   1      13.929  14.568  -3.421  0.00  0.00     0.286 S 
ATOM     17  O   UNL d   1      13.911  15.267  -3.858  0.00  0.00    -0.198 OA
ATOM     18  O   UNL d   1      13.535  13.931  -3.777  0.00  0.00    -0.198 OA
BRANCH  16  19
ATOM     19  C   UNL d   1      13.540  14.590  -4.149  0.00  0.00     0.105 A 
ATOM     20  C   UNL d   1      13.520  13.928  -4.597  0.00  0.00     0.013 A 
ATOM     21  C   UNL d   1      13.130  13.949  -5.329  0.00  0.00     0.001 A 
ATOM     22  C   UNL d   1      12.770  14.646  -5.583  0.00  0.00     0.000 A 
ATOM     23  C   UNL d   1      12.800  15.323  -5.105  0.00  0.00     0.001 A 
ATOM     24  C   UNL d   1      13.180  15.287  -4.403  0.00  0.00     0.013 A 
ENDBRANCH  16  19
ENDBRANCH   1  16
BRANCH   4  25
ATOM     25  C   UNL d   1      14.701  13.036  -1.096  0.00  0.00     0.019 A 
ATOM     26  C   UNL d   1      14.042  12.772  -0.667  0.00  0.00     0.002 A 
ATOM     27  C   UNL d   1      14.105  12.145  -0.128  0.00  0.00     0.000 A 
ATOM     28  C   UNL d   1      14.827  11.786  -0.021  0.00  0.00     0.000 A 
ATOM     29  C   UNL d   1      15.500  12.035  -0.442  0.00  0.00     0.000 A 
ATOM     30  C   UNL d   1      15.418  12.677  -0.988  0.00  0.00     0.002 A 
ENDBRANCH   4  25
TORSDOF 6
ENDMDL
MODEL 2
REMARK VINA RESULT:      76.4      1.453      3.732
REMARK  6 active torsions:
REMARK  status: ('A' for Active; 'I' for Inactive)
REMARK    1  A    between atoms: S_2  and  N_1 
REMARK    2  A    between atoms: C_11  and  S_2 
REMARK    3  A    between atoms: C_6  and  C_4 
REMARK    4  A    between atoms: C_12  and  C_5 
REMARK    5  A    between atoms: O_14  and  C_8 
REMARK    6  A    between atoms: O_16  and  C_13 
ROOT
ATOM      1  N   UNL d   1      14.029  14.745  -4.016  0.00  0.00    -0.152 N 
ATOM      2  N   UNL d   1      14.004  15.328  -4.619  0.00  0.00    -0.155 NA
ATOM      3  C   UNL d   1      14.402  15.059  -3.349  0.00  0.00     0.098 A 
ATOM      4  C   UNL d   1      14.364  16.006  -4.321  0.00  0.00     0.104 A 
ATOM      5  C   UNL d   1      14.605  15.831  -3.539  0.00  0.00     0.041 A 
ENDROOT
BRANCH   3   6
ATOM      6  C   UNL d   1      14.541  14.672  -2.634  0.00  0.00     0.043 A 
ATOM      7  C   UNL d   1      14.829  15.094  -1.985  0.00  0.00     0.118 A 
ATOM      8  C   UNL d   1      14.969  14.706  -1.270  0.00  0.00     0.116 A 
ATOM      9  C   UNL d   1      14.815  13.910  -1.227  0.00  0.00     0.026 A 
ATOM     10  C   UNL d   1      14.529  13.469  -1.855  0.00  0.00     0.002 A 
ATOM     11  C   UNL d   1      14.390  13.857  -2.570  0.00  0.00     0.004 A 
BRANCH   7  12
ATOM     12  O   UNL d   1      14.978  15.902  -2.052  0.00  0.00    -0.326 OA
ATOM     13  C   UNL d   1      14.818  16.404  -1.418  0.00  0.00     0.181 C 
ENDBRANCH   7  12
BRANCH   8  14
ATOM     14  O   UNL d   1      15.252  15.140  -0.646  0.00  0.00    -0.326 OA
ATOM     15  C   UNL d   1      15.655  14.813  -0.022  0.00  0.00     0.181 C 
ENDBRANCH   8  14
ENDBRANCH   3   6
BRANCH   1  16
ATOM     16  S   UNL d   1      13.724  13.976  -4.090  0.00  0.00     0.286 S 
ATOM     17  O   UNL d   1      13.433  13.432  -3.542  0.00  0.00    -0.198 OA
ATOM     18  O   UNL d   1      13.713  13.710  -4.875  0.00  0.00    -0.198 OA
BRANCH  16  19
ATOM     19  C   UNL d   1      13.454  13.239  -4.343  0.00  0.00     0.105 A 
ATOM     20  C   UNL d   1      13.604  13.009  -5.095  0.00  0.00     0.013 A 
ATOM     21  C   UNL d   1      13.334  12.268  -5.351  0.00  0.00     0.001 A 
ATOM     22  C   UNL d   1      12.916  11.781  -4.832  0.00  0.00     0.000 A 
ATOM     23  C   UNL d   1      12.769  12.035  -4.057  0.00  0.00     0.001 A 
ATOM     24  C   UNL d   1      13.036  12.751  -3.825  0.00  0.00     0.013 A 
ENDBRANCH  16  19
ENDBRANCH   1  16
BRANCH   4  25
ATOM     25  C   UNL d   1      14.456  16.698  -4.724  0.00  0.00     0.019 A 
ATOM     26  C   UNL d   1      15.046  17.232  -4.489  0.00  0.00     0.002 A 
ATOM     27  C   UNL d   1      15.159  17.949  -4.887  0.00  0.00     0.000 A 
ATOM     28  C   UNL d   1      14.680  18.130  -5.520  0.00  0.00     0.000 A 
ATOM     29  C   UNL d   1      14.082  17.610  -5.772  0.00  0.00     0.000 A 
ATOM     30  C   UNL d   1      13.980  16.880  -5.353  0.00  0.00     0.002 A 
ENDBRANCH   4  25
TORSDOF 6
ENDMDL
