MODEL 1
REMARK VINA RESULT:      -2.5      0.000      0.000
REMARK  3 active torsions:
REMARK  status: ('A' for Active; 'I' for Inactive)
REMARK    1  A    between atoms: N_9  and  C_3 
REMARK    2  A    between atoms: C_14  and  C_5 
REMARK       I    between atoms: C_10  and  N_11 
REMARK    3  A    between atoms: C_13  and  C_10 
ROOT
ATOM      1  N   UNL d   1      32.876  21.150 -22.314  0.00  0.00    -0.196 N 
ATOM      2  C   UNL d   1      32.874  21.922 -22.027  0.00  0.00     0.167 A 
ATOM      3  C   UNL d   1      32.997  21.007 -23.115  0.00  0.00     0.152 A 
ATOM      4  N   UNL d   1      32.744  20.645 -21.682  0.00  0.00    -0.163 NA
ATOM      5  C   UNL d   1      32.742  21.890 -21.221  0.00  0.00     0.055 A 
ATOM      6  C   UNL d   1      32.661  21.103 -21.004  0.00  0.00     0.104 A 
ATOM      7  N   UNL d   1      32.994  22.553 -22.542  0.00  0.00    -0.227 NA
ATOM      8  C   UNL d   1      33.119  21.641 -23.638  0.00  0.00     0.057 A 
ATOM      9  C   UNL d   1      33.117  22.414 -23.351  0.00  0.00     0.086 A 
ATOM     10  C   UNL d   1      32.522  20.828 -20.240  0.00  0.00     0.023 C 
ATOM     11  C   UNL d   1      33.238  23.054 -23.867  0.00  0.00     0.021 C 
ENDROOT
BRANCH   3  12
ATOM     12  N   UNL d   1      32.999  20.229 -23.403  0.00  0.00    -0.286 N 
ATOM     13  C   UNL d   1      32.784  19.592 -22.930  0.00  0.00     0.101 A 
ATOM     14  C   UNL d   1      32.793  18.827 -23.238  0.00  0.00     0.102 A 
ATOM     15  N   UNL d   1      33.013  18.695 -24.009  0.00  0.00    -0.267 N 
ATOM     16  C   UNL d   1      33.020  17.920 -24.314  0.00  0.00     0.288 C 
ATOM     17  C   UNL d   1      33.232  19.333 -24.495  0.00  0.00     0.102 A 
ATOM     18  O   UNL d   1      33.241  17.777 -25.089  0.00  0.00    -0.264 OA
ATOM     19  C   UNL d   1      33.223  20.099 -24.186  0.00  0.00     0.101 A 
BRANCH  16  20
ATOM     20  C   UNL d   1      32.801  17.294 -23.824  0.00  0.00     0.156 A 
ATOM     21  O   UNL d   1      33.020  17.085 -23.067  0.00  0.00    -0.300 OA
ATOM     22  C   UNL d   1      32.613  16.399 -22.869  0.00  0.00     0.123 A 
ATOM     23  C   UNL d   1      32.149  16.182 -23.490  0.00  0.00     0.029 A 
ATOM     24  C   UNL d   1      32.258  16.734 -24.093  0.00  0.00     0.032 A 
ENDBRANCH  16  20
ENDBRANCH   3  12
BRANCH   5  25
ATOM     25  C   UNL d   1      32.683  22.485 -20.646  0.00  0.00     0.004 A 
ATOM     26  C   UNL d   1      32.087  23.052 -20.701  0.00  0.00     0.000 A 
ATOM     27  C   UNL d   1      32.028  23.647 -20.126  0.00  0.00     0.000 A 
ATOM     28  C   UNL d   1      32.566  23.672 -19.500  0.00  0.00     0.000 A 
ATOM     29  C   UNL d   1      33.164  23.101 -19.447  0.00  0.00     0.000 A 
ATOM     30  C   UNL d   1      33.220  22.510 -20.020  0.00  0.00     0.000 A 
ENDBRANCH   5  25
TORSDOF 3
ENDMDL
MODEL 2
REMARK VINA RESULT:      -0.9      2.445      5.832
REMARK  3 active torsions:
REMARK  status: ('A' for Active; 'I' for Inactive)
REMARK    1  A    between atoms: N_9  and  C_3 
REMARK    2  A    between atoms: C_14  and  C_5 
REMARK       I    between atoms: C_10  and  N_11 
REMARK    3  A    between atoms: C_13  and  C_10 
ROOT
ATOM      1  N   UNL d   1      30.861  17.741 -23.879  0.00  0.00    -0.196 N 
ATOM      2  C   UNL d   1      30.533  17.012 -24.080  0.00  0.00     0.167 A 
ATOM      3  C   UNL d   1      31.678  17.839 -23.875  0.00  0.00     0.152 A 
ATOM      4  N   UNL d   1      30.248  18.258 -23.712  0.00  0.00    -0.163 NA
ATOM      5  C   UNL d   1      29.719  17.083 -24.036  0.00  0.00     0.055 A 
ATOM      6  C   UNL d   1      29.540  17.850 -23.809  0.00  0.00     0.104 A 
ATOM      7  N   UNL d   1      31.022  16.380 -24.277  0.00  0.00    -0.227 NA
ATOM      8  C   UNL d   1      32.175  17.203 -24.073  0.00  0.00     0.057 A 
ATOM      9  C   UNL d   1      31.847  16.474 -24.274  0.00  0.00     0.086 A 
ATOM     10  C   UNL d   1      28.781  18.152 -23.699  0.00  0.00     0.023 C 
ATOM     11  C   UNL d   1      32.336  15.833 -24.473  0.00  0.00     0.021 C 
ENDROOT
BRANCH   3  12
ATOM     12  N   UNL d   1      32.008  18.572 -23.673  0.00  0.00    -0.286 N 
ATOM     13  C   UNL d   1      32.103  18.803 -22.889  0.00  0.00     0.101 A 
ATOM     14  C   UNL d   1      32.434  19.537 -22.712  0.00  0.00     0.102 A 
ATOM     15  N   UNL d   1      32.668  20.039 -23.307  0.00  0.00    -0.267 N 
ATOM     16  C   UNL d   1      33.002  20.779 -23.121  0.00  0.00     0.288 C 
ATOM     17  C   UNL d   1      32.576  19.814 -24.102  0.00  0.00     0.102 A 
ATOM     18  O   UNL d   1      33.241  21.291 -23.713  0.00  0.00    -0.264 OA
ATOM     19  C   UNL d   1      32.245  19.079 -24.279  0.00  0.00     0.101 A 
BRANCH  16  20
ATOM     20  C   UNL d   1      33.089  20.992 -22.329  0.00  0.00     0.156 A 
ATOM     21  O   UNL d   1      33.171  20.554 -21.646  0.00  0.00    -0.300 OA
ATOM     22  C   UNL d   1      33.236  21.079 -21.017  0.00  0.00     0.123 A 
ATOM     23  C   UNL d   1      33.196  21.832 -21.301  0.00  0.00     0.029 A 
ATOM     24  C   UNL d   1      33.104  21.790 -22.119  0.00  0.00     0.032 A 
ENDBRANCH  16  20
ENDBRANCH   3  12
BRANCH   5  25
ATOM     25  C   UNL d   1      29.109  16.539 -24.175  0.00  0.00     0.004 A 
ATOM     26  C   UNL d   1      28.767  16.135 -23.542  0.00  0.00     0.000 A 
ATOM     27  C   UNL d   1      28.156  15.591 -23.681  0.00  0.00     0.000 A 
ATOM     28  C   UNL d   1      27.891  15.454 -24.451  0.00  0.00     0.000 A 
ATOM     29  C   UNL d   1      28.236  15.862 -25.085  0.00  0.00     0.000 A 
ATOM     30  C   UNL d   1      28.844  16.403 -24.944  0.00  0.00     0.000 A 
ENDBRANCH   5  25
TORSDOF 3
ENDMDL
