MODEL 1
REMARK VINA RESULT:      -4.5      0.000      0.000
REMARK  3 active torsions:
REMARK  status: ('A' for Active; 'I' for Inactive)
REMARK    1  A    between atoms: C_2  and  C_1 
REMARK    2  A    between atoms: C_5  and  C_2 
REMARK    3  A    between atoms: C_4  and  C_3 
ROOT
ATOM      1  C   UNL d   1      57.951   0.373  31.253  0.00  0.00     0.045 A 
ATOM      2  C   UNL d   1      58.421   0.285  30.581  0.00  0.00     0.068 A 
ATOM      3  C   UNL d   1      58.289   0.570  31.977  0.00  0.00     0.003 A 
ATOM      4  C   UNL d   1      59.239   0.396  30.635  0.00  0.00     0.006 A 
ATOM      5  C   UNL d   1      59.101   0.682  32.034  0.00  0.00     0.000 A 
ATOM      6  C   UNL d   1      59.581   0.594  31.356  0.00  0.00     0.000 A 
ENDROOT
BRANCH   1   7
ATOM      7  C   UNL d   1      57.128   0.261  31.201  0.00  0.00     0.196 C 
ATOM      8  O   UNL d   1      56.734   0.461  30.507  0.00  0.00    -0.287 OA
BRANCH   7   9
ATOM      9  C   UNL d   1      56.709  -0.049  31.842  0.00  0.00     0.039 A 
ATOM     10  C   UNL d   1      56.358   0.461  32.396  0.00  0.00     0.005 A 
ATOM     11  C   UNL d   1      55.939   0.144  33.037  0.00  0.00     0.030 A 
ATOM     12  C   UNL d   1      55.871  -0.669  33.124  0.00  0.00     0.140 A 
ATOM     13  C   UNL d   1      56.218  -1.172  32.576  0.00  0.00     0.030 A 
ATOM     14  F   UNL d   1      55.448  -0.974  33.772  0.00  0.00    -0.204 F 
ATOM     15  C   UNL d   1      56.638  -0.869  31.934  0.00  0.00     0.005 A 
ENDBRANCH   7   9
ENDBRANCH   1   7
BRANCH   2  16
ATOM     16  C   UNL d   1      58.071   0.087  29.863  0.00  0.00     0.211 C 
ATOM     17  O   UNL d   1      58.080  -0.698  29.600  0.00  0.00    -0.644 OA
ATOM     18  O   UNL d   1      57.715   0.677  29.415  0.00  0.00    -0.644 OA
ENDBRANCH   2  16
TORSDOF 3
ENDMDL
MODEL 2
REMARK VINA RESULT:      -3.9      0.738      1.211
REMARK  3 active torsions:
REMARK  status: ('A' for Active; 'I' for Inactive)
REMARK    1  A    between atoms: C_2  and  C_1 
REMARK    2  A    between atoms: C_5  and  C_2 
REMARK    3  A    between atoms: C_4  and  C_3 
ROOT
ATOM      1  C   UNL d   1      57.520   0.235  31.913  0.00  0.00     0.045 A 
ATOM      2  C   UNL d   1      58.030   0.233  31.264  0.00  0.00     0.068 A 
ATOM      3  C   UNL d   1      57.792   0.458  32.657  0.00  0.00     0.003 A 
ATOM      4  C   UNL d   1      58.820   0.457  31.363  0.00  0.00     0.006 A 
ATOM      5  C   UNL d   1      58.575   0.682  32.759  0.00  0.00     0.000 A 
ATOM      6  C   UNL d   1      59.096   0.681  32.104  0.00  0.00     0.000 A 
ENDROOT
BRANCH   1   7
ATOM      7  C   UNL d   1      56.725   0.009  31.817  0.00  0.00     0.196 C 
ATOM      8  O   UNL d   1      56.449  -0.196  31.069  0.00  0.00    -0.287 OA
BRANCH   7   9
ATOM      9  C   UNL d   1      56.216  -0.008  32.467  0.00  0.00     0.039 A 
ATOM     10  C   UNL d   1      56.092  -0.718  32.881  0.00  0.00     0.005 A 
ATOM     11  C   UNL d   1      55.580  -0.730  33.532  0.00  0.00     0.030 A 
ATOM     12  C   UNL d   1      55.197  -0.044  33.768  0.00  0.00     0.140 A 
ATOM     13  C   UNL d   1      55.320   0.658  33.358  0.00  0.00     0.030 A 
ATOM     14  F   UNL d   1      54.686  -0.069  34.423  0.00  0.00    -0.204 F 
ATOM     15  C   UNL d   1      55.827   0.682  32.708  0.00  0.00     0.005 A 
ENDBRANCH   7   9
ENDBRANCH   1   7
BRANCH   2  16
ATOM     16  C   UNL d   1      57.746   0.007  30.525  0.00  0.00     0.211 C 
ATOM     17  O   UNL d   1      57.396   0.567  30.027  0.00  0.00    -0.644 OA
ATOM     18  O   UNL d   1      57.817  -0.778  30.293  0.00  0.00    -0.644 OA
ENDBRANCH   2  16
TORSDOF 3
ENDMDL
MODEL 3
REMARK VINA RESULT:      -3.7      1.988      3.252
REMARK  3 active torsions:
REMARK  status: ('A' for Active; 'I' for Inactive)
REMARK    1  A    between atoms: C_2  and  C_1 
REMARK    2  A    between atoms: C_5  and  C_2 
REMARK    3  A    between atoms: C_4  and  C_3 
ROOT
ATOM      1  C   UNL d   1      56.991  -0.100  32.678  0.00  0.00     0.045 A 
ATOM      2  C   UNL d   1      56.431  -0.110  33.284  0.00  0.00     0.068 A 
ATOM      3  C   UNL d   1      57.706   0.295  32.777  0.00  0.00     0.003 A 
ATOM      4  C   UNL d   1      56.591   0.278  33.997  0.00  0.00     0.006 A 
ATOM      5  C   UNL d   1      57.868   0.682  33.483  0.00  0.00     0.000 A 
ATOM      6  C   UNL d   1      57.305   0.674  34.100  0.00  0.00     0.000 A 
ENDROOT
BRANCH   1   7
ATOM      7  C   UNL d   1      56.832  -0.490  31.961  0.00  0.00     0.196 C 
ATOM      8  O   UNL d   1      56.258  -1.079  31.937  0.00  0.00    -0.287 OA
BRANCH   7   9
ATOM      9  C   UNL d   1      57.248  -0.287  31.277  0.00  0.00     0.039 A 
ATOM     10  C   UNL d   1      57.196   0.483  30.969  0.00  0.00     0.005 A 
ATOM     11  C   UNL d   1      57.616   0.680  30.283  0.00  0.00     0.030 A 
ATOM     12  C   UNL d   1      58.081   0.118  29.907  0.00  0.00     0.140 A 
ATOM     13  C   UNL d   1      58.132  -0.644  30.212  0.00  0.00     0.030 A 
ATOM     14  F   UNL d   1      58.497   0.328  29.219  0.00  0.00    -0.204 F 
ATOM     15  C   UNL d   1      57.718  -0.852  30.895  0.00  0.00     0.005 A 
ENDBRANCH   7   9
ENDBRANCH   1   7
BRANCH   2  16
ATOM     16  C   UNL d   1      55.719  -0.508  33.174  0.00  0.00     0.211 C 
ATOM     17  O   UNL d   1      55.036  -0.087  32.973  0.00  0.00    -0.644 OA
ATOM     18  O   UNL d   1      55.699  -1.324  33.265  0.00  0.00    -0.644 OA
ENDBRANCH   2  16
TORSDOF 3
ENDMDL
MODEL 4
REMARK VINA RESULT:      -2.9      2.784      3.995
REMARK  3 active torsions:
REMARK  status: ('A' for Active; 'I' for Inactive)
REMARK    1  A    between atoms: C_2  and  C_1 
REMARK    2  A    between atoms: C_5  and  C_2 
REMARK    3  A    between atoms: C_4  and  C_3 
ROOT
ATOM      1  C   UNL d   1      59.415  -0.424  29.410  0.00  0.00     0.045 A 
ATOM      2  C   UNL d   1      58.954   0.070  29.884  0.00  0.00     0.068 A 
ATOM      3  C   UNL d   1      60.236  -0.370  29.423  0.00  0.00     0.003 A 
ATOM      4  C   UNL d   1      59.322   0.624  30.377  0.00  0.00     0.006 A 
ATOM      5  C   UNL d   1      60.604   0.179  29.911  0.00  0.00     0.000 A 
ATOM      6  C   UNL d   1      60.141   0.682  30.394  0.00  0.00     0.000 A 
ENDROOT
BRANCH   1   7
ATOM      7  C   UNL d   1      59.048  -0.982  28.914  0.00  0.00     0.196 C 
ATOM      8  O   UNL d   1      58.403  -0.756  28.455  0.00  0.00    -0.287 OA
BRANCH   7   9
ATOM      9  C   UNL d   1      59.329  -1.758  28.882  0.00  0.00     0.039 A 
ATOM     10  C   UNL d   1      58.905  -2.371  29.248  0.00  0.00     0.005 A 
ATOM     11  C   UNL d   1      59.191  -3.148  29.212  0.00  0.00     0.030 A 
ATOM     12  C   UNL d   1      59.891  -3.311  28.817  0.00  0.00     0.140 A 
ATOM     13  C   UNL d   1      60.311  -2.705  28.455  0.00  0.00     0.030 A 
ATOM     14  F   UNL d   1      60.168  -4.095  28.789  0.00  0.00    -0.204 F 
ATOM     15  C   UNL d   1      60.035  -1.928  28.484  0.00  0.00     0.005 A 
ENDBRANCH   7   9
ENDBRANCH   1   7
BRANCH   2  16
ATOM     16  C   UNL d   1      58.134   0.006  29.862  0.00  0.00     0.211 C 
ATOM     17  O   UNL d   1      57.709   0.339  29.234  0.00  0.00    -0.644 OA
ATOM     18  O   UNL d   1      57.747  -0.391  30.468  0.00  0.00    -0.644 OA
ENDBRANCH   2  16
TORSDOF 3
ENDMDL
MODEL 5
REMARK VINA RESULT:      -2.0      1.984      3.265
REMARK  3 active torsions:
REMARK  status: ('A' for Active; 'I' for Inactive)
REMARK    1  A    between atoms: C_2  and  C_1 
REMARK    2  A    between atoms: C_5  and  C_2 
REMARK    3  A    between atoms: C_4  and  C_3 
ROOT
ATOM      1  C   UNL d   1      58.221   0.292  31.110  0.00  0.00     0.045 A 
ATOM      2  C   UNL d   1      57.647   0.298  31.703  0.00  0.00     0.068 A 
ATOM      3  C   UNL d   1      59.004   0.479  31.284  0.00  0.00     0.003 A 
ATOM      4  C   UNL d   1      57.861   0.494  32.478  0.00  0.00     0.006 A 
ATOM      5  C   UNL d   1      59.219   0.674  32.052  0.00  0.00     0.000 A 
ATOM      6  C   UNL d   1      58.641   0.681  32.656  0.00  0.00     0.000 A 
ENDROOT
BRANCH   1   7
ATOM      7  C   UNL d   1      58.009   0.095  30.330  0.00  0.00     0.196 C 
ATOM      8  O   UNL d   1      57.306   0.385  30.015  0.00  0.00    -0.287 OA
BRANCH   7   9
ATOM      9  C   UNL d   1      58.500  -0.388  29.875  0.00  0.00     0.039 A 
ATOM     10  C   UNL d   1      58.428  -1.215  29.917  0.00  0.00     0.005 A 
ATOM     11  C   UNL d   1      58.923  -1.694  29.458  0.00  0.00     0.030 A 
ATOM     12  C   UNL d   1      59.483  -1.355  28.964  0.00  0.00     0.140 A 
ATOM     13  C   UNL d   1      59.555  -0.537  28.922  0.00  0.00     0.030 A 
ATOM     14  F   UNL d   1      59.975  -1.847  28.508  0.00  0.00    -0.204 F 
ATOM     15  C   UNL d   1      59.067  -0.049  29.375  0.00  0.00     0.005 A 
ENDBRANCH   7   9
ENDBRANCH   1   7
BRANCH   2  16
ATOM     16  C   UNL d   1      56.868   0.108  31.517  0.00  0.00     0.211 C 
ATOM     17  O   UNL d   1      56.578  -0.651  31.673  0.00  0.00    -0.644 OA
ATOM     18  O   UNL d   1      56.388   0.682  31.178  0.00  0.00    -0.644 OA
ENDBRANCH   2  16
TORSDOF 3
ENDMDL
