MODEL 1
REMARK VINA RESULT:       9.5      0.000      0.000
REMARK  4 active torsions:
REMARK  status: ('A' for Active; 'I' for Inactive)
REMARK    1  A    between atoms: C_6  and  N_1 
REMARK    2  A    between atoms: C_3  and  C_4 
REMARK    3  A    between atoms: C_5  and  C_3 
REMARK       I    between atoms: C_4  and  N_10 
REMARK    4  A    between atoms: N_10  and  C_13 
ROOT
ATOM      1  C   UNL d   1      45.952 -16.837  44.426  0.00  0.00     0.281 C 
ATOM      2  N   UNL d   1      46.040 -16.206  44.952  0.00  0.00    -0.208 NA
ATOM      3  O   UNL d   1      45.416 -16.776  43.802  0.00  0.00    -0.265 OA
ENDROOT
BRANCH   1   4
ATOM      4  C   UNL d   1      46.397 -17.523  44.525  0.00  0.00     0.086 C 
BRANCH   4   5
ATOM      5  C   UNL d   1      46.411 -18.102  43.931  0.00  0.00     0.144 A 
ATOM      6  C   UNL d   1      46.456 -18.900  44.137  0.00  0.00     0.297 A 
ATOM      7  N   UNL d   1      46.470 -19.485  43.553  0.00  0.00    -0.204 NA
ATOM      8  O   UNL d   1      46.486 -19.117  44.938  0.00  0.00    -0.264 OA
ATOM      9  C   UNL d   1      46.439 -19.255  42.766  0.00  0.00     0.123 A 
ATOM     10  C   UNL d   1      46.395 -18.458  42.559  0.00  0.00     0.120 A 
ATOM     11  N   UNL d   1      46.381 -17.890  43.140  0.00  0.00    -0.237 NA
ENDBRANCH   4   5
ENDBRANCH   1   4
BRANCH   2  12
ATOM     12  C   UNL d   1      45.595 -15.521  44.853  0.00  0.00     0.086 A 
ATOM     13  C   UNL d   1      45.972 -14.815  44.651  0.00  0.00     0.043 A 
ATOM     14  C   UNL d   1      45.526 -14.130  44.552  0.00  0.00     0.128 A 
ATOM     15  C   UNL d   1      44.707 -14.151  44.654  0.00  0.00     0.024 A 
ATOM     16  C   UNL d   1      44.335 -14.857  44.855  0.00  0.00     0.003 A 
ATOM     17  C   UNL d   1      44.780 -15.542  44.954  0.00  0.00     0.019 A 
BRANCH  14  18
ATOM     18  N   UNL d   1      45.899 -13.424  44.351  0.00  0.00    -0.114 N 
ATOM     19  O   UNL d   1      46.342 -13.008  44.909  0.00  0.00    -0.532 OA
ATOM     20  O   UNL d   1      45.833 -13.120  43.577  0.00  0.00    -0.532 OA
ENDBRANCH  14  18
ENDBRANCH   2  12
TORSDOF 4
ENDMDL
