MODEL 1
REMARK VINA RESULT:      -1.5      0.000      0.000
REMARK  2 active torsions:
REMARK  status: ('A' for Active; 'I' for Inactive)
REMARK    1  A    between atoms: C_5  and  CA_2 
REMARK    2  A    between atoms: C_4  and  CA_3 
ROOT
ATOM      1  N   UNL d   1      23.732  12.976  -1.333  0.00  0.00    -0.233 NA
ATOM      2  CA  UNL d   1      23.607  12.998  -0.518  0.00  0.00     0.146 A 
ATOM      3  CA  UNL d   1      24.260  12.438  -1.658  0.00  0.00     0.146 A 
ATOM      4  C   UNL d   1      24.673  11.912  -1.164  0.00  0.00     0.025 A 
ATOM      5  C   UNL d   1      24.019  12.472  -0.023  0.00  0.00     0.025 A 
ATOM      6  C   UNL d   1      24.554  11.927  -0.347  0.00  0.00     0.004 A 
ENDROOT
BRANCH   2   7
ATOM      7  C   UNL d   1      23.077  13.537  -0.189  0.00  0.00     0.229 C 
ATOM      8  O   UNL d   1      22.305  13.310  -0.015  0.00  0.00    -0.643 OA
ATOM      9  OXT UNL d   1      23.285  14.317  -0.018  0.00  0.00    -0.643 OA
ENDBRANCH   2   7
BRANCH   3  10
ATOM     10  C   UNL d   1      24.384  12.418  -2.469  0.00  0.00     0.229 C 
ATOM     11  O   UNL d   1      24.141  11.786  -2.932  0.00  0.00    -0.643 OA
ATOM     12  OXT UNL d   1      24.767  13.046  -2.870  0.00  0.00    -0.643 OA
ENDBRANCH   3  10
TORSDOF 2
ENDMDL
MODEL 2
REMARK VINA RESULT:      -1.1      0.243      2.591
REMARK  2 active torsions:
REMARK  status: ('A' for Active; 'I' for Inactive)
REMARK    1  A    between atoms: C_5  and  CA_2 
REMARK    2  A    between atoms: C_4  and  CA_3 
ROOT
ATOM      1  N   UNL d   1      23.620  12.809  -1.323  0.00  0.00    -0.233 NA
ATOM      2  CA  UNL d   1      24.253  12.394  -1.650  0.00  0.00     0.146 A 
ATOM      3  CA  UNL d   1      23.495  12.806  -0.512  0.00  0.00     0.146 A 
ATOM      4  C   UNL d   1      24.010  12.382  -0.015  0.00  0.00     0.025 A 
ATOM      5  C   UNL d   1      24.768  11.970  -1.154  0.00  0.00     0.025 A 
ATOM      6  C   UNL d   1      24.646  11.964  -0.333  0.00  0.00     0.004 A 
ENDROOT
BRANCH   2   7
ATOM      7  C   UNL d   1      24.381  12.396  -2.465  0.00  0.00     0.229 C 
ATOM      8  O   UNL d   1      24.768  13.026  -2.825  0.00  0.00    -0.643 OA
ATOM      9  OXT UNL d   1      24.133  11.780  -2.954  0.00  0.00    -0.643 OA
ENDBRANCH   2   7
BRANCH   3  10
ATOM     10  C   UNL d   1      22.865  13.220  -0.188  0.00  0.00     0.229 C 
ATOM     11  O   UNL d   1      22.148  12.861  -0.015  0.00  0.00    -0.643 OA
ATOM     12  OXT UNL d   1      22.921  14.038  -0.015  0.00  0.00    -0.643 OA
ENDBRANCH   3  10
TORSDOF 2
ENDMDL
