MODEL 1
REMARK VINA RESULT:      22.6      0.000      0.000
REMARK  1 active torsions:
REMARK  status: ('A' for Active; 'I' for Inactive)
REMARK    1  A    between atoms: C_10  and  N_3 
ROOT
ATOM      1  C   UNL d   1     -54.758-101.741 -37.203  0.00  0.00     0.166 A 
ATOM      2  C   UNL d   1     -54.760-100.967 -37.478  0.00  0.00     0.117 A 
ATOM      3  N   UNL d   1     -54.759-101.693 -36.375  0.00  0.00    -0.289 N 
ATOM      4  N   UNL d   1     -54.756-102.387 -37.726  0.00  0.00    -0.225 NA
ATOM      5  N   UNL d   1     -54.759-100.857 -38.298  0.00  0.00    -0.241 NA
ATOM      6  C   UNL d   1     -54.762-100.459 -36.848  0.00  0.00     0.037 A 
ATOM      7  C   UNL d   1     -54.762-100.911 -36.161  0.00  0.00     0.067 A 
ATOM      8  C   UNL d   1     -54.755-102.261 -38.523  0.00  0.00     0.101 A 
ATOM      9  C   UNL d   1     -54.757-101.482 -38.807  0.00  0.00     0.099 A 
ATOM     10  C   UNL d   1     -54.765 -99.636 -36.796  0.00  0.00     0.003 A 
ATOM     11  C   UNL d   1     -54.764-100.541 -35.422  0.00  0.00     0.018 A 
ATOM     12  C   UNL d   1     -54.756-101.347 -39.611  0.00  0.00     0.021 A 
ATOM     13  C   UNL d   1     -54.752-102.878 -39.037  0.00  0.00     0.021 A 
ATOM     14  C   UNL d   1     -54.767 -99.262 -36.060  0.00  0.00     0.000 A 
ATOM     15  C   UNL d   1     -54.767 -99.715 -35.373  0.00  0.00     0.002 A 
ATOM     16  C   UNL d   1     -54.753-101.977 -40.159  0.00  0.00     0.002 A 
ATOM     17  C   UNL d   1     -54.752-102.730 -39.865  0.00  0.00     0.002 A 
ENDROOT
BRANCH   3  18
ATOM     18  C   UNL d   1     -54.758-102.324 -35.871  0.00  0.00     0.082 C 
ATOM     19  C   UNL d   1     -55.496-102.687 -35.680  0.00  0.00     0.021 C 
ENDBRANCH   3  18
TORSDOF 1
ENDMDL
