MODEL 1
REMARK VINA RESULT:      39.0      0.000      0.000
REMARK  6 active torsions:
REMARK  status: ('A' for Active; 'I' for Inactive)
REMARK    1  A    between atoms: N_2  and  C_1 
REMARK    2  A    between atoms: N_3  and  C_1 
REMARK    3  A    between atoms: C_8  and  N_3 
REMARK    4  A    between atoms: C_5  and  O_7 
REMARK    5  A    between atoms: C_17  and  C_6 
REMARK    6  A    between atoms: O_7  and  C_9 
ROOT
ATOM      1  N   UNL d   1      58.832  49.684  50.512  0.00  0.00    -0.219 NA
ENDROOT
BRANCH   1   2
ATOM      2  C   UNL d   1      58.125  49.330  50.767  0.00  0.00     0.206 C 
ATOM      3  S   UNL d   1      58.110  48.931  51.488  0.00  0.00    -0.038 SA
BRANCH   2   4
ATOM      4  N   UNL d   1      57.443  49.380  50.295  0.00  0.00    -0.282 N 
ATOM      5  C   UNL d   1      56.722  49.567  50.638  0.00  0.00     0.066 A 
ATOM      6  C   UNL d   1      56.035  49.622  50.187  0.00  0.00     0.018 A 
ATOM      7  C   UNL d   1      56.074  49.483  49.363  0.00  0.00     0.003 A 
ATOM      8  C   UNL d   1      56.799  49.297  49.036  0.00  0.00     0.019 A 
ATOM      9  C   UNL d   1      57.481  49.245  49.496  0.00  0.00     0.082 A 
BRANCH   5  10
ATOM     10  C   UNL d   1      56.682  49.708  51.471  0.00  0.00     0.018 C 
ATOM     11  C   UNL d   1      56.034  49.460  51.886  0.00  0.00     0.002 C 
ENDBRANCH   5  10
ENDBRANCH   2   4
ENDBRANCH   1   2
BRANCH   1  12
ATOM     12  C   UNL d   1      59.539  49.262  50.509  0.00  0.00     0.084 A 
ATOM     13  C   UNL d   1      60.226  49.608  50.183  0.00  0.00     0.021 A 
ATOM     14  C   UNL d   1      60.925  49.205  50.174  0.00  0.00     0.026 A 
ATOM     15  C   UNL d   1      60.971  48.423  50.496  0.00  0.00     0.105 A 
ATOM     16  C   UNL d   1      60.283  48.077  50.822  0.00  0.00     0.026 A 
ATOM     17  C   UNL d   1      59.576  48.499  50.825  0.00  0.00     0.021 A 
BRANCH  15  18
ATOM     18  O   UNL d   1      61.680  48.003  50.491  0.00  0.00    -0.260 OA
BRANCH  18  19
ATOM     19  C   UNL d   1      61.679  47.176  50.400  0.00  0.00     0.391 C 
ATOM     20  F   UNL d   1      61.891  46.835  49.680  0.00  0.00    -0.145 F 
ATOM     21  F   UNL d   1      61.461  46.689  51.044  0.00  0.00    -0.145 F 
ENDBRANCH  18  19
ENDBRANCH  15  18
ENDBRANCH   1  12
TORSDOF 6
ENDMDL
