MODEL 1
REMARK VINA RESULT:      -4.0      0.000      0.000
REMARK  5 active torsions:
REMARK  status: ('A' for Active; 'I' for Inactive)
REMARK    1  A    between atoms: N_4  and  S_1 
REMARK    2  A    between atoms: C_5  and  S_1 
REMARK       I    between atoms: N_2  and  C_3 
REMARK    3  A    between atoms: C_3  and  C_11 
REMARK    4  A    between atoms: C_21  and  N_4 
REMARK    5  A    between atoms: C_12  and  C_13 
ROOT
ATOM      1  C   UNL d   1     -45.815  13.257  22.667  0.00  0.00     0.057 A 
ATOM      2  C   UNL d   1     -44.505  12.584  21.928  0.00  0.00     0.094 A 
ATOM      3  C   UNL d   1     -45.530  12.531  22.924  0.00  0.00     0.006 A 
ATOM      4  C   UNL d   1     -45.446  13.651  22.038  0.00  0.00     0.006 A 
ATOM      5  C   UNL d   1     -44.874  12.190  22.557  0.00  0.00     0.020 A 
ATOM      6  C   UNL d   1     -44.790  13.309  21.671  0.00  0.00     0.020 A 
ENDROOT
BRANCH   2   7
ATOM      7  N   UNL d   1     -43.850  12.242  21.561  0.00  0.00    -0.158 NA
BRANCH   7   8
ATOM      8  S   UNL d   1     -43.178  12.700  21.395  0.00  0.00     0.285 S 
ATOM      9  O   UNL d   1     -43.495  12.900  20.660  0.00  0.00    -0.198 OA
ATOM     10  O   UNL d   1     -42.861  12.496  22.135  0.00  0.00    -0.198 OA
BRANCH   8  11
ATOM     11  C   UNL d   1     -42.500  13.160  21.229  0.00  0.00     0.105 A 
ATOM     12  C   UNL d   1     -41.890  13.196  21.780  0.00  0.00     0.013 A 
ATOM     13  C   UNL d   1     -41.224  13.646  21.620  0.00  0.00    -0.004 A 
ATOM     14  C   UNL d   1     -41.163  14.063  20.911  0.00  0.00    -0.023 A 
ATOM     15  C   UNL d   1     -41.780  14.020  20.367  0.00  0.00    -0.004 A 
ATOM     16  C   UNL d   1     -42.448  13.572  20.519  0.00  0.00     0.013 A 
BRANCH  14  17
ATOM     17  C   UNL d   1     -40.491  14.525  20.736  0.00  0.00     0.019 C 
ATOM     18  C   UNL d   1     -39.825  14.986  20.564  0.00  0.00     0.004 C 
ATOM     19  C   UNL d   1     -40.905  15.210  20.953  0.00  0.00     0.004 C 
ATOM     20  C   UNL d   1     -40.083  13.838  20.522  0.00  0.00     0.004 C 
ENDBRANCH  14  17
ENDBRANCH   8  11
ENDBRANCH   7   8
ENDBRANCH   2   7
BRANCH   1  21
ATOM     21  C   UNL d   1     -46.471  13.598  23.033  0.00  0.00     0.265 C 
ATOM     22  N   UNL d   1     -47.232  13.458  22.720  0.00  0.00    -0.268 N 
ATOM     23  C   UNL d   1     -47.328  12.984  22.051  0.00  0.00     0.108 A 
ATOM     24  C   UNL d   1     -47.887  13.800  23.086  0.00  0.00     0.108 A 
ATOM     25  C   UNL d   1     -48.089  12.849  21.745  0.00  0.00     0.118 A 
ATOM     26  C   UNL d   1     -48.186  12.373  21.073  0.00  0.00     0.028 C 
ATOM     27  O   UNL d   1     -48.745  13.191  22.111  0.00  0.00    -0.304 OA
ATOM     28  C   UNL d   1     -48.653  13.667  22.781  0.00  0.00     0.118 A 
ATOM     29  C   UNL d   1     -49.314  14.007  23.146  0.00  0.00     0.028 C 
ATOM     30  O   UNL d   1     -46.373  14.069  23.698  0.00  0.00    -0.267 OA
ENDBRANCH   1  21
TORSDOF 5
ENDMDL
MODEL 2
REMARK VINA RESULT:      -4.0      6.268      8.657
REMARK  5 active torsions:
REMARK  status: ('A' for Active; 'I' for Inactive)
REMARK    1  A    between atoms: N_4  and  S_1 
REMARK    2  A    between atoms: C_5  and  S_1 
REMARK       I    between atoms: N_2  and  C_3 
REMARK    3  A    between atoms: C_3  and  C_11 
REMARK    4  A    between atoms: C_21  and  N_4 
REMARK    5  A    between atoms: C_12  and  C_13 
ROOT
ATOM      1  C   UNL d   1     -38.578  14.056  16.760  0.00  0.00     0.057 A 
ATOM      2  C   UNL d   1     -38.750  15.043  18.068  0.00  0.00     0.094 A 
ATOM      3  C   UNL d   1     -39.296  14.430  16.897  0.00  0.00     0.006 A 
ATOM      4  C   UNL d   1     -37.940  14.175  17.277  0.00  0.00     0.006 A 
ATOM      5  C   UNL d   1     -39.387  14.925  17.551  0.00  0.00     0.020 A 
ATOM      6  C   UNL d   1     -38.032  14.670  17.930  0.00  0.00     0.020 A 
ENDROOT
BRANCH   2   7
ATOM      7  N   UNL d   1     -38.841  15.539  18.721  0.00  0.00    -0.158 NA
BRANCH   7   8
ATOM      8  S   UNL d   1     -38.802  15.229  19.489  0.00  0.00     0.285 S 
ATOM      9  O   UNL d   1     -37.991  15.106  19.400  0.00  0.00    -0.198 OA
ATOM     10  O   UNL d   1     -39.619  15.353  19.577  0.00  0.00    -0.198 OA
BRANCH   8  11
ATOM     11  C   UNL d   1     -38.765  14.917  20.264  0.00  0.00     0.105 A 
ATOM     12  C   UNL d   1     -39.425  14.544  20.582  0.00  0.00     0.013 A 
ATOM     13  C   UNL d   1     -39.392  14.236  21.343  0.00  0.00    -0.004 A 
ATOM     14  C   UNL d   1     -38.700  14.301  21.788  0.00  0.00    -0.023 A 
ATOM     15  C   UNL d   1     -38.045  14.677  21.458  0.00  0.00    -0.004 A 
ATOM     16  C   UNL d   1     -38.071  14.986  20.701  0.00  0.00     0.013 A 
BRANCH  14  17
ATOM     17  C   UNL d   1     -38.654  13.993  22.561  0.00  0.00     0.019 C 
ATOM     18  C   UNL d   1     -38.608  13.690  23.331  0.00  0.00     0.004 C 
ATOM     19  C   UNL d   1     -38.879  14.730  22.868  0.00  0.00     0.004 C 
ATOM     20  C   UNL d   1     -38.430  13.260  22.249  0.00  0.00     0.004 C 
ENDBRANCH  14  17
ENDBRANCH   8  11
ENDBRANCH   7   8
ENDBRANCH   2   7
BRANCH   1  21
ATOM     21  C   UNL d   1     -38.486  13.561  16.106  0.00  0.00     0.265 C 
ATOM     22  N   UNL d   1     -38.305  13.896  15.363  0.00  0.00    -0.268 N 
ATOM     23  C   UNL d   1     -38.219  14.713  15.283  0.00  0.00     0.108 A 
ATOM     24  C   UNL d   1     -38.214  13.401  14.709  0.00  0.00     0.108 A 
ATOM     25  C   UNL d   1     -38.039  15.039  14.539  0.00  0.00     0.118 A 
ATOM     26  C   UNL d   1     -37.952  15.860  14.457  0.00  0.00     0.028 C 
ATOM     27  O   UNL d   1     -37.947  14.544  13.885  0.00  0.00    -0.304 OA
ATOM     28  C   UNL d   1     -38.033  13.725  13.962  0.00  0.00     0.118 A 
ATOM     29  C   UNL d   1     -37.940  13.232  13.303  0.00  0.00     0.028 C 
ATOM     30  O   UNL d   1     -38.572  12.749  16.188  0.00  0.00    -0.267 OA
ENDBRANCH   1  21
TORSDOF 5
ENDMDL
MODEL 3
REMARK VINA RESULT:      -3.9      2.561      3.517
REMARK  5 active torsions:
REMARK  status: ('A' for Active; 'I' for Inactive)
REMARK    1  A    between atoms: N_4  and  S_1 
REMARK    2  A    between atoms: C_5  and  S_1 
REMARK       I    between atoms: N_2  and  C_3 
REMARK    3  A    between atoms: C_3  and  C_11 
REMARK    4  A    between atoms: C_21  and  N_4 
REMARK    5  A    between atoms: C_12  and  C_13 
ROOT
ATOM      1  C   UNL d   1     -47.658  14.280  22.539  0.00  0.00     0.057 A 
ATOM      2  C   UNL d   1     -46.112  13.818  22.202  0.00  0.00     0.094 A 
ATOM      3  C   UNL d   1     -47.044  14.521  23.028  0.00  0.00     0.006 A 
ATOM      4  C   UNL d   1     -47.501  13.805  21.877  0.00  0.00     0.006 A 
ATOM      5  C   UNL d   1     -46.269  14.293  22.864  0.00  0.00     0.020 A 
ATOM      6  C   UNL d   1     -46.726  13.577  21.713  0.00  0.00     0.020 A 
ENDROOT
BRANCH   2   7
ATOM      7  N   UNL d   1     -45.337  13.590  22.038  0.00  0.00    -0.158 NA
BRANCH   7   8
ATOM      8  S   UNL d   1     -45.048  12.863  22.312  0.00  0.00     0.285 S 
ATOM      9  O   UNL d   1     -45.047  12.571  21.540  0.00  0.00    -0.198 OA
ATOM     10  O   UNL d   1     -45.050  13.158  23.088  0.00  0.00    -0.198 OA
BRANCH   8  11
ATOM     11  C   UNL d   1     -44.757  12.130  22.590  0.00  0.00     0.105 A 
ATOM     12  C   UNL d   1     -43.994  11.895  22.391  0.00  0.00     0.013 A 
ATOM     13  C   UNL d   1     -43.705  11.177  22.662  0.00  0.00    -0.004 A 
ATOM     14  C   UNL d   1     -44.177  10.690  23.134  0.00  0.00    -0.023 A 
ATOM     15  C   UNL d   1     -44.939  10.936  23.328  0.00  0.00    -0.004 A 
ATOM     16  C   UNL d   1     -45.233  11.651  23.060  0.00  0.00     0.013 A 
BRANCH  14  17
ATOM     17  C   UNL d   1     -43.895   9.958  23.416  0.00  0.00     0.019 C 
ATOM     18  C   UNL d   1     -43.612   9.232  23.697  0.00  0.00     0.004 C 
ATOM     19  C   UNL d   1     -43.194  10.324  23.666  0.00  0.00     0.004 C 
ATOM     20  C   UNL d   1     -44.597   9.599  23.165  0.00  0.00     0.004 C 
ENDBRANCH  14  17
ENDBRANCH   8  11
ENDBRANCH   7   8
ENDBRANCH   2   7
BRANCH   1  21
ATOM     21  C   UNL d   1     -48.433  14.508  22.702  0.00  0.00     0.265 C 
ATOM     22  N   UNL d   1     -48.965  13.947  23.019  0.00  0.00    -0.268 N 
ATOM     23  C   UNL d   1     -48.717  13.174  23.167  0.00  0.00     0.108 A 
ATOM     24  C   UNL d   1     -49.741  14.175  23.183  0.00  0.00     0.108 A 
ATOM     25  C   UNL d   1     -49.253  12.621  23.483  0.00  0.00     0.118 A 
ATOM     26  C   UNL d   1     -49.005  11.843  23.632  0.00  0.00     0.028 C 
ATOM     27  O   UNL d   1     -50.029  12.849  23.647  0.00  0.00    -0.304 OA
ATOM     28  C   UNL d   1     -50.280  13.623  23.500  0.00  0.00     0.118 A 
ATOM     29  C   UNL d   1     -51.060  13.847  23.666  0.00  0.00     0.028 C 
ATOM     30  O   UNL d   1     -48.677  15.277  22.555  0.00  0.00    -0.267 OA
ENDBRANCH   1  21
TORSDOF 5
ENDMDL
MODEL 4
REMARK VINA RESULT:      -3.7      1.726      6.279
REMARK  5 active torsions:
REMARK  status: ('A' for Active; 'I' for Inactive)
REMARK    1  A    between atoms: N_4  and  S_1 
REMARK    2  A    between atoms: C_5  and  S_1 
REMARK       I    between atoms: N_2  and  C_3 
REMARK    3  A    between atoms: C_3  and  C_11 
REMARK    4  A    between atoms: C_21  and  N_4 
REMARK    5  A    between atoms: C_12  and  C_13 
ROOT
ATOM      1  C   UNL d   1     -41.204  14.269  21.065  0.00  0.00     0.057 A 
ATOM      2  C   UNL d   1     -42.334  13.070  21.094  0.00  0.00     0.094 A 
ATOM      3  C   UNL d   1     -41.144  13.665  21.618  0.00  0.00     0.006 A 
ATOM      4  C   UNL d   1     -41.830  14.276  20.522  0.00  0.00     0.006 A 
ATOM      5  C   UNL d   1     -41.707  13.063  21.637  0.00  0.00     0.020 A 
ATOM      6  C   UNL d   1     -42.393  13.673  20.541  0.00  0.00     0.020 A 
ENDROOT
BRANCH   2   7
ATOM      7  N   UNL d   1     -42.897  12.467  21.113  0.00  0.00    -0.158 NA
BRANCH   7   8
ATOM      8  S   UNL d   1     -43.613  12.576  21.517  0.00  0.00     0.285 S 
ATOM      9  O   UNL d   1     -43.942  12.920  20.842  0.00  0.00    -0.198 OA
ATOM     10  O   UNL d   1     -43.279  12.230  22.194  0.00  0.00    -0.198 OA
BRANCH   8  11
ATOM     11  C   UNL d   1     -44.333  12.685  21.925  0.00  0.00     0.105 A 
ATOM     12  C   UNL d   1     -44.574  12.125  22.478  0.00  0.00     0.013 A 
ATOM     13  C   UNL d   1     -45.282  12.229  22.881  0.00  0.00    -0.004 A 
ATOM     14  C   UNL d   1     -45.751  12.892  22.734  0.00  0.00    -0.023 A 
ATOM     15  C   UNL d   1     -45.500  13.446  22.179  0.00  0.00    -0.004 A 
ATOM     16  C   UNL d   1     -44.796  13.349  21.773  0.00  0.00     0.013 A 
BRANCH  14  17
ATOM     17  C   UNL d   1     -46.471  13.009  23.137  0.00  0.00     0.019 C 
ATOM     18  C   UNL d   1     -47.187  13.122  23.538  0.00  0.00     0.004 C 
ATOM     19  C   UNL d   1     -46.503  12.200  23.317  0.00  0.00     0.004 C 
ATOM     20  C   UNL d   1     -46.434  13.815  22.955  0.00  0.00     0.004 C 
ENDBRANCH  14  17
ENDBRANCH   8  11
ENDBRANCH   7   8
ENDBRANCH   2   7
BRANCH   1  21
ATOM     21  C   UNL d   1     -40.641  14.871  21.046  0.00  0.00     0.265 C 
ATOM     22  N   UNL d   1     -39.972  14.789  20.553  0.00  0.00    -0.268 N 
ATOM     23  C   UNL d   1     -39.874  14.112  20.091  0.00  0.00     0.108 A 
ATOM     24  C   UNL d   1     -39.409  15.392  20.534  0.00  0.00     0.108 A 
ATOM     25  C   UNL d   1     -39.205  14.037  19.603  0.00  0.00     0.118 A 
ATOM     26  C   UNL d   1     -39.106  13.357  19.138  0.00  0.00     0.028 C 
ATOM     27  O   UNL d   1     -38.642  14.640  19.584  0.00  0.00    -0.304 OA
ATOM     28  C   UNL d   1     -38.736  15.319  20.046  0.00  0.00     0.118 A 
ATOM     29  C   UNL d   1     -38.168  15.922  20.023  0.00  0.00     0.028 C 
ATOM     30  O   UNL d   1     -40.740  15.543  21.506  0.00  0.00    -0.267 OA
ENDBRANCH   1  21
TORSDOF 5
ENDMDL
MODEL 5
REMARK VINA RESULT:      -3.4      0.950      1.350
REMARK  5 active torsions:
REMARK  status: ('A' for Active; 'I' for Inactive)
REMARK    1  A    between atoms: N_4  and  S_1 
REMARK    2  A    between atoms: C_5  and  S_1 
REMARK       I    between atoms: N_2  and  C_3 
REMARK    3  A    between atoms: C_3  and  C_11 
REMARK    4  A    between atoms: C_21  and  N_4 
REMARK    5  A    between atoms: C_12  and  C_13 
ROOT
ATOM      1  C   UNL d   1     -46.820  13.764  22.545  0.00  0.00     0.057 A 
ATOM      2  C   UNL d   1     -45.520  12.814  22.196  0.00  0.00     0.094 A 
ATOM      3  C   UNL d   1     -46.734  13.451  21.791  0.00  0.00     0.006 A 
ATOM      4  C   UNL d   1     -46.255  13.603  23.130  0.00  0.00     0.006 A 
ATOM      5  C   UNL d   1     -46.086  12.975  21.611  0.00  0.00     0.020 A 
ATOM      6  C   UNL d   1     -45.606  13.127  22.950  0.00  0.00     0.020 A 
ENDROOT
BRANCH   2   7
ATOM      7  N   UNL d   1     -44.871  12.337  22.016  0.00  0.00    -0.158 NA
BRANCH   7   8
ATOM      8  S   UNL d   1     -44.155  12.679  21.775  0.00  0.00     0.285 S 
ATOM      9  O   UNL d   1     -44.490  12.868  21.044  0.00  0.00    -0.198 OA
ATOM     10  O   UNL d   1     -43.821  12.488  22.511  0.00  0.00    -0.198 OA
BRANCH   8  11
ATOM     11  C   UNL d   1     -43.433  13.023  21.534  0.00  0.00     0.105 A 
ATOM     12  C   UNL d   1     -42.763  12.551  21.462  0.00  0.00     0.013 A 
ATOM     13  C   UNL d   1     -42.052  12.886  21.226  0.00  0.00    -0.004 A 
ATOM     14  C   UNL d   1     -42.007  13.693  21.061  0.00  0.00    -0.023 A 
ATOM     15  C   UNL d   1     -42.684  14.156  21.136  0.00  0.00    -0.004 A 
ATOM     16  C   UNL d   1     -43.396  13.829  21.371  0.00  0.00     0.013 A 
BRANCH  14  17
ATOM     17  C   UNL d   1     -41.291  14.045  20.820  0.00  0.00     0.019 C 
ATOM     18  C   UNL d   1     -40.580  14.395  20.577  0.00  0.00     0.004 C 
ATOM     19  C   UNL d   1     -41.554  14.044  20.033  0.00  0.00     0.004 C 
ATOM     20  C   UNL d   1     -41.033  14.044  21.606  0.00  0.00     0.004 C 
ENDBRANCH  14  17
ENDBRANCH   8  11
ENDBRANCH   7   8
ENDBRANCH   2   7
BRANCH   1  21
ATOM     21  C   UNL d   1     -47.469  14.241  22.725  0.00  0.00     0.265 C 
ATOM     22  N   UNL d   1     -48.185  13.882  22.963  0.00  0.00    -0.268 N 
ATOM     23  C   UNL d   1     -48.243  13.060  23.017  0.00  0.00     0.108 A 
ATOM     24  C   UNL d   1     -48.834  14.359  23.143  0.00  0.00     0.108 A 
ATOM     25  C   UNL d   1     -48.959  12.711  23.254  0.00  0.00     0.118 A 
ATOM     26  C   UNL d   1     -49.018  11.885  23.309  0.00  0.00     0.028 C 
ATOM     27  O   UNL d   1     -49.608  13.187  23.434  0.00  0.00    -0.304 OA
ATOM     28  C   UNL d   1     -49.554  14.011  23.382  0.00  0.00     0.118 A 
ATOM     29  C   UNL d   1     -50.208  14.485  23.563  0.00  0.00     0.028 C 
ATOM     30  O   UNL d   1     -47.409  15.057  22.671  0.00  0.00    -0.267 OA
ENDBRANCH   1  21
TORSDOF 5
ENDMDL
MODEL 6
REMARK VINA RESULT:      -3.2      1.808      2.891
REMARK  5 active torsions:
REMARK  status: ('A' for Active; 'I' for Inactive)
REMARK    1  A    between atoms: N_4  and  S_1 
REMARK    2  A    between atoms: C_5  and  S_1 
REMARK       I    between atoms: N_2  and  C_3 
REMARK    3  A    between atoms: C_3  and  C_11 
REMARK    4  A    between atoms: C_21  and  N_4 
REMARK    5  A    between atoms: C_12  and  C_13 
ROOT
ATOM      1  C   UNL d   1     -48.481  12.228  22.753  0.00  0.00     0.057 A 
ATOM      2  C   UNL d   1     -46.966  11.813  23.250  0.00  0.00     0.094 A 
ATOM      3  C   UNL d   1     -48.035  11.703  22.307  0.00  0.00     0.006 A 
ATOM      4  C   UNL d   1     -48.171  12.549  23.452  0.00  0.00     0.006 A 
ATOM      5  C   UNL d   1     -47.276  11.492  22.551  0.00  0.00     0.020 A 
ATOM      6  C   UNL d   1     -47.412  12.338  23.696  0.00  0.00     0.020 A 
ENDROOT
BRANCH   2   7
ATOM      7  N   UNL d   1     -46.207  11.601  23.494  0.00  0.00    -0.158 NA
BRANCH   7   8
ATOM      8  S   UNL d   1     -45.544  11.852  23.064  0.00  0.00     0.285 S 
ATOM      9  O   UNL d   1     -45.647  12.619  23.350  0.00  0.00    -0.198 OA
ATOM     10  O   UNL d   1     -45.442  11.079  22.777  0.00  0.00    -0.198 OA
BRANCH   8  11
ATOM     11  C   UNL d   1     -44.875  12.102  22.629  0.00  0.00     0.105 A 
ATOM     12  C   UNL d   1     -44.193  11.643  22.635  0.00  0.00     0.013 A 
ATOM     13  C   UNL d   1     -43.535  11.886  22.210  0.00  0.00    -0.004 A 
ATOM     14  C   UNL d   1     -43.555  12.588  21.777  0.00  0.00    -0.023 A 
ATOM     15  C   UNL d   1     -44.244  13.040  21.778  0.00  0.00    -0.004 A 
ATOM     16  C   UNL d   1     -44.904  12.804  22.200  0.00  0.00     0.013 A 
BRANCH  14  17
ATOM     17  C   UNL d   1     -42.894  12.846  21.340  0.00  0.00     0.019 C 
ATOM     18  C   UNL d   1     -42.238  13.104  20.904  0.00  0.00     0.004 C 
ATOM     19  C   UNL d   1     -43.398  13.193  20.780  0.00  0.00     0.004 C 
ATOM     20  C   UNL d   1     -42.396  12.499  21.902  0.00  0.00     0.004 C 
ENDBRANCH  14  17
ENDBRANCH   8  11
ENDBRANCH   7   8
ENDBRANCH   2   7
BRANCH   1  21
ATOM     21  C   UNL d   1     -49.240  12.440  22.508  0.00  0.00     0.265 C 
ATOM     22  N   UNL d   1     -49.387  13.227  22.270  0.00  0.00    -0.268 N 
ATOM     23  C   UNL d   1     -48.780  13.786  22.278  0.00  0.00     0.108 A 
ATOM     24  C   UNL d   1     -50.146  13.438  22.025  0.00  0.00     0.108 A 
ATOM     25  C   UNL d   1     -48.935  14.568  22.039  0.00  0.00     0.118 A 
ATOM     26  C   UNL d   1     -48.325  15.131  22.047  0.00  0.00     0.028 C 
ATOM     27  O   UNL d   1     -49.694  14.779  21.795  0.00  0.00    -0.304 OA
ATOM     28  C   UNL d   1     -50.304  14.222  21.785  0.00  0.00     0.118 A 
ATOM     29  C   UNL d   1     -51.064  14.438  21.539  0.00  0.00     0.028 C 
ATOM     30  O   UNL d   1     -49.841  11.882  22.501  0.00  0.00    -0.267 OA
ENDBRANCH   1  21
TORSDOF 5
ENDMDL
MODEL 7
REMARK VINA RESULT:      -2.7      3.777      7.619
REMARK  5 active torsions:
REMARK  status: ('A' for Active; 'I' for Inactive)
REMARK    1  A    between atoms: N_4  and  S_1 
REMARK    2  A    between atoms: C_5  and  S_1 
REMARK       I    between atoms: N_2  and  C_3 
REMARK    3  A    between atoms: C_3  and  C_11 
REMARK    4  A    between atoms: C_21  and  N_4 
REMARK    5  A    between atoms: C_12  and  C_13 
ROOT
ATOM      1  C   UNL d   1     -39.227  15.299  17.795  0.00  0.00     0.057 A 
ATOM      2  C   UNL d   1     -39.738  15.388  19.359  0.00  0.00     0.094 A 
ATOM      3  C   UNL d   1     -38.677  15.346  18.401  0.00  0.00     0.006 A 
ATOM      4  C   UNL d   1     -40.038  15.296  17.967  0.00  0.00     0.006 A 
ATOM      5  C   UNL d   1     -38.927  15.390  19.186  0.00  0.00     0.020 A 
ATOM      6  C   UNL d   1     -40.289  15.341  18.752  0.00  0.00     0.020 A 
ENDROOT
BRANCH   2   7
ATOM      7  N   UNL d   1     -39.988  15.432  20.144  0.00  0.00    -0.158 NA
BRANCH   7   8
ATOM      8  S   UNL d   1     -40.574  14.918  20.426  0.00  0.00     0.285 S 
ATOM      9  O   UNL d   1     -41.152  15.485  20.265  0.00  0.00    -0.198 OA
ATOM     10  O   UNL d   1     -39.991  14.348  20.587  0.00  0.00    -0.198 OA
BRANCH   8  11
ATOM     11  C   UNL d   1     -41.162  14.398  20.711  0.00  0.00     0.105 A 
ATOM     12  C   UNL d   1     -41.937  14.664  20.786  0.00  0.00     0.013 A 
ATOM     13  C   UNL d   1     -42.517  14.156  21.066  0.00  0.00    -0.004 A 
ATOM     14  C   UNL d   1     -42.327  13.380  21.271  0.00  0.00    -0.023 A 
ATOM     15  C   UNL d   1     -41.548  13.124  21.192  0.00  0.00    -0.004 A 
ATOM     16  C   UNL d   1     -40.964  13.625  20.914  0.00  0.00     0.013 A 
BRANCH  14  17
ATOM     17  C   UNL d   1     -42.908  12.854  21.557  0.00  0.00     0.019 C 
ATOM     18  C   UNL d   1     -43.487  12.333  21.838  0.00  0.00     0.004 C 
ATOM     19  C   UNL d   1     -43.483  13.244  21.104  0.00  0.00     0.004 C 
ATOM     20  C   UNL d   1     -42.329  12.469  22.006  0.00  0.00     0.004 C 
ENDBRANCH  14  17
ENDBRANCH   8  11
ENDBRANCH   7   8
ENDBRANCH   2   7
BRANCH   1  21
ATOM     21  C   UNL d   1     -38.977  15.254  17.010  0.00  0.00     0.265 C 
ATOM     22  N   UNL d   1     -38.711  14.522  16.708  0.00  0.00    -0.268 N 
ATOM     23  C   UNL d   1     -38.697  13.852  17.189  0.00  0.00     0.108 A 
ATOM     24  C   UNL d   1     -38.461  14.478  15.923  0.00  0.00     0.108 A 
ATOM     25  C   UNL d   1     -38.430  13.127  16.881  0.00  0.00     0.118 A 
ATOM     26  C   UNL d   1     -38.416  12.452  17.364  0.00  0.00     0.028 C 
ATOM     27  O   UNL d   1     -38.180  13.082  16.096  0.00  0.00    -0.304 OA
ATOM     28  C   UNL d   1     -38.192  13.752  15.611  0.00  0.00     0.118 A 
ATOM     29  C   UNL d   1     -37.940  13.702  14.824  0.00  0.00     0.028 C 
ATOM     30  O   UNL d   1     -38.992  15.922  16.533  0.00  0.00    -0.267 OA
ENDBRANCH   1  21
TORSDOF 5
ENDMDL
