MODEL 1
REMARK VINA RESULT:      -2.7      0.000      0.000
REMARK  4 active torsions:
REMARK  status: ('A' for Active; 'I' for Inactive)
REMARK    1  A    between atoms: N_5  and  S_1 
REMARK    2  A    between atoms: C_8  and  S_1 
REMARK    3  A    between atoms: C_2  and  C_7 
REMARK    4  A    between atoms: C_11  and  N_5 
ROOT
ATOM      1  C   UNL d   1      56.235  -0.640  32.716  0.00  0.00     0.025 A 
ATOM      2  C   UNL d   1      56.572  -0.133  32.159  0.00  0.00     0.020 A 
ATOM      3  C   UNL d   1      56.879  -0.427  31.458  0.00  0.00     0.094 A 
ATOM      4  C   UNL d   1      56.203  -1.451  32.575  0.00  0.00     0.002 A 
ATOM      5  C   UNL d   1      56.845  -1.249  31.317  0.00  0.00     0.020 A 
ATOM      6  C   UNL d   1      56.600   0.681  32.308  0.00  0.00     0.002 C 
ATOM      7  C   UNL d   1      56.506  -1.755  31.879  0.00  0.00     0.002 A 
ENDROOT
BRANCH   3   8
ATOM      8  N   UNL d   1      57.212   0.072  30.904  0.00  0.00    -0.158 NA
BRANCH   8   9
ATOM      9  S   UNL d   1      57.868  -0.173  30.470  0.00  0.00     0.285 S 
ATOM     10  O   UNL d   1      58.355   0.024  31.113  0.00  0.00    -0.198 OA
ATOM     11  O   UNL d   1      57.375  -0.367  29.833  0.00  0.00    -0.198 OA
BRANCH   9  12
ATOM     12  C   UNL d   1      58.528  -0.417  30.038  0.00  0.00     0.107 A 
ATOM     13  C   UNL d   1      59.172   0.098  29.952  0.00  0.00     0.040 A 
ATOM     14  C   UNL d   1      59.825  -0.158  29.518  0.00  0.00     0.123 A 
ATOM     15  O   UNL d   1      60.466   0.340  29.426  0.00  0.00    -0.301 OA
ATOM     16  C   UNL d   1      59.840  -0.909  29.176  0.00  0.00     0.123 A 
ATOM     17  C   UNL d   1      61.125   0.100  28.995  0.00  0.00     0.149 A 
ATOM     18  C   UNL d   1      61.133  -0.652  28.656  0.00  0.00     0.149 A 
ATOM     19  O   UNL d   1      60.492  -1.151  28.748  0.00  0.00    -0.301 OA
ATOM     20  C   UNL d   1      59.195  -1.409  29.269  0.00  0.00     0.028 A 
ATOM     21  C   UNL d   1      58.536  -1.165  29.701  0.00  0.00     0.015 A 
ENDBRANCH   9  12
ENDBRANCH   8   9
ENDBRANCH   3   8
BRANCH   1  22
ATOM     22  C   UNL d   1      55.926  -0.327  33.427  0.00  0.00     0.112 A 
ATOM     23  S   UNL d   1      55.136  -0.147  33.570  0.00  0.00    -0.047 SA
ATOM     24  C   UNL d   1      55.072   0.150  34.345  0.00  0.00     0.130 A 
ATOM     25  N   UNL d   1      54.444   0.417  34.793  0.00  0.00    -0.236 NA
ATOM     26  C   UNL d   1      55.843   0.147  34.671  0.00  0.00     0.106 A 
ATOM     27  C   UNL d   1      54.564   0.682  35.560  0.00  0.00     0.100 A 
ATOM     28  C   UNL d   1      55.320   0.681  35.886  0.00  0.00     0.022 A 
ATOM     29  C   UNL d   1      55.959   0.415  35.444  0.00  0.00     0.023 A 
ATOM     30  N   UNL d   1      56.371  -0.149  34.102  0.00  0.00    -0.237 NA
ENDBRANCH   1  22
TORSDOF 4
ENDMDL
MODEL 2
REMARK VINA RESULT:      -2.5      2.062      5.930
REMARK  4 active torsions:
REMARK  status: ('A' for Active; 'I' for Inactive)
REMARK    1  A    between atoms: N_5  and  S_1 
REMARK    2  A    between atoms: C_8  and  S_1 
REMARK    3  A    between atoms: C_2  and  C_7 
REMARK    4  A    between atoms: C_11  and  N_5 
ROOT
ATOM      1  C   UNL d   1      59.215  -1.046  29.519  0.00  0.00     0.025 A 
ATOM      2  C   UNL d   1      58.442  -1.042  29.806  0.00  0.00     0.020 A 
ATOM      3  C   UNL d   1      58.088  -0.341  30.044  0.00  0.00     0.094 A 
ATOM      4  C   UNL d   1      59.644  -0.346  29.467  0.00  0.00     0.002 A 
ATOM      5  C   UNL d   1      58.525   0.367  29.990  0.00  0.00     0.020 A 
ATOM      6  C   UNL d   1      58.017  -1.752  29.855  0.00  0.00     0.002 C 
ATOM      7  C   UNL d   1      59.302   0.359  29.701  0.00  0.00     0.002 A 
ENDROOT
BRANCH   3   8
ATOM      8  N   UNL d   1      57.323  -0.333  30.328  0.00  0.00    -0.158 NA
BRANCH   8   9
ATOM      9  S   UNL d   1      57.176  -0.127  31.112  0.00  0.00     0.285 S 
ATOM     10  O   UNL d   1      56.964  -0.914  31.268  0.00  0.00    -0.198 OA
ATOM     11  O   UNL d   1      57.391   0.657  30.947  0.00  0.00    -0.198 OA
BRANCH   9  12
ATOM     12  C   UNL d   1      57.028   0.076  31.898  0.00  0.00     0.107 A 
ATOM     13  C   UNL d   1      56.266  -0.027  32.209  0.00  0.00     0.040 A 
ATOM     14  C   UNL d   1      56.132   0.179  32.996  0.00  0.00     0.123 A 
ATOM     15  O   UNL d   1      55.385   0.083  33.313  0.00  0.00    -0.301 OA
ATOM     16  C   UNL d   1      56.738   0.481  33.466  0.00  0.00     0.123 A 
ATOM     17  C   UNL d   1      55.234   0.284  34.097  0.00  0.00     0.149 A 
ATOM     18  C   UNL d   1      55.845   0.585  34.562  0.00  0.00     0.149 A 
ATOM     19  O   UNL d   1      56.592   0.682  34.244  0.00  0.00    -0.301 OA
ATOM     20  C   UNL d   1      57.488   0.578  33.146  0.00  0.00     0.028 A 
ATOM     21  C   UNL d   1      57.637   0.376  32.360  0.00  0.00     0.015 A 
ENDBRANCH   9  12
ENDBRANCH   8   9
ENDBRANCH   3   8
BRANCH   1  22
ATOM     22  C   UNL d   1      59.564  -1.768  29.280  0.00  0.00     0.112 A 
ATOM     23  S   UNL d   1      60.347  -1.872  29.051  0.00  0.00    -0.047 SA
ATOM     24  C   UNL d   1      60.459  -2.674  28.858  0.00  0.00     0.130 A 
ATOM     25  N   UNL d   1      61.103  -3.105  28.600  0.00  0.00    -0.236 NA
ATOM     26  C   UNL d   1      59.724  -3.057  28.975  0.00  0.00     0.106 A 
ATOM     27  C   UNL d   1      61.033  -3.909  28.455  0.00  0.00     0.100 A 
ATOM     28  C   UNL d   1      60.313  -4.291  28.569  0.00  0.00     0.022 A 
ATOM     29  C   UNL d   1      59.659  -3.868  28.828  0.00  0.00     0.023 A 
ATOM     30  N   UNL d   1      59.170  -2.496  29.236  0.00  0.00    -0.237 NA
ENDBRANCH   1  22
TORSDOF 4
ENDMDL
