MODEL 1
REMARK VINA RESULT:      -8.6      0.000      0.000
REMARK  5 active torsions:
REMARK  status: ('A' for Active; 'I' for Inactive)
REMARK    1  A    between atoms: N_2  and  S_1 
REMARK    2  A    between atoms: C_6  and  S_1 
REMARK    3  A    between atoms: C_5  and  N_2 
REMARK    4  A    between atoms: C_3  and  C_8 
REMARK    5  A    between atoms: C_7  and  C_4 
ROOT
ATOM      1  S   UNL d   1     -48.455  13.736  22.964  0.00  0.00     0.285 S 
ATOM      2  O   UNL d   1     -48.142  14.174  22.354  0.00  0.00    -0.198 OA
ATOM      3  O   UNL d   1     -48.772  13.291  23.582  0.00  0.00    -0.198 OA
ENDROOT
BRANCH   1   4
ATOM      4  N   UNL d   1     -49.153  14.161  22.911  0.00  0.00    -0.158 NA
BRANCH   4   5
ATOM      5  C   UNL d   1     -49.764  13.914  22.413  0.00  0.00     0.100 A 
ATOM      6  C   UNL d   1     -50.438  14.321  22.366  0.00  0.00     0.083 A 
ATOM      7  C   UNL d   1     -51.049  14.074  21.867  0.00  0.00     0.008 A 
ATOM      8  C   UNL d   1     -50.945  13.366  21.398  0.00  0.00     0.000 A 
ATOM      9  C   UNL d   1     -50.271  12.960  21.445  0.00  0.00     0.002 A 
ATOM     10  C   UNL d   1     -49.648  13.230  21.967  0.00  0.00     0.020 A 
BRANCH   6  11
ATOM     11  C   UNL d   1     -50.555  15.005  22.811  0.00  0.00     0.212 C 
ATOM     12  O   UNL d   1     -50.875  14.969  23.564  0.00  0.00    -0.644 OA
ATOM     13  O   UNL d   1     -50.338  15.727  22.476  0.00  0.00    -0.644 OA
ENDBRANCH   6  11
ENDBRANCH   4   5
ENDBRANCH   1   4
BRANCH   1  14
ATOM     14  C   UNL d   1     -47.751  13.308  23.017  0.00  0.00     0.105 A 
ATOM     15  C   UNL d   1     -47.057  13.588  22.670  0.00  0.00     0.017 A 
ATOM     16  C   UNL d   1     -46.378  13.175  22.722  0.00  0.00     0.072 A 
ATOM     17  C   UNL d   1     -46.349  12.456  23.123  0.00  0.00     0.004 A 
ATOM     18  C   UNL d   1     -47.042  12.176  23.470  0.00  0.00     0.001 A 
ATOM     19  C   UNL d   1     -47.721  12.589  23.419  0.00  0.00     0.013 A 
BRANCH  16  20
ATOM     20  C   UNL d   1     -45.668  13.480  22.356  0.00  0.00     0.419 C 
ATOM     21  F   UNL d   1     -44.980  13.763  21.978  0.00  0.00    -0.166 F 
ATOM     22  F   UNL d   1     -45.816  13.000  21.664  0.00  0.00    -0.166 F 
ATOM     23  F   UNL d   1     -45.538  13.938  23.030  0.00  0.00    -0.166 F 
ENDBRANCH  16  20
ENDBRANCH   1  14
TORSDOF 5
ENDMDL
MODEL 2
REMARK VINA RESULT:      -8.3      2.497      4.122
REMARK  5 active torsions:
REMARK  status: ('A' for Active; 'I' for Inactive)
REMARK    1  A    between atoms: N_2  and  S_1 
REMARK    2  A    between atoms: C_6  and  S_1 
REMARK    3  A    between atoms: C_5  and  N_2 
REMARK    4  A    between atoms: C_3  and  C_8 
REMARK    5  A    between atoms: C_7  and  C_4 
ROOT
ATOM      1  S   UNL d   1     -48.083  12.412  22.861  0.00  0.00     0.285 S 
ATOM      2  O   UNL d   1     -48.064  12.349  22.051  0.00  0.00    -0.198 OA
ATOM      3  O   UNL d   1     -48.102  12.475  23.684  0.00  0.00    -0.198 OA
ENDROOT
BRANCH   1   4
ATOM      4  N   UNL d   1     -47.269  12.499  22.873  0.00  0.00    -0.158 NA
BRANCH   4   5
ATOM      5  C   UNL d   1     -46.921  13.246  22.834  0.00  0.00     0.100 A 
ATOM      6  C   UNL d   1     -46.140  13.328  22.760  0.00  0.00     0.083 A 
ATOM      7  C   UNL d   1     -45.793  14.076  22.720  0.00  0.00     0.008 A 
ATOM      8  C   UNL d   1     -46.291  14.771  22.759  0.00  0.00     0.000 A 
ATOM      9  C   UNL d   1     -47.072  14.690  22.833  0.00  0.00     0.002 A 
ATOM     10  C   UNL d   1     -47.416  13.907  22.873  0.00  0.00     0.020 A 
BRANCH   6  11
ATOM     11  C   UNL d   1     -45.646  12.669  22.720  0.00  0.00     0.212 C 
ATOM     12  O   UNL d   1     -45.455  12.243  23.394  0.00  0.00    -0.644 OA
ATOM     13  O   UNL d   1     -45.349  12.451  21.982  0.00  0.00    -0.644 OA
ENDBRANCH   6  11
ENDBRANCH   4   5
ENDBRANCH   1   4
BRANCH   1  14
ATOM     14  C   UNL d   1     -48.904  12.323  22.849  0.00  0.00     0.105 A 
ATOM     15  C   UNL d   1     -49.360  12.673  22.258  0.00  0.00     0.017 A 
ATOM     16  C   UNL d   1     -50.151  12.588  22.247  0.00  0.00     0.072 A 
ATOM     17  C   UNL d   1     -50.539  12.147  22.825  0.00  0.00     0.004 A 
ATOM     18  C   UNL d   1     -50.083  11.796  23.416  0.00  0.00     0.001 A 
ATOM     19  C   UNL d   1     -49.292  11.881  23.428  0.00  0.00     0.013 A 
BRANCH  16  20
ATOM     20  C   UNL d   1     -50.609  12.959  21.626  0.00  0.00     0.419 C 
ATOM     21  F   UNL d   1     -51.056  13.342  21.036  0.00  0.00    -0.166 F 
ATOM     22  F   UNL d   1     -50.678  13.668  22.099  0.00  0.00    -0.166 F 
ATOM     23  F   UNL d   1     -50.533  12.268  21.181  0.00  0.00    -0.166 F 
ENDBRANCH  16  20
ENDBRANCH   1  14
TORSDOF 5
ENDMDL
MODEL 3
REMARK VINA RESULT:      -6.5      8.814      9.575
REMARK  5 active torsions:
REMARK  status: ('A' for Active; 'I' for Inactive)
REMARK    1  A    between atoms: N_2  and  S_1 
REMARK    2  A    between atoms: C_6  and  S_1 
REMARK    3  A    between atoms: C_5  and  N_2 
REMARK    4  A    between atoms: C_3  and  C_8 
REMARK    5  A    between atoms: C_7  and  C_4 
ROOT
ATOM      1  S   UNL d   1     -40.291  15.085  19.380  0.00  0.00     0.285 S 
ATOM      2  O   UNL d   1     -40.808  14.475  19.526  0.00  0.00    -0.198 OA
ATOM      3  O   UNL d   1     -39.766  15.704  19.232  0.00  0.00    -0.198 OA
ENDROOT
BRANCH   1   4
ATOM      4  N   UNL d   1     -40.445  15.024  18.578  0.00  0.00    -0.158 NA
BRANCH   4   5
ATOM      5  C   UNL d   1     -39.947  14.594  18.081  0.00  0.00     0.100 A 
ATOM      6  C   UNL d   1     -39.994  14.666  17.296  0.00  0.00     0.083 A 
ATOM      7  C   UNL d   1     -39.495  14.236  16.799  0.00  0.00     0.008 A 
ATOM      8  C   UNL d   1     -38.919  13.704  17.143  0.00  0.00     0.000 A 
ATOM      9  C   UNL d   1     -38.872  13.632  17.927  0.00  0.00     0.002 A 
ATOM     10  C   UNL d   1     -39.397  14.085  18.428  0.00  0.00     0.020 A 
BRANCH   6  11
ATOM     11  C   UNL d   1     -40.543  15.174  16.949  0.00  0.00     0.212 C 
ATOM     12  O   UNL d   1     -41.321  14.943  16.839  0.00  0.00    -0.644 OA
ATOM     13  O   UNL d   1     -40.285  15.922  16.715  0.00  0.00    -0.644 OA
ENDBRANCH   6  11
ENDBRANCH   4   5
ENDBRANCH   1   4
BRANCH   1  14
ATOM     14  C   UNL d   1     -40.135  15.146  20.189  0.00  0.00     0.105 A 
ATOM     15  C   UNL d   1     -39.851  14.501  20.616  0.00  0.00     0.017 A 
ATOM     16  C   UNL d   1     -39.701  14.560  21.396  0.00  0.00     0.072 A 
ATOM     17  C   UNL d   1     -39.826  15.269  21.799  0.00  0.00     0.004 A 
ATOM     18  C   UNL d   1     -40.109  15.914  21.371  0.00  0.00     0.001 A 
ATOM     19  C   UNL d   1     -40.259  15.855  20.592  0.00  0.00     0.013 A 
BRANCH  16  20
ATOM     20  C   UNL d   1     -39.407  13.881  21.824  0.00  0.00     0.419 C 
ATOM     21  F   UNL d   1     -39.096  13.225  22.235  0.00  0.00    -0.166 F 
ATOM     22  F   UNL d   1     -38.605  14.103  21.628  0.00  0.00    -0.166 F 
ATOM     23  F   UNL d   1     -40.187  13.679  22.005  0.00  0.00    -0.166 F 
ENDBRANCH  16  20
ENDBRANCH   1  14
TORSDOF 5
ENDMDL
