MODEL 1
REMARK VINA RESULT:      47.6      0.000      0.000
REMARK  4 active torsions:
REMARK  status: ('A' for Active; 'I' for Inactive)
REMARK    1  A    between atoms: C_10  and  C_1 
REMARK    2  A    between atoms: C_18  and  N_6 
REMARK       I    between atoms: N_13  and  C_10 
REMARK    3  A    between atoms: C_12  and  C_20 
REMARK    4  A    between atoms: C_20  and  N_13 
ROOT
ATOM      1  C   UNL d   1      46.097 -17.649  42.900  0.00  0.00     0.077 A 
ATOM      2  C   UNL d   1      46.352 -18.922  42.281  0.00  0.00     0.121 A 
ATOM      3  C   UNL d   1      46.260 -18.456  42.959  0.00  0.00     0.028 A 
ATOM      4  C   UNL d   1      46.278 -18.572  41.529  0.00  0.00     0.281 A 
ATOM      5  N   UNL d   1      46.507 -19.690  42.525  0.00  0.00    -0.300 N 
ATOM      6  N   UNL d   1      46.116 -17.767  41.457  0.00  0.00    -0.272 N 
ATOM      7  C   UNL d   1      46.024 -17.299  42.150  0.00  0.00     0.088 A 
ATOM      8  C   UNL d   1      46.363 -18.953  43.618  0.00  0.00     0.018 A 
ATOM      9  C   UNL d   1      46.515 -19.712  43.333  0.00  0.00     0.064 A 
ATOM     10  O   UNL d   1      46.371 -19.043  40.842  0.00  0.00    -0.265 OA
ATOM     11  C   UNL d   1      46.635 -20.329  42.006  0.00  0.00     0.100 C 
ATOM     12  C   UNL d   1      46.336 -18.807  44.420  0.00  0.00     0.002 A 
ATOM     13  C   UNL d   1      46.640 -20.321  43.876  0.00  0.00     0.018 A 
ATOM     14  C   UNL d   1      46.462 -19.424  44.954  0.00  0.00     0.000 A 
ATOM     15  C   UNL d   1      46.613 -20.175  44.688  0.00  0.00     0.002 A 
ENDROOT
BRANCH   1  16
ATOM     16  C   UNL d   1      46.007 -17.189  43.570  0.00  0.00     0.281 C 
ATOM     17  N   UNL d   1      45.661 -16.443  43.518  0.00  0.00    -0.204 NA
ATOM     18  O   UNL d   1      46.263 -17.473  44.306  0.00  0.00    -0.265 OA
BRANCH  17  19
ATOM     19  C   UNL d   1      45.570 -15.980  44.192  0.00  0.00     0.127 C 
BRANCH  19  20
ATOM     20  C   UNL d   1      45.490 -15.161  44.119  0.00  0.00     0.119 A 
ATOM     21  O   UNL d   1      46.065 -14.597  44.290  0.00  0.00    -0.306 OA
ATOM     22  C   UNL d   1      45.741 -13.851  44.134  0.00  0.00     0.100 A 
ATOM     23  C   UNL d   1      46.123 -13.133  44.229  0.00  0.00     0.027 C 
ATOM     24  C   UNL d   1      44.981 -13.950  43.871  0.00  0.00     0.027 A 
ATOM     25  C   UNL d   1      44.816 -14.758  43.858  0.00  0.00     0.028 A 
ENDBRANCH  19  20
ENDBRANCH  17  19
ENDBRANCH   1  16
BRANCH   6  26
ATOM     26  C   UNL d   1      46.044 -17.426  40.711  0.00  0.00     0.067 A 
ATOM     27  C   UNL d   1      45.356 -17.402  40.258  0.00  0.00     0.018 A 
ATOM     28  C   UNL d   1      45.534 -17.014  39.562  0.00  0.00     0.002 A 
ATOM     29  C   UNL d   1      46.327 -16.799  39.584  0.00  0.00     0.002 A 
ATOM     30  C   UNL d   1      46.641 -17.056  40.300  0.00  0.00     0.018 A 
ENDBRANCH   6  26
TORSDOF 4
ENDMDL
