MODEL 1
REMARK VINA RESULT:      -3.3      0.000      0.000
REMARK  4 active torsions:
REMARK  status: ('A' for Active; 'I' for Inactive)
REMARK    1  A    between atoms: C_6  and  C_1 
REMARK    2  A    between atoms: C_7  and  N_2 
REMARK    3  A    between atoms: C_10  and  C_7 
REMARK    4  A    between atoms: C_11  and  C_10 
ROOT
ATOM      1  C   UNL d   1      58.836   0.055  29.759  0.00  0.00     0.148 A 
ATOM      2  N   UNL d   1      58.454  -0.681  29.857  0.00  0.00    -0.289 N 
ATOM      3  N   UNL d   1      58.540   0.577  30.349  0.00  0.00    -0.227 NA
ATOM      4  C   UNL d   1      57.928  -0.617  30.498  0.00  0.00     0.083 A 
ATOM      5  C   UNL d   1      57.980   0.151  30.800  0.00  0.00     0.099 A 
ATOM      6  C   UNL d   1      57.403  -1.157  30.854  0.00  0.00     0.019 A 
ATOM      7  C   UNL d   1      57.521   0.394  31.449  0.00  0.00     0.021 A 
ATOM      8  C   UNL d   1      56.943  -0.926  31.498  0.00  0.00     0.002 A 
ATOM      9  C   UNL d   1      57.001  -0.156  31.793  0.00  0.00     0.002 A 
ENDROOT
BRANCH   2  10
ATOM     10  C   UNL d   1      58.578  -1.359  29.392  0.00  0.00     0.082 C 
BRANCH  10  11
ATOM     11  C   UNL d   1      59.180  -1.886  29.593  0.00  0.00     0.019 C 
BRANCH  11  12
ATOM     12  C   UNL d   1      59.219  -2.614  29.217  0.00  0.00     0.002 A 
ATOM     13  C   UNL d   1      59.915  -3.041  29.226  0.00  0.00     0.000 A 
ATOM     14  C   UNL d   1      59.954  -3.768  28.850  0.00  0.00     0.000 A 
ATOM     15  C   UNL d   1      59.297  -4.069  28.466  0.00  0.00     0.000 A 
ATOM     16  C   UNL d   1      58.592  -3.639  28.455  0.00  0.00     0.000 A 
ATOM     17  C   UNL d   1      58.560  -2.911  28.834  0.00  0.00     0.000 A 
ENDBRANCH  11  12
ENDBRANCH  10  11
ENDBRANCH   2  10
BRANCH   1  18
ATOM     18  C   UNL d   1      59.403   0.244  29.188  0.00  0.00     0.035 A 
ATOM     19  C   UNL d   1      60.185   0.247  28.923  0.00  0.00     0.003 A 
ATOM     20  C   UNL d   1      59.587   0.575  28.455  0.00  0.00     0.003 A 
ENDBRANCH   1  18
TORSDOF 4
ENDMDL
MODEL 2
REMARK VINA RESULT:      -3.1      0.981      3.729
REMARK  4 active torsions:
REMARK  status: ('A' for Active; 'I' for Inactive)
REMARK    1  A    between atoms: C_6  and  C_1 
REMARK    2  A    between atoms: C_7  and  N_2 
REMARK    3  A    between atoms: C_10  and  C_7 
REMARK    4  A    between atoms: C_11  and  C_10 
ROOT
ATOM      1  C   UNL d   1      59.351  -1.638  29.022  0.00  0.00     0.148 A 
ATOM      2  N   UNL d   1      59.263  -1.055  29.613  0.00  0.00    -0.289 N 
ATOM      3  N   UNL d   1      60.007  -1.419  28.543  0.00  0.00    -0.227 NA
ATOM      4  C   UNL d   1      59.856  -0.482  29.503  0.00  0.00     0.083 A 
ATOM      5  C   UNL d   1      60.311  -0.704  28.849  0.00  0.00     0.099 A 
ATOM      6  C   UNL d   1      60.048   0.218  29.911  0.00  0.00     0.019 A 
ATOM      7  C   UNL d   1      60.954  -0.243  28.592  0.00  0.00     0.021 A 
ATOM      8  C   UNL d   1      60.683   0.682  29.665  0.00  0.00     0.002 A 
ATOM      9  C   UNL d   1      61.133   0.453  29.010  0.00  0.00     0.002 A 
ENDROOT
BRANCH   2  10
ATOM     10  C   UNL d   1      58.682  -1.049  30.208  0.00  0.00     0.082 C 
BRANCH  10  11
ATOM     11  C   UNL d   1      58.056  -0.515  30.161  0.00  0.00     0.019 C 
BRANCH  11  12
ATOM     12  C   UNL d   1      57.588  -0.386  30.822  0.00  0.00     0.002 A 
ATOM     13  C   UNL d   1      57.522   0.366  31.135  0.00  0.00     0.000 A 
ATOM     14  C   UNL d   1      57.054   0.495  31.796  0.00  0.00     0.000 A 
ATOM     15  C   UNL d   1      56.652  -0.127  32.143  0.00  0.00     0.000 A 
ATOM     16  C   UNL d   1      56.717  -0.888  31.830  0.00  0.00     0.000 A 
ATOM     17  C   UNL d   1      57.188  -1.010  31.167  0.00  0.00     0.000 A 
ENDBRANCH  11  12
ENDBRANCH  10  11
ENDBRANCH   2  10
BRANCH   1  18
ATOM     18  C   UNL d   1      58.881  -2.311  28.919  0.00  0.00     0.035 A 
ATOM     19  C   UNL d   1      58.309  -2.732  28.500  0.00  0.00     0.003 A 
ATOM     20  C   UNL d   1      58.651  -3.059  29.178  0.00  0.00     0.003 A 
ENDBRANCH   1  18
TORSDOF 4
ENDMDL
MODEL 3
REMARK VINA RESULT:      -2.6      2.217      3.798
REMARK  4 active torsions:
REMARK  status: ('A' for Active; 'I' for Inactive)
REMARK    1  A    between atoms: C_6  and  C_1 
REMARK    2  A    between atoms: C_7  and  N_2 
REMARK    3  A    between atoms: C_10  and  C_7 
REMARK    4  A    between atoms: C_11  and  C_10 
ROOT
ATOM      1  C   UNL d   1      58.855   0.418  29.769  0.00  0.00     0.148 A 
ATOM      2  N   UNL d   1      58.760   0.497  30.594  0.00  0.00    -0.289 N 
ATOM      3  N   UNL d   1      59.681   0.426  29.605  0.00  0.00    -0.227 NA
ATOM      4  C   UNL d   1      59.515   0.554  30.939  0.00  0.00     0.083 A 
ATOM      5  C   UNL d   1      60.078   0.511  30.335  0.00  0.00     0.099 A 
ATOM      6  C   UNL d   1      59.771   0.640  31.727  0.00  0.00     0.019 A 
ATOM      7  C   UNL d   1      60.893   0.552  30.498  0.00  0.00     0.021 A 
ATOM      8  C   UNL d   1      60.576   0.681  31.899  0.00  0.00     0.002 A 
ATOM      9  C   UNL d   1      61.133   0.638  31.289  0.00  0.00     0.002 A 
ENDROOT
BRANCH   2  10
ATOM     10  C   UNL d   1      58.035   0.515  31.000  0.00  0.00     0.082 C 
BRANCH  10  11
ATOM     11  C   UNL d   1      57.845  -0.093  31.524  0.00  0.00     0.019 C 
BRANCH  11  12
ATOM     12  C   UNL d   1      57.124  -0.077  31.915  0.00  0.00     0.002 A 
ATOM     13  C   UNL d   1      56.901  -0.706  32.386  0.00  0.00     0.000 A 
ATOM     14  C   UNL d   1      56.181  -0.690  32.776  0.00  0.00     0.000 A 
ATOM     15  C   UNL d   1      55.683  -0.045  32.696  0.00  0.00     0.000 A 
ATOM     16  C   UNL d   1      55.906   0.592  32.221  0.00  0.00     0.000 A 
ATOM     17  C   UNL d   1      56.630   0.569  31.832  0.00  0.00     0.000 A 
ENDBRANCH  11  12
ENDBRANCH  10  11
ENDBRANCH   2  10
BRANCH   1  18
ATOM     18  C   UNL d   1      58.253   0.343  29.208  0.00  0.00     0.035 A 
ATOM     19  C   UNL d   1      57.683   0.680  28.714  0.00  0.00     0.003 A 
ATOM     20  C   UNL d   1      57.784  -0.141  28.732  0.00  0.00     0.003 A 
ENDBRANCH   1  18
TORSDOF 4
ENDMDL
MODEL 4
REMARK VINA RESULT:      -2.4      2.706      4.611
REMARK  4 active torsions:
REMARK  status: ('A' for Active; 'I' for Inactive)
REMARK    1  A    between atoms: C_6  and  C_1 
REMARK    2  A    between atoms: C_7  and  N_2 
REMARK    3  A    between atoms: C_10  and  C_7 
REMARK    4  A    between atoms: C_11  and  C_10 
ROOT
ATOM      1  C   UNL d   1      57.006   0.676  34.334  0.00  0.00     0.148 A 
ATOM      2  N   UNL d   1      56.571   0.674  33.622  0.00  0.00    -0.289 N 
ATOM      3  N   UNL d   1      56.455   0.677  34.970  0.00  0.00    -0.227 NA
ATOM      4  C   UNL d   1      55.761   0.675  33.812  0.00  0.00     0.083 A 
ATOM      5  C   UNL d   1      55.689   0.677  34.636  0.00  0.00     0.099 A 
ATOM      6  C   UNL d   1      55.072   0.674  33.345  0.00  0.00     0.019 A 
ATOM      7  C   UNL d   1      54.945   0.678  35.006  0.00  0.00     0.021 A 
ATOM      8  C   UNL d   1      54.328   0.676  33.703  0.00  0.00     0.002 A 
ATOM      9  C   UNL d   1      54.265   0.678  34.527  0.00  0.00     0.002 A 
ENDROOT
BRANCH   2  10
ATOM     10  C   UNL d   1      56.893   0.672  32.856  0.00  0.00     0.082 C 
BRANCH  10  11
ATOM     11  C   UNL d   1      56.638   0.111  32.308  0.00  0.00     0.019 C 
BRANCH  11  12
ATOM     12  C   UNL d   1      57.038   0.034  31.596  0.00  0.00     0.002 A 
ATOM     13  C   UNL d   1      57.397  -0.674  31.403  0.00  0.00     0.000 A 
ATOM     14  C   UNL d   1      57.797  -0.750  30.692  0.00  0.00     0.000 A 
ATOM     15  C   UNL d   1      57.837  -0.120  30.172  0.00  0.00     0.000 A 
ATOM     16  C   UNL d   1      57.475   0.597  30.364  0.00  0.00     0.000 A 
ATOM     17  C   UNL d   1      57.076   0.667  31.079  0.00  0.00     0.000 A 
ENDBRANCH  11  12
ENDBRANCH  10  11
ENDBRANCH   2  10
BRANCH   1  18
ATOM     18  C   UNL d   1      57.830   0.675  34.409  0.00  0.00     0.035 A 
ATOM     19  C   UNL d   1      58.583   0.669  34.073  0.00  0.00     0.003 A 
ATOM     20  C   UNL d   1      58.496   0.681  34.895  0.00  0.00     0.003 A 
ENDBRANCH   1  18
TORSDOF 4
ENDMDL
MODEL 5
REMARK VINA RESULT:      -0.6      8.416      8.975
REMARK  4 active torsions:
REMARK  status: ('A' for Active; 'I' for Inactive)
REMARK    1  A    between atoms: C_6  and  C_1 
REMARK    2  A    between atoms: C_7  and  N_2 
REMARK    3  A    between atoms: C_10  and  C_7 
REMARK    4  A    between atoms: C_11  and  C_10 
ROOT
ATOM      1  C   UNL d   1      58.566  -9.515  32.447  0.00  0.00     0.148 A 
ATOM      2  N   UNL d   1      59.321  -9.651  32.118  0.00  0.00    -0.289 N 
ATOM      3  N   UNL d   1      58.667  -9.376  33.270  0.00  0.00    -0.227 NA
ATOM      4  C   UNL d   1      59.884  -9.597  32.728  0.00  0.00     0.083 A 
ATOM      5  C   UNL d   1      59.485  -9.429  33.433  0.00  0.00     0.099 A 
ATOM      6  C   UNL d   1      60.712  -9.678  32.740  0.00  0.00     0.019 A 
ATOM      7  C   UNL d   1      59.894  -9.339  34.151  0.00  0.00     0.021 A 
ATOM      8  C   UNL d   1      61.127  -9.591  33.448  0.00  0.00     0.002 A 
ATOM      9  C   UNL d   1      60.721  -9.423  34.148  0.00  0.00     0.002 A 
ENDROOT
BRANCH   2  10
ATOM     10  C   UNL d   1      59.481  -9.812  31.318  0.00  0.00     0.082 C 
BRANCH  10  11
ATOM     11  C   UNL d   1      60.172  -9.524  30.975  0.00  0.00     0.019 C 
BRANCH  11  12
ATOM     12  C   UNL d   1      60.277  -9.591  30.164  0.00  0.00     0.002 A 
ATOM     13  C   UNL d   1      59.640  -9.500  29.660  0.00  0.00     0.000 A 
ATOM     14  C   UNL d   1      59.745  -9.567  28.851  0.00  0.00     0.000 A 
ATOM     15  C   UNL d   1      60.487  -9.725  28.543  0.00  0.00     0.000 A 
ATOM     16  C   UNL d   1      61.132  -9.818  29.049  0.00  0.00     0.000 A 
ATOM     17  C   UNL d   1      61.020  -9.749  29.860  0.00  0.00     0.000 A 
ENDBRANCH  11  12
ENDBRANCH  10  11
ENDBRANCH   2  10
BRANCH   1  18
ATOM     18  C   UNL d   1      57.844  -9.515  32.043  0.00  0.00     0.035 A 
ATOM     19  C   UNL d   1      57.348  -9.816  31.456  0.00  0.00     0.003 A 
ATOM     20  C   UNL d   1      57.088  -9.201  31.943  0.00  0.00     0.003 A 
ENDBRANCH   1  18
TORSDOF 4
ENDMDL
