MODEL 1
REMARK VINA RESULT:      34.2      0.000      0.000
REMARK  4 active torsions:
REMARK  status: ('A' for Active; 'I' for Inactive)
REMARK       I    between atoms: C_2  and  N_1 
REMARK       I    between atoms: N_8  and  C_2 
REMARK    1  A    between atoms: C_12  and  N_8 
REMARK    2  A    between atoms: C_9  and  C_12 
REMARK    3  A    between atoms: O_13  and  C_9 
REMARK    4  A    between atoms: C_18  and  O_13 
ROOT
ATOM      1  N   UNL d   1     -51.802  24.851  33.307  0.00  0.00    -0.258 N 
ATOM      2  C   UNL d   1     -51.799  25.675  33.307  0.00  0.00     0.354 C 
ATOM      3  S   UNL d   1     -51.808  23.189  33.307  0.00  0.00    -0.084 SA
ATOM      4  C   UNL d   1     -52.517  24.439  33.307  0.00  0.00     0.074 A 
ATOM      5  C   UNL d   1     -51.088  24.438  33.307  0.00  0.00     0.074 A 
ATOM      6  C   UNL d   1     -52.524  23.609  33.308  0.00  0.00     0.046 A 
ATOM      7  C   UNL d   1     -51.091  23.603  33.307  0.00  0.00     0.046 A 
ATOM      8  N   UNL d   1     -51.075  26.087  33.306  0.00  0.00    -0.185 NA
ATOM      9  O   UNL d   1     -52.510  26.087  33.307  0.00  0.00    -0.244 OA
ATOM     10  C   UNL d   1     -53.222  24.857  33.308  0.00  0.00     0.018 A 
ATOM     11  C   UNL d   1     -50.382  24.853  33.306  0.00  0.00     0.018 A 
ATOM     12  C   UNL d   1     -50.388  23.191  33.307  0.00  0.00     0.008 A 
ATOM     13  C   UNL d   1     -53.240  23.202  33.308  0.00  0.00     0.008 A 
ATOM     14  C   UNL d   1     -53.946  24.457  33.308  0.00  0.00     0.002 A 
ATOM     15  C   UNL d   1     -49.656  24.428  33.306  0.00  0.00     0.002 A 
ATOM     16  C   UNL d   1     -49.664  23.598  33.306  0.00  0.00     0.001 A 
ATOM     17  C   UNL d   1     -53.955  23.632  33.309  0.00  0.00     0.001 A 
ENDROOT
BRANCH   8  18
ATOM     18  C   UNL d   1     -51.072  26.936  33.306  0.00  0.00     0.172 C 
BRANCH  18  19
ATOM     19  C   UNL d   1     -50.532  27.331  33.770  0.00  0.00     0.320 C 
ATOM     20  O   UNL d   1     -50.589  27.284  34.590  0.00  0.00    -0.257 OA
BRANCH  19  21
ATOM     21  O   UNL d   1     -49.939  27.770  33.427  0.00  0.00    -0.270 OA
BRANCH  21  22
ATOM     22  C   UNL d   1     -49.874  28.587  33.594  0.00  0.00     0.126 C 
ATOM     23  C   UNL d   1     -49.226  28.870  34.008  0.00  0.00     0.029 C 
ENDBRANCH  21  22
ENDBRANCH  19  21
ENDBRANCH  18  19
ENDBRANCH   8  18
TORSDOF 4
ENDMDL
MODEL 2
REMARK VINA RESULT:      35.4      1.632      3.574
REMARK  4 active torsions:
REMARK  status: ('A' for Active; 'I' for Inactive)
REMARK       I    between atoms: C_2  and  N_1 
REMARK       I    between atoms: N_8  and  C_2 
REMARK    1  A    between atoms: C_12  and  N_8 
REMARK    2  A    between atoms: C_9  and  C_12 
REMARK    3  A    between atoms: O_13  and  C_9 
REMARK    4  A    between atoms: C_18  and  O_13 
ROOT
ATOM      1  N   UNL d   1     -51.523  25.057  33.309  0.00  0.00    -0.258 N 
ATOM      2  C   UNL d   1     -52.178  24.557  33.308  0.00  0.00     0.354 C 
ATOM      3  S   UNL d   1     -50.201  26.064  33.313  0.00  0.00    -0.084 SA
ATOM      4  C   UNL d   1     -51.625  25.875  33.310  0.00  0.00     0.074 A 
ATOM      5  C   UNL d   1     -50.763  24.736  33.311  0.00  0.00     0.074 A 
ATOM      6  C   UNL d   1     -50.968  26.382  33.311  0.00  0.00     0.046 A 
ATOM      7  C   UNL d   1     -50.099  25.242  33.313  0.00  0.00     0.046 A 
ATOM      8  N   UNL d   1     -52.070  23.731  33.307  0.00  0.00    -0.185 NA
ATOM      9  O   UNL d   1     -52.936  24.876  33.306  0.00  0.00    -0.244 OA
ATOM     10  C   UNL d   1     -52.384  26.186  33.308  0.00  0.00     0.018 A 
ATOM     11  C   UNL d   1     -50.667  23.923  33.311  0.00  0.00     0.018 A 
ATOM     12  C   UNL d   1     -49.346  24.931  33.315  0.00  0.00     0.008 A 
ATOM     13  C   UNL d   1     -51.075  27.199  33.312  0.00  0.00     0.008 A 
ATOM     14  C   UNL d   1     -52.502  27.005  33.308  0.00  0.00     0.002 A 
ATOM     15  C   UNL d   1     -49.890  23.600  33.313  0.00  0.00     0.002 A 
ATOM     16  C   UNL d   1     -49.233  24.107  33.315  0.00  0.00     0.001 A 
ATOM     17  C   UNL d   1     -51.849  27.509  33.310  0.00  0.00     0.001 A 
ENDROOT
BRANCH   8  18
ATOM     18  C   UNL d   1     -52.745  23.216  33.306  0.00  0.00     0.172 C 
BRANCH  18  19
ATOM     19  C   UNL d   1     -53.292  23.277  33.906  0.00  0.00     0.320 C 
ATOM     20  O   UNL d   1     -54.090  23.363  33.721  0.00  0.00    -0.257 OA
BRANCH  19  21
ATOM     21  O   UNL d   1     -53.055  23.252  34.683  0.00  0.00    -0.270 OA
BRANCH  21  22
ATOM     22  C   UNL d   1     -53.624  23.211  35.293  0.00  0.00     0.126 C 
ATOM     23  C   UNL d   1     -53.402  23.342  36.071  0.00  0.00     0.029 C 
ENDBRANCH  21  22
ENDBRANCH  19  21
ENDBRANCH  18  19
ENDBRANCH   8  18
TORSDOF 4
ENDMDL
