MODEL 1
REMARK VINA RESULT:     -10.8      0.000      0.000
REMARK  1 active torsions:
REMARK  status: ('A' for Active; 'I' for Inactive)
REMARK    1  A    between atoms: C_7  and  C_1 
ROOT
ATOM      1  C   UNL d   1      52.086  34.268  53.375  0.00  0.00     0.103 A 
ATOM      2  C   UNL d   1      52.380  34.985  53.694  0.00  0.00     0.067 A 
ATOM      3  C   UNL d   1      53.427  34.255  54.372  0.00  0.00     0.062 A 
ATOM      4  C   UNL d   1      53.049  34.972  54.191  0.00  0.00     0.200 A 
ATOM      5  O   UNL d   1      52.462  33.548  53.556  0.00  0.00    -0.307 OA
ATOM      6  C   UNL d   1      53.128  33.542  54.050  0.00  0.00     0.103 A 
ATOM      7  C   UNL d   1      54.086  34.245  54.861  0.00  0.00     0.005 A 
ATOM      8  O   UNL d   1      53.339  35.678  54.504  0.00  0.00    -0.286 OA
ATOM      9  C   UNL d   1      53.505  32.825  54.231  0.00  0.00     0.025 A 
ATOM     10  C   UNL d   1      54.458  33.531  55.039  0.00  0.00     0.000 A 
ATOM     11  C   UNL d   1      54.169  32.826  54.726  0.00  0.00     0.002 A 
ATOM     12  C   UNL d   1      55.119  33.525  55.530  0.00  0.00     0.000 C 
ENDROOT
BRANCH   1  13
ATOM     13  C   UNL d   1      51.428  34.282  52.888  0.00  0.00     0.023 A 
ATOM     14  C   UNL d   1      51.517  34.220  52.066  0.00  0.00     0.002 A 
ATOM     15  C   UNL d   1      50.851  34.234  51.581  0.00  0.00     0.000 A 
ATOM     16  C   UNL d   1      50.099  34.310  51.913  0.00  0.00     0.000 A 
ATOM     17  C   UNL d   1      50.014  34.371  52.730  0.00  0.00     0.000 A 
ATOM     18  C   UNL d   1      49.431  34.324  51.421  0.00  0.00     0.000 C 
ATOM     19  C   UNL d   1      50.679  34.357  53.214  0.00  0.00     0.002 A 
ENDBRANCH   1  13
TORSDOF 1
ENDMDL
MODEL 2
REMARK VINA RESULT:      -9.9      1.802      3.437
REMARK  1 active torsions:
REMARK  status: ('A' for Active; 'I' for Inactive)
REMARK    1  A    between atoms: C_7  and  C_1 
ROOT
ATOM      1  C   UNL d   1      53.349  32.254  53.921  0.00  0.00     0.103 A 
ATOM      2  C   UNL d   1      53.997  32.483  54.400  0.00  0.00     0.067 A 
ATOM      3  C   UNL d   1      53.544  33.856  54.357  0.00  0.00     0.062 A 
ATOM      4  C   UNL d   1      54.089  33.284  54.614  0.00  0.00     0.200 A 
ATOM      5  O   UNL d   1      52.802  32.825  53.661  0.00  0.00    -0.307 OA
ATOM      6  C   UNL d   1      52.899  33.619  53.877  0.00  0.00     0.103 A 
ATOM      7  C   UNL d   1      53.637  34.643  54.569  0.00  0.00     0.005 A 
ATOM      8  O   UNL d   1      54.726  33.510  55.087  0.00  0.00    -0.286 OA
ATOM      9  C   UNL d   1      52.355  34.190  53.620  0.00  0.00     0.025 A 
ATOM     10  C   UNL d   1      53.094  35.207  54.311  0.00  0.00     0.000 A 
ATOM     11  C   UNL d   1      52.457  34.982  53.840  0.00  0.00     0.002 A 
ATOM     12  C   UNL d   1      53.190  35.996  54.526  0.00  0.00     0.000 C 
ENDROOT
BRANCH   1  13
ATOM     13  C   UNL d   1      53.260  31.468  53.711  0.00  0.00     0.023 A 
ATOM     14  C   UNL d   1      52.992  31.266  52.953  0.00  0.00     0.002 A 
ATOM     15  C   UNL d   1      52.904  30.473  52.748  0.00  0.00     0.000 A 
ATOM     16  C   UNL d   1      53.083  29.882  53.296  0.00  0.00     0.000 A 
ATOM     17  C   UNL d   1      53.350  30.085  54.048  0.00  0.00     0.000 A 
ATOM     18  C   UNL d   1      52.994  29.085  53.086  0.00  0.00     0.000 C 
ATOM     19  C   UNL d   1      53.437  30.877  54.252  0.00  0.00     0.002 A 
ENDBRANCH   1  13
TORSDOF 1
ENDMDL
MODEL 3
REMARK VINA RESULT:      -9.3      1.810      2.457
REMARK  1 active torsions:
REMARK  status: ('A' for Active; 'I' for Inactive)
REMARK    1  A    between atoms: C_7  and  C_1 
ROOT
ATOM      1  C   UNL d   1      52.169  32.681  53.124  0.00  0.00     0.103 A 
ATOM      2  C   UNL d   1      52.905  32.917  53.448  0.00  0.00     0.067 A 
ATOM      3  C   UNL d   1      53.333  31.536  53.477  0.00  0.00     0.062 A 
ATOM      4  C   UNL d   1      53.482  32.340  53.622  0.00  0.00     0.200 A 
ATOM      5  O   UNL d   1      52.017  31.876  52.978  0.00  0.00    -0.307 OA
ATOM      6  C   UNL d   1      52.594  31.308  53.153  0.00  0.00     0.103 A 
ATOM      7  C   UNL d   1      53.902  30.970  53.649  0.00  0.00     0.005 A 
ATOM      8  O   UNL d   1      54.206  32.571  53.940  0.00  0.00    -0.286 OA
ATOM      9  C   UNL d   1      52.446  30.505  53.008  0.00  0.00     0.025 A 
ATOM     10  C   UNL d   1      53.751  30.174  53.504  0.00  0.00     0.000 A 
ATOM     11  C   UNL d   1      53.027  29.942  53.185  0.00  0.00     0.002 A 
ATOM     12  C   UNL d   1      54.324  29.610  53.677  0.00  0.00     0.000 C 
ENDROOT
BRANCH   1  13
ATOM     13  C   UNL d   1      51.603  33.248  52.954  0.00  0.00     0.023 A 
ATOM     14  C   UNL d   1      51.705  33.760  52.310  0.00  0.00     0.002 A 
ATOM     15  C   UNL d   1      51.132  34.328  52.144  0.00  0.00     0.000 A 
ATOM     16  C   UNL d   1      50.458  34.387  52.617  0.00  0.00     0.000 A 
ATOM     17  C   UNL d   1      50.359  33.877  53.256  0.00  0.00     0.000 A 
ATOM     18  C   UNL d   1      49.883  34.960  52.447  0.00  0.00     0.000 C 
ATOM     19  C   UNL d   1      50.931  33.310  53.422  0.00  0.00     0.002 A 
ENDBRANCH   1  13
TORSDOF 1
ENDMDL
MODEL 4
REMARK VINA RESULT:      -9.2      2.795      4.466
REMARK  1 active torsions:
REMARK  status: ('A' for Active; 'I' for Inactive)
REMARK    1  A    between atoms: C_7  and  C_1 
ROOT
ATOM      1  C   UNL d   1      53.809  32.018  53.972  0.00  0.00     0.103 A 
ATOM      2  C   UNL d   1      53.308  32.189  53.322  0.00  0.00     0.067 A 
ATOM      3  C   UNL d   1      52.946  30.792  53.234  0.00  0.00     0.062 A 
ATOM      4  C   UNL d   1      52.880  31.573  52.959  0.00  0.00     0.200 A 
ATOM      5  O   UNL d   1      53.877  31.237  54.250  0.00  0.00    -0.307 OA
ATOM      6  C   UNL d   1      53.449  30.629  53.884  0.00  0.00     0.103 A 
ATOM      7  C   UNL d   1      52.523  30.187  52.874  0.00  0.00     0.005 A 
ATOM      8  O   UNL d   1      52.387  31.741  52.319  0.00  0.00    -0.286 OA
ATOM      9  C   UNL d   1      53.515  29.849  54.160  0.00  0.00     0.025 A 
ATOM     10  C   UNL d   1      52.591  29.414  53.151  0.00  0.00     0.000 A 
ATOM     11  C   UNL d   1      53.084  29.246  53.790  0.00  0.00     0.002 A 
ATOM     12  C   UNL d   1      52.166  28.811  52.788  0.00  0.00     0.000 C 
ENDROOT
BRANCH   1  13
ATOM     13  C   UNL d   1      54.229  32.624  54.328  0.00  0.00     0.023 A 
ATOM     14  C   UNL d   1      54.851  32.996  53.924  0.00  0.00     0.002 A 
ATOM     15  C   UNL d   1      55.269  33.605  54.289  0.00  0.00     0.000 A 
ATOM     16  C   UNL d   1      55.071  33.843  55.053  0.00  0.00     0.000 A 
ATOM     17  C   UNL d   1      54.453  33.472  55.453  0.00  0.00     0.000 A 
ATOM     18  C   UNL d   1      55.494  34.456  55.417  0.00  0.00     0.000 C 
ATOM     19  C   UNL d   1      54.035  32.864  55.089  0.00  0.00     0.002 A 
ENDBRANCH   1  13
TORSDOF 1
ENDMDL
MODEL 5
REMARK VINA RESULT:      -8.6      1.923      3.367
REMARK  1 active torsions:
REMARK  status: ('A' for Active; 'I' for Inactive)
REMARK    1  A    between atoms: C_7  and  C_1 
ROOT
ATOM      1  C   UNL d   1      52.930  33.197  53.709  0.00  0.00     0.103 A 
ATOM      2  C   UNL d   1      52.333  33.007  53.152  0.00  0.00     0.067 A 
ATOM      3  C   UNL d   1      52.755  31.624  53.172  0.00  0.00     0.062 A 
ATOM      4  C   UNL d   1      52.252  32.220  52.888  0.00  0.00     0.200 A 
ATOM      5  O   UNL d   1      53.436  32.601  53.996  0.00  0.00    -0.307 OA
ATOM      6  C   UNL d   1      53.349  31.821  53.729  0.00  0.00     0.103 A 
ATOM      7  C   UNL d   1      52.673  30.851  52.910  0.00  0.00     0.005 A 
ATOM      8  O   UNL d   1      51.665  32.033  52.339  0.00  0.00    -0.286 OA
ATOM      9  C   UNL d   1      53.853  31.226  54.013  0.00  0.00     0.025 A 
ATOM     10  C   UNL d   1      53.175  30.262  53.195  0.00  0.00     0.000 A 
ATOM     11  C   UNL d   1      53.761  30.449  53.743  0.00  0.00     0.002 A 
ATOM     12  C   UNL d   1      53.089  29.488  52.930  0.00  0.00     0.000 C 
ENDROOT
BRANCH   1  13
ATOM     13  C   UNL d   1      53.009  33.969  53.968  0.00  0.00     0.023 A 
ATOM     14  C   UNL d   1      53.187  34.127  54.763  0.00  0.00     0.002 A 
ATOM     15  C   UNL d   1      53.265  34.907  55.017  0.00  0.00     0.000 A 
ATOM     16  C   UNL d   1      53.168  35.528  54.482  0.00  0.00     0.000 A 
ATOM     17  C   UNL d   1      52.992  35.369  53.694  0.00  0.00     0.000 A 
ATOM     18  C   UNL d   1      53.248  36.312  54.742  0.00  0.00     0.000 C 
ATOM     19  C   UNL d   1      52.913  34.590  53.440  0.00  0.00     0.002 A 
ENDBRANCH   1  13
TORSDOF 1
ENDMDL
MODEL 6
REMARK VINA RESULT:      -8.3      0.793      4.133
REMARK  1 active torsions:
REMARK  status: ('A' for Active; 'I' for Inactive)
REMARK    1  A    between atoms: C_7  and  C_1 
ROOT
ATOM      1  C   UNL d   1      52.251  33.980  53.395  0.00  0.00     0.103 A 
ATOM      2  C   UNL d   1      52.378  33.961  52.567  0.00  0.00     0.067 A 
ATOM      3  C   UNL d   1      50.988  34.289  52.345  0.00  0.00     0.062 A 
ATOM      4  C   UNL d   1      51.744  34.116  52.049  0.00  0.00     0.200 A 
ATOM      5  O   UNL d   1      51.494  34.153  53.695  0.00  0.00    -0.307 OA
ATOM      6  C   UNL d   1      50.868  34.306  53.174  0.00  0.00     0.103 A 
ATOM      7  C   UNL d   1      50.365  34.441  51.832  0.00  0.00     0.005 A 
ATOM      8  O   UNL d   1      51.870  34.097  51.233  0.00  0.00    -0.286 OA
ATOM      9  C   UNL d   1      50.112  34.479  53.470  0.00  0.00     0.025 A 
ATOM     10  C   UNL d   1      49.616  34.612  52.131  0.00  0.00     0.000 A 
ATOM     11  C   UNL d   1      49.491  34.631  52.945  0.00  0.00     0.002 A 
ATOM     12  C   UNL d   1      48.995  34.764  51.613  0.00  0.00     0.000 C 
ENDROOT
BRANCH   1  13
ATOM     13  C   UNL d   1      52.874  33.828  53.904  0.00  0.00     0.023 A 
ATOM     14  C   UNL d   1      53.166  33.056  53.987  0.00  0.00     0.002 A 
ATOM     15  C   UNL d   1      53.794  32.910  54.500  0.00  0.00     0.000 A 
ATOM     16  C   UNL d   1      54.129  33.529  54.930  0.00  0.00     0.000 A 
ATOM     17  C   UNL d   1      53.837  34.295  54.846  0.00  0.00     0.000 A 
ATOM     18  C   UNL d   1      54.761  33.378  55.446  0.00  0.00     0.000 C 
ATOM     19  C   UNL d   1      53.211  34.441  54.334  0.00  0.00     0.002 A 
ENDBRANCH   1  13
TORSDOF 1
ENDMDL
MODEL 7
REMARK VINA RESULT:      -8.1      2.118      5.017
REMARK  1 active torsions:
REMARK  status: ('A' for Active; 'I' for Inactive)
REMARK    1  A    between atoms: C_7  and  C_1 
ROOT
ATOM      1  C   UNL d   1      49.904  34.525  52.490  0.00  0.00     0.103 A 
ATOM      2  C   UNL d   1      49.567  34.344  51.744  0.00  0.00     0.067 A 
ATOM      3  C   UNL d   1      48.447  35.209  52.040  0.00  0.00     0.062 A 
ATOM      4  C   UNL d   1      48.840  34.689  51.525  0.00  0.00     0.200 A 
ATOM      5  O   UNL d   1      49.512  35.046  53.007  0.00  0.00    -0.307 OA
ATOM      6  C   UNL d   1      48.790  35.385  52.784  0.00  0.00     0.103 A 
ATOM      7  C   UNL d   1      47.732  35.548  51.822  0.00  0.00     0.005 A 
ATOM      8  O   UNL d   1      48.509  34.512  50.791  0.00  0.00    -0.286 OA
ATOM      9  C   UNL d   1      48.398  35.904  53.298  0.00  0.00     0.025 A 
ATOM     10  C   UNL d   1      47.345  36.063  52.336  0.00  0.00     0.000 A 
ATOM     11  C   UNL d   1      47.676  36.240  53.069  0.00  0.00     0.002 A 
ATOM     12  C   UNL d   1      46.628  36.400  52.114  0.00  0.00     0.000 C 
ENDROOT
BRANCH   1  13
ATOM     13  C   UNL d   1      50.618  34.186  52.703  0.00  0.00     0.023 A 
ATOM     14  C   UNL d   1      51.332  34.518  52.444  0.00  0.00     0.002 A 
ATOM     15  C   UNL d   1      52.047  34.171  52.663  0.00  0.00     0.000 A 
ATOM     16  C   UNL d   1      52.051  33.497  53.139  0.00  0.00     0.000 A 
ATOM     17  C   UNL d   1      51.341  33.169  53.395  0.00  0.00     0.000 A 
ATOM     18  C   UNL d   1      52.773  33.151  53.357  0.00  0.00     0.000 C 
ATOM     19  C   UNL d   1      50.627  33.514  53.176  0.00  0.00     0.002 A 
ENDBRANCH   1  13
TORSDOF 1
ENDMDL
