MODEL 1
REMARK VINA RESULT:      28.8      0.000      0.000
REMARK  5 active torsions:
REMARK  status: ('A' for Active; 'I' for Inactive)
REMARK    1  A    between atoms: N_6  and  C_1 
REMARK    2  A    between atoms: C_7  and  C_2 
REMARK       I    between atoms: C_8  and  N_6 
REMARK       I    between atoms: N_13  and  C_7 
REMARK    3  A    between atoms: C_9  and  C_8 
REMARK    4  A    between atoms: C_10  and  C_9 
REMARK    5  A    between atoms: C_15  and  C_10 
ROOT
ATOM      1  C   UNL d   1     -57.380 -98.778 -44.309  0.00  0.00     0.119 A 
ATOM      2  C   UNL d   1     -58.120 -98.790 -44.075  0.00  0.00     0.082 A 
ATOM      3  S   UNL d   1     -57.371 -98.764 -45.101  0.00  0.00    -0.068 SA
ATOM      4  C   UNL d   1     -58.585 -98.784 -44.714  0.00  0.00     0.013 A 
ATOM      5  C   UNL d   1     -58.115 -98.767 -45.351  0.00  0.00     0.031 A 
ATOM      6  C   UNL d   1     -59.371 -98.790 -44.802  0.00  0.00     0.001 A 
ATOM      7  C   UNL d   1     -59.218 -98.764 -46.159  0.00  0.00     0.006 A 
ATOM      8  C   UNL d   1     -59.684 -98.781 -45.525  0.00  0.00     0.001 A 
ENDROOT
BRANCH   1   9
ATOM      9  N   UNL d   1     -56.672 -98.774 -44.105  0.00  0.00    -0.201 NA
ATOM     10  C   UNL d   1     -56.170 -99.333 -44.707  0.00  0.00     0.280 C 
ATOM     11  O   UNL d   1     -56.312 -99.716 -45.254  0.00  0.00    -0.265 OA
BRANCH  10  12
ATOM     12  C   UNL d   1     -55.368 -99.359 -44.515  0.00  0.00     0.062 C 
BRANCH  12  13
ATOM     13  C   UNL d   1     -55.114 -99.776 -43.842  0.00  0.00     0.005 C 
BRANCH  13  14
ATOM     14  C   UNL d   1     -54.982-100.589 -43.886  0.00  0.00     0.000 A 
ATOM     15  C   UNL d   1     -54.983-100.973 -44.620  0.00  0.00     0.000 A 
ATOM     16  C   UNL d   1     -54.851-101.785 -44.671  0.00  0.00     0.000 A 
ATOM     17  C   UNL d   1     -54.716-102.227 -43.985  0.00  0.00     0.000 A 
ATOM     18  C   UNL d   1     -54.714-101.842 -43.244  0.00  0.00     0.000 A 
ATOM     19  C   UNL d   1     -54.846-101.029 -43.201  0.00  0.00     0.000 A 
ENDBRANCH  13  14
ENDBRANCH  12  13
ENDBRANCH  10  12
ENDBRANCH   1   9
BRANCH   2  20
ATOM     20  C   UNL d   1     -58.367 -98.806 -43.326  0.00  0.00     0.281 C 
ATOM     21  O   UNL d   1     -57.840 -98.873 -42.739  0.00  0.00    -0.265 OA
ATOM     22  N   UNL d   1     -59.139 -98.757 -43.160  0.00  0.00    -0.205 NA
ATOM     23  C   UNL d   1     -59.394 -98.774 -42.375  0.00  0.00     0.123 C 
ENDBRANCH   2  20
TORSDOF 5
ENDMDL
