MODEL 1
REMARK VINA RESULT:      28.8      0.000      0.000
REMARK  4 active torsions:
REMARK  status: ('A' for Active; 'I' for Inactive)
REMARK    1  A    between atoms: C_9  and  C_2 
REMARK    2  A    between atoms: S_8  and  C_4 
REMARK       I    between atoms: N_6  and  C_7 
REMARK    3  A    between atoms: C_7  and  C_10 
REMARK    4  A    between atoms: C_10  and  S_8 
ROOT
ATOM      1  N   UNL d   1      13.224  12.986  -3.622  0.00  0.00    -0.212 NA
ATOM      2  C   UNL d   1      13.123  13.147  -4.415  0.00  0.00     0.171 A 
ATOM      3  N   UNL d   1      12.920  12.446  -4.798  0.00  0.00    -0.188 NA
ATOM      4  C   UNL d   1      13.086  12.184  -3.497  0.00  0.00     0.160 A 
ATOM      5  S   UNL d   1      12.897  11.850  -4.230  0.00  0.00     0.041 SA
ENDROOT
BRANCH   4   6
ATOM      6  S   UNL d   1      13.127  11.782  -2.778  0.00  0.00    -0.054 SA
BRANCH   6   7
ATOM      7  C   UNL d   1      13.821  11.782  -2.348  0.00  0.00     0.098 C 
BRANCH   7   8
ATOM      8  C   UNL d   1      13.818  11.965  -1.541  0.00  0.00     0.272 C 
ATOM      9  N   UNL d   1      14.472  12.313  -1.177  0.00  0.00    -0.267 N 
ATOM     10  C   UNL d   1      14.447  12.486  -0.376  0.00  0.00     0.110 A 
ATOM     11  C   UNL d   1      15.143  12.481  -1.626  0.00  0.00     0.110 A 
ATOM     12  C   UNL d   1      15.108  12.835  -0.015  0.00  0.00     0.142 A 
ATOM     13  O   UNL d   1      15.782  13.008  -0.452  0.00  0.00    -0.300 OA
ATOM     14  C   UNL d   1      15.804  12.831  -1.265  0.00  0.00     0.142 A 
ATOM     15  O   UNL d   1      13.139  11.794  -1.089  0.00  0.00    -0.266 OA
ENDBRANCH   7   8
ENDBRANCH   6   7
ENDBRANCH   4   6
BRANCH   2  16
ATOM     16  C   UNL d   1      13.207  13.882  -4.782  0.00  0.00     0.036 A 
ATOM     17  C   UNL d   1      12.818  14.531  -4.485  0.00  0.00     0.003 A 
ATOM     18  C   UNL d   1      12.892  15.265  -4.837  0.00  0.00     0.000 A 
ATOM     19  C   UNL d   1      13.371  15.347  -5.507  0.00  0.00     0.000 A 
ATOM     20  C   UNL d   1      13.767  14.698  -5.813  0.00  0.00     0.000 A 
ATOM     21  C   UNL d   1      13.687  13.972  -5.455  0.00  0.00     0.003 A 
ENDBRANCH   2  16
TORSDOF 4
ENDMDL
MODEL 2
REMARK VINA RESULT:      30.8      2.328      3.791
REMARK  4 active torsions:
REMARK  status: ('A' for Active; 'I' for Inactive)
REMARK    1  A    between atoms: C_9  and  C_2 
REMARK    2  A    between atoms: S_8  and  C_4 
REMARK       I    between atoms: N_6  and  C_7 
REMARK    3  A    between atoms: C_7  and  C_10 
REMARK    4  A    between atoms: C_10  and  S_8 
ROOT
ATOM      1  N   UNL d   1      14.908  13.745  -1.280  0.00  0.00    -0.212 NA
ATOM      2  C   UNL d   1      14.972  14.403  -0.802  0.00  0.00     0.171 A 
ATOM      3  N   UNL d   1      14.947  14.155  -0.016  0.00  0.00    -0.188 NA
ATOM      4  C   UNL d   1      14.843  13.078  -0.802  0.00  0.00     0.160 A 
ATOM      5  S   UNL d   1      14.868  13.335  -0.016  0.00  0.00     0.041 SA
ENDROOT
BRANCH   4   6
ATOM      6  S   UNL d   1      14.767  12.295  -1.052  0.00  0.00    -0.054 SA
BRANCH   6   7
ATOM      7  C   UNL d   1      14.642  12.129  -1.842  0.00  0.00     0.098 C 
BRANCH   7   8
ATOM      8  C   UNL d   1      13.881  11.965  -2.124  0.00  0.00     0.272 C 
ATOM      9  N   UNL d   1      13.710  11.984  -2.931  0.00  0.00    -0.267 N 
ATOM     10  C   UNL d   1      12.949  11.819  -3.189  0.00  0.00     0.110 A 
ATOM     11  C   UNL d   1      14.308  12.169  -3.468  0.00  0.00     0.110 A 
ATOM     12  C   UNL d   1      12.782  11.839  -4.002  0.00  0.00     0.142 A 
ATOM     13  O   UNL d   1      13.369  12.022  -4.546  0.00  0.00    -0.300 OA
ATOM     14  C   UNL d   1      14.141  12.189  -4.282  0.00  0.00     0.142 A 
ATOM     15  O   UNL d   1      13.279  11.779  -1.581  0.00  0.00    -0.266 OA
ENDBRANCH   7   8
ENDBRANCH   6   7
ENDBRANCH   4   6
BRANCH   2  16
ATOM     16  C   UNL d   1      15.047  15.186  -1.052  0.00  0.00     0.036 A 
ATOM     17  C   UNL d   1      14.806  15.399  -1.799  0.00  0.00     0.003 A 
ATOM     18  C   UNL d   1      14.875  16.170  -2.060  0.00  0.00     0.000 A 
ATOM     19  C   UNL d   1      15.196  16.743  -1.555  0.00  0.00     0.000 A 
ATOM     20  C   UNL d   1      15.442  16.536  -0.800  0.00  0.00     0.000 A 
ATOM     21  C   UNL d   1      15.369  15.765  -0.550  0.00  0.00     0.003 A 
ENDBRANCH   2  16
TORSDOF 4
ENDMDL
