MODEL 1
REMARK VINA RESULT:      80.9      0.000      0.000
REMARK  6 active torsions:
REMARK  status: ('A' for Active; 'I' for Inactive)
REMARK    1  A    between atoms: C_8  and  C_6 
REMARK    2  A    between atoms: C_9  and  C_8 
REMARK       I    between atoms: N_11  and  C_9 
REMARK    3  A    between atoms: C_10  and  C_12 
REMARK    4  A    between atoms: O_20  and  C_10 
REMARK    5  A    between atoms: C_19  and  N_11 
REMARK    6  A    between atoms: C_29  and  O_20 
ROOT
ATOM      1  N   UNL d   1     -49.003  26.637  34.142  0.00  0.00    -0.207 NA
ATOM      2  N   UNL d   1     -49.810  28.102  34.270  0.00  0.00    -0.240 NA
ATOM      3  C   UNL d   1     -48.763  27.374  34.390  0.00  0.00     0.297 A 
ATOM      4  C   UNL d   1     -49.741  26.385  33.871  0.00  0.00     0.086 A 
ATOM      5  C   UNL d   1     -50.427  27.646  33.984  0.00  0.00     0.083 A 
ATOM      6  C   UNL d   1     -49.039  27.868  34.432  0.00  0.00     0.144 A 
ATOM      7  C   UNL d   1     -50.435  26.841  33.785  0.00  0.00     0.035 A 
ATOM      8  O   UNL d   1     -47.977  27.428  34.626  0.00  0.00    -0.264 OA
ATOM      9  C   UNL d   1     -51.122  26.480  33.502  0.00  0.00     0.003 A 
ATOM     10  C   UNL d   1     -51.115  28.095  33.898  0.00  0.00     0.019 A 
ATOM     11  C   UNL d   1     -49.744  25.582  33.674  0.00  0.00     0.019 A 
ATOM     12  C   UNL d   1     -51.816  27.736  33.611  0.00  0.00     0.002 A 
ATOM     13  C   UNL d   1     -50.437  25.229  33.391  0.00  0.00     0.002 A 
ATOM     14  C   UNL d   1     -51.817  26.935  33.415  0.00  0.00     0.000 A 
ATOM     15  C   UNL d   1     -51.123  25.678  33.306  0.00  0.00     0.000 A 
ENDROOT
BRANCH   6  16
ATOM     16  C   UNL d   1     -48.565  28.481  34.716  0.00  0.00     0.086 C 
BRANCH  16  17
ATOM     17  C   UNL d   1     -48.499  28.598  35.538  0.00  0.00     0.281 C 
ATOM     18  N   UNL d   1     -48.228  29.322  35.832  0.00  0.00    -0.208 NA
ATOM     19  O   UNL d   1     -48.703  27.993  36.064  0.00  0.00    -0.265 OA
BRANCH  18  20
ATOM     20  C   UNL d   1     -48.022  29.930  35.310  0.00  0.00     0.085 A 
ATOM     21  C   UNL d   1     -48.612  30.389  34.968  0.00  0.00     0.019 A 
ATOM     22  C   UNL d   1     -48.414  30.996  34.449  0.00  0.00     0.007 A 
ATOM     23  C   UNL d   1     -47.617  31.143  34.271  0.00  0.00     0.064 A 
ATOM     24  C   UNL d   1     -47.027  30.680  34.616  0.00  0.00     0.007 A 
ATOM     25  C   UNL d   1     -47.230  30.074  35.136  0.00  0.00     0.019 A 
BRANCH  23  26
ATOM     26  C   UNL d   1     -47.418  31.739  33.760  0.00  0.00     0.300 C 
ATOM     27  O   UNL d   1     -46.647  31.820  33.502  0.00  0.00    -0.259 OA
BRANCH  26  28
ATOM     28  O   UNL d   1     -47.984  32.260  33.500  0.00  0.00    -0.271 OA
BRANCH  28  29
ATOM     29  C   UNL d   1     -47.947  33.044  33.717  0.00  0.00     0.126 C 
ATOM     30  C   UNL d   1     -48.372  33.601  33.306  0.00  0.00     0.029 C 
ENDBRANCH  28  29
ENDBRANCH  26  28
ENDBRANCH  23  26
ENDBRANCH  18  20
ENDBRANCH  16  17
ENDBRANCH   6  16
TORSDOF 6
ENDMDL
