MODEL 1
REMARK VINA RESULT:      19.9      0.000      0.000
REMARK  5 active torsions:
REMARK  status: ('A' for Active; 'I' for Inactive)
REMARK    1  A    between atoms: C_11  and  N_1 
REMARK    2  A    between atoms: S_10  and  C_2 
REMARK    3  A    between atoms: S_3  and  C_12 
REMARK    4  A    between atoms: C_13  and  C_11 
REMARK    5  A    between atoms: C_12  and  C_13 
ROOT
ATOM      1  N   UNL d   1     -58.266 -98.766 -44.677  0.00  0.00    -0.295 N 
ATOM      2  C   UNL d   1     -58.885 -98.764 -45.215  0.00  0.00     0.121 A 
ATOM      3  S   UNL d   1     -59.597 -98.761 -44.803  0.00  0.00    -0.062 SA
ATOM      4  C   UNL d   1     -58.593 -98.763 -43.919  0.00  0.00     0.071 A 
ATOM      5  C   UNL d   1     -59.424 -98.760 -43.998  0.00  0.00     0.047 A 
ATOM      6  C   UNL d   1     -58.248 -98.764 -43.170  0.00  0.00     0.018 A 
ATOM      7  C   UNL d   1     -59.895 -98.758 -43.326  0.00  0.00     0.008 A 
ATOM      8  C   UNL d   1     -58.731 -98.761 -42.495  0.00  0.00     0.002 A 
ATOM      9  C   UNL d   1     -59.542 -98.758 -42.572  0.00  0.00     0.001 A 
ENDROOT
BRANCH   1  10
ATOM     10  C   UNL d   1     -57.474 -98.769 -44.857  0.00  0.00     0.082 C 
BRANCH  10  11
ATOM     11  C   UNL d   1     -56.955 -99.294 -44.469  0.00  0.00     0.034 C 
BRANCH  11  12
ATOM     12  C   UNL d   1     -56.285 -99.574 -44.851  0.00  0.00     0.119 C 
BRANCH  12  13
ATOM     13  S   UNL d   1     -55.559 -99.577 -44.456  0.00  0.00     0.140 S 
ATOM     14  O   UNL d   1     -54.848 -99.584 -44.069  0.00  0.00    -0.591 OA
ATOM     15  O   UNL d   1     -55.524 -98.756 -44.514  0.00  0.00    -0.591 OA
ATOM     16  O   UNL d   1     -55.593-100.402 -44.397  0.00  0.00    -0.591 OA
ENDBRANCH  12  13
ENDBRANCH  11  12
ENDBRANCH  10  11
ENDBRANCH   1  10
BRANCH   2  17
ATOM     17  S   UNL d   1     -58.807 -98.765 -46.033  0.00  0.00    -0.089 SA
ATOM     18  C   UNL d   1     -59.465 -98.766 -46.510  0.00  0.00     0.076 C 
ENDBRANCH   2  17
TORSDOF 5
ENDMDL
MODEL 2
REMARK VINA RESULT:      20.2      0.743      2.109
REMARK  5 active torsions:
REMARK  status: ('A' for Active; 'I' for Inactive)
REMARK    1  A    between atoms: C_11  and  N_1 
REMARK    2  A    between atoms: S_10  and  C_2 
REMARK    3  A    between atoms: S_3  and  C_12 
REMARK    4  A    between atoms: C_13  and  C_11 
REMARK    5  A    between atoms: C_12  and  C_13 
ROOT
ATOM      1  N   UNL d   1     -58.326 -98.755 -44.281  0.00  0.00    -0.295 N 
ATOM      2  C   UNL d   1     -58.943 -98.755 -43.742  0.00  0.00     0.121 A 
ATOM      3  S   UNL d   1     -59.657 -98.755 -44.151  0.00  0.00    -0.062 SA
ATOM      4  C   UNL d   1     -58.655 -98.756 -45.038  0.00  0.00     0.071 A 
ATOM      5  C   UNL d   1     -59.486 -98.755 -44.956  0.00  0.00     0.047 A 
ATOM      6  C   UNL d   1     -58.313 -98.756 -45.789  0.00  0.00     0.018 A 
ATOM      7  C   UNL d   1     -59.959 -98.755 -45.627  0.00  0.00     0.008 A 
ATOM      8  C   UNL d   1     -58.798 -98.756 -46.462  0.00  0.00     0.002 A 
ATOM      9  C   UNL d   1     -59.609 -98.755 -46.382  0.00  0.00     0.001 A 
ENDROOT
BRANCH   1  10
ATOM     10  C   UNL d   1     -57.534 -98.756 -44.104  0.00  0.00     0.082 C 
BRANCH  10  11
ATOM     11  C   UNL d   1     -57.022 -99.311 -44.458  0.00  0.00     0.034 C 
BRANCH  11  12
ATOM     12  C   UNL d   1     -56.233 -99.126 -44.588  0.00  0.00     0.119 C 
BRANCH  12  13
ATOM     13  S   UNL d   1     -55.662 -99.723 -44.558  0.00  0.00     0.140 S 
ATOM     14  O   UNL d   1     -55.098-100.303 -44.531  0.00  0.00    -0.591 OA
ATOM     15  O   UNL d   1     -56.254-100.286 -44.460  0.00  0.00    -0.591 OA
ATOM     16  O   UNL d   1     -55.066 -99.157 -44.657  0.00  0.00    -0.591 OA
ENDBRANCH  12  13
ENDBRANCH  11  12
ENDBRANCH  10  11
ENDBRANCH   1  10
BRANCH   2  17
ATOM     17  S   UNL d   1     -58.863 -98.755 -42.923  0.00  0.00    -0.089 SA
ATOM     18  C   UNL d   1     -59.518 -98.806 -42.444  0.00  0.00     0.076 C 
ENDBRANCH   2  17
TORSDOF 5
ENDMDL
