MODEL 1
REMARK VINA RESULT:      -3.3      0.000      0.000
REMARK  6 active torsions:
REMARK  status: ('A' for Active; 'I' for Inactive)
REMARK    1  A    between atoms: C_6  and  N_3 
REMARK    2  A    between atoms: C_14  and  C_6 
REMARK    3  A    between atoms: C_7  and  O_8 
REMARK    4  A    between atoms: O_8  and  C_11 
REMARK    5  A    between atoms: C_11  and  C_15 
REMARK    6  A    between atoms: C_15  and  C_14 
ROOT
ATOM      1  C   UNL d   1      33.080  19.129 -22.484  0.00  0.00     0.082 C 
ENDROOT
BRANCH   1   2
ATOM      2  N   UNL d   1      32.960  18.813 -23.239  0.00  0.00    -0.287 N 
ATOM      3  C   UNL d   1      33.241  19.302 -23.866  0.00  0.00     0.183 A 
ATOM      4  N   UNL d   1      33.079  18.905 -24.597  0.00  0.00    -0.224 NA
ATOM      5  C   UNL d   1      32.701  18.179 -24.420  0.00  0.00     0.099 A 
ATOM      6  C   UNL d   1      32.629  18.125 -23.578  0.00  0.00     0.083 A 
ATOM      7  C   UNL d   1      32.419  17.571 -24.901  0.00  0.00     0.021 A 
ATOM      8  C   UNL d   1      32.269  17.450 -23.245  0.00  0.00     0.019 A 
ATOM      9  C   UNL d   1      31.987  16.842 -23.735  0.00  0.00     0.002 A 
ATOM     10  C   UNL d   1      32.064  16.908 -24.565  0.00  0.00     0.002 A 
ENDBRANCH   1   2
BRANCH   1  11
ATOM     11  C   UNL d   1      32.966  19.933 -22.350  0.00  0.00     0.021 C 
BRANCH  11  12
ATOM     12  C   UNL d   1      32.906  20.218 -21.591  0.00  0.00     0.028 C 
BRANCH  12  13
ATOM     13  C   UNL d   1      32.853  21.038 -21.448  0.00  0.00     0.123 C 
BRANCH  13  14
ATOM     14  O   UNL d   1      32.408  21.317 -20.817  0.00  0.00    -0.305 OA
BRANCH  14  15
ATOM     15  C   UNL d   1      32.443  22.114 -20.610  0.00  0.00     0.100 A 
ATOM     16  C   UNL d   1      32.051  22.676 -21.074  0.00  0.00     0.025 A 
ATOM     17  C   UNL d   1      32.090  23.461 -20.864  0.00  0.00     0.002 A 
ATOM     18  C   UNL d   1      32.507  23.702 -20.205  0.00  0.00     0.000 A 
ATOM     19  C   UNL d   1      32.901  23.138 -19.739  0.00  0.00     0.002 A 
ATOM     20  C   UNL d   1      32.867  22.343 -19.943  0.00  0.00     0.025 A 
ENDBRANCH  14  15
ENDBRANCH  13  14
ENDBRANCH  12  13
ENDBRANCH  11  12
ENDBRANCH   1  11
TORSDOF 6
ENDMDL
MODEL 2
REMARK VINA RESULT:      -3.3      1.635      5.604
REMARK  6 active torsions:
REMARK  status: ('A' for Active; 'I' for Inactive)
REMARK    1  A    between atoms: C_6  and  N_3 
REMARK    2  A    between atoms: C_14  and  C_6 
REMARK    3  A    between atoms: C_7  and  O_8 
REMARK    4  A    between atoms: O_8  and  C_11 
REMARK    5  A    between atoms: C_11  and  C_15 
REMARK    6  A    between atoms: C_15  and  C_14 
ROOT
ATOM      1  C   UNL d   1      33.065  21.058 -20.930  0.00  0.00     0.082 C 
ENDROOT
BRANCH   1   2
ATOM      2  N   UNL d   1      32.779  21.815 -20.760  0.00  0.00    -0.287 N 
ATOM      3  C   UNL d   1      32.285  22.139 -21.361  0.00  0.00     0.183 A 
ATOM      4  N   UNL d   1      32.039  22.909 -21.106  0.00  0.00    -0.224 NA
ATOM      5  C   UNL d   1      32.379  23.056 -20.355  0.00  0.00     0.099 A 
ATOM      6  C   UNL d   1      32.837  22.376 -20.144  0.00  0.00     0.083 A 
ATOM      7  C   UNL d   1      32.335  23.702 -19.845  0.00  0.00     0.021 A 
ATOM      8  C   UNL d   1      33.241  22.372 -19.414  0.00  0.00     0.019 A 
ATOM      9  C   UNL d   1      33.193  23.026 -18.905  0.00  0.00     0.002 A 
ATOM     10  C   UNL d   1      32.737  23.691 -19.126  0.00  0.00     0.002 A 
ENDBRANCH   1   2
BRANCH   1  11
ATOM     11  C   UNL d   1      32.838  20.676 -21.623  0.00  0.00     0.021 C 
BRANCH  11  12
ATOM     12  C   UNL d   1      33.101  19.924 -21.782  0.00  0.00     0.028 C 
BRANCH  12  13
ATOM     13  C   UNL d   1      32.868  19.531 -22.480  0.00  0.00     0.123 C 
BRANCH  13  14
ATOM     14  O   UNL d   1      33.159  18.781 -22.646  0.00  0.00    -0.305 OA
BRANCH  14  15
ATOM     15  C   UNL d   1      32.889  18.373 -23.310  0.00  0.00     0.100 A 
ATOM     16  C   UNL d   1      32.418  17.699 -23.214  0.00  0.00     0.025 A 
ATOM     17  C   UNL d   1      32.156  17.302 -23.873  0.00  0.00     0.002 A 
ATOM     18  C   UNL d   1      32.348  17.556 -24.625  0.00  0.00     0.000 A 
ATOM     19  C   UNL d   1      32.820  18.233 -24.721  0.00  0.00     0.002 A 
ATOM     20  C   UNL d   1      33.091  18.641 -24.061  0.00  0.00     0.025 A 
ENDBRANCH  14  15
ENDBRANCH  13  14
ENDBRANCH  12  13
ENDBRANCH  11  12
ENDBRANCH   1  11
TORSDOF 6
ENDMDL
MODEL 3
REMARK VINA RESULT:      -3.0      1.333      2.142
REMARK  6 active torsions:
REMARK  status: ('A' for Active; 'I' for Inactive)
REMARK    1  A    between atoms: C_6  and  N_3 
REMARK    2  A    between atoms: C_14  and  C_6 
REMARK    3  A    between atoms: C_7  and  O_8 
REMARK    4  A    between atoms: O_8  and  C_11 
REMARK    5  A    between atoms: C_11  and  C_15 
REMARK    6  A    between atoms: C_15  and  C_14 
ROOT
ATOM      1  C   UNL d   1      32.515  17.989 -23.682  0.00  0.00     0.082 C 
ENDROOT
BRANCH   1   2
ATOM      2  N   UNL d   1      32.096  17.276 -23.643  0.00  0.00    -0.287 N 
ATOM      3  C   UNL d   1      32.498  16.663 -23.227  0.00  0.00     0.183 A 
ATOM      4  N   UNL d   1      32.002  15.976 -23.236  0.00  0.00    -0.224 NA
ATOM      5  C   UNL d   1      31.302  16.167 -23.653  0.00  0.00     0.099 A 
ATOM      6  C   UNL d   1      31.364  16.973 -23.904  0.00  0.00     0.083 A 
ATOM      7  C   UNL d   1      30.629  15.725 -23.836  0.00  0.00     0.021 A 
ATOM      8  C   UNL d   1      30.735  17.311 -24.337  0.00  0.00     0.019 A 
ATOM      9  C   UNL d   1      30.062  16.861 -24.517  0.00  0.00     0.002 A 
ATOM     10  C   UNL d   1      30.013  16.065 -24.263  0.00  0.00     0.002 A 
ENDBRANCH   1   2
BRANCH   1  11
ATOM     11  C   UNL d   1      32.712  18.391 -22.992  0.00  0.00     0.021 C 
BRANCH  11  12
ATOM     12  C   UNL d   1      32.954  19.166 -23.023  0.00  0.00     0.028 C 
BRANCH  12  13
ATOM     13  C   UNL d   1      32.850  19.671 -22.367  0.00  0.00     0.123 C 
BRANCH  13  14
ATOM     14  O   UNL d   1      33.241  20.393 -22.339  0.00  0.00    -0.305 OA
BRANCH  14  15
ATOM     15  C   UNL d   1      32.986  20.978 -21.817  0.00  0.00     0.100 A 
ATOM     16  C   UNL d   1      32.672  20.763 -21.082  0.00  0.00     0.025 A 
ATOM     17  C   UNL d   1      32.422  21.346 -20.572  0.00  0.00     0.002 A 
ATOM     18  C   UNL d   1      32.475  22.136 -20.773  0.00  0.00     0.000 A 
ATOM     19  C   UNL d   1      32.790  22.350 -21.511  0.00  0.00     0.002 A 
ATOM     20  C   UNL d   1      33.045  21.769 -22.033  0.00  0.00     0.025 A 
ENDBRANCH  14  15
ENDBRANCH  13  14
ENDBRANCH  12  13
ENDBRANCH  11  12
ENDBRANCH   1  11
TORSDOF 6
ENDMDL
