MODEL 1
REMARK VINA RESULT:      33.5      0.000      0.000
REMARK  8 active torsions:
REMARK  status: ('A' for Active; 'I' for Inactive)
REMARK    1  A    between atoms: C_6  and  N_1 
REMARK    2  A    between atoms: C_7  and  C_6 
REMARK    3  A    between atoms: C_12  and  C_7 
REMARK    4  A    between atoms: C_8  and  C_19 
REMARK    5  A    between atoms: C_9  and  C_20 
REMARK    6  A    between atoms: N_13  and  C_12 
REMARK    7  A    between atoms: C_19  and  N_13 
REMARK    8  A    between atoms: C_20  and  N_13 
ROOT
ATOM      1  N   UNL d   1      44.906 -14.116  43.886  0.00  0.00    -0.303 N 
ATOM      2  C   UNL d   1      44.473 -13.660  43.343  0.00  0.00     0.064 A 
ATOM      3  C   UNL d   1      45.511 -13.636  44.194  0.00  0.00     0.064 A 
ATOM      4  C   UNL d   1      45.454 -12.888  43.845  0.00  0.00     0.018 A 
ATOM      5  C   UNL d   1      44.811 -12.897  43.315  0.00  0.00     0.018 A 
ATOM      6  C   UNL d   1      46.104 -13.787  44.747  0.00  0.00     0.018 A 
ATOM      7  C   UNL d   1      43.819 -13.837  42.872  0.00  0.00     0.018 A 
ATOM      8  C   UNL d   1      45.989 -12.291  44.049  0.00  0.00     0.002 A 
ATOM      9  C   UNL d   1      44.493 -12.327  42.821  0.00  0.00     0.002 A 
ATOM     10  C   UNL d   1      43.843 -12.499  42.352  0.00  0.00     0.000 A 
ATOM     11  C   UNL d   1      43.505 -13.255  42.376  0.00  0.00     0.002 A 
ATOM     12  C   UNL d   1      46.645 -13.187  44.954  0.00  0.00     0.002 A 
ATOM     13  C   UNL d   1      46.582 -12.440  44.601  0.00  0.00     0.000 A 
ENDROOT
BRANCH   1  14
ATOM     14  C   UNL d   1      44.765 -14.901  44.086  0.00  0.00     0.124 C 
BRANCH  14  15
ATOM     15  C   UNL d   1      45.487 -15.294  44.082  0.00  0.00     0.231 C 
ATOM     16  O   UNL d   1      45.884 -15.219  44.805  0.00  0.00    -0.283 OA
BRANCH  15  17
ATOM     17  C   UNL d   1      45.911 -15.744  43.536  0.00  0.00     0.124 C 
BRANCH  17  18
ATOM     18  N   UNL d   1      45.990 -16.554  43.643  0.00  0.00    -0.300 N 
BRANCH  18  19
ATOM     19  C   UNL d   1      45.734 -16.901  44.348  0.00  0.00     0.080 C 
BRANCH  19  20
ATOM     20  C   UNL d   1      46.178 -17.505  44.699  0.00  0.00     0.019 C 
ATOM     21  C   UNL d   1      46.015 -18.271  44.955  0.00  0.00     0.002 C 
ENDBRANCH  19  20
ENDBRANCH  18  19
BRANCH  18  22
ATOM     22  C   UNL d   1      46.322 -17.019  43.055  0.00  0.00     0.080 C 
BRANCH  22  23
ATOM     23  C   UNL d   1      45.919 -17.680  42.774  0.00  0.00     0.019 C 
ATOM     24  C   UNL d   1      45.735 -17.970  42.024  0.00  0.00     0.002 C 
ENDBRANCH  22  23
ENDBRANCH  18  22
ENDBRANCH  17  18
ENDBRANCH  15  17
ENDBRANCH  14  15
ENDBRANCH   1  14
TORSDOF 8
ENDMDL
