MODEL 1
REMARK VINA RESULT:      -1.8      0.000      0.000
REMARK  3 active torsions:
REMARK  status: ('A' for Active; 'I' for Inactive)
REMARK    1  A    between atoms: C_4  and  C_1 
REMARK       I    between atoms: C_5  and  N_6 
REMARK    2  A    between atoms: C_8  and  C_5 
REMARK    3  A    between atoms: N_6  and  C_7 
ROOT
ATOM      1  C   UNL d   1      59.656  -0.013  29.743  0.00  0.00     0.042 A 
ATOM      2  C   UNL d   1      59.835  -0.578  29.166  0.00  0.00     0.087 A 
ATOM      3  C   UNL d   1      60.177   0.614  29.871  0.00  0.00     0.004 A 
ATOM      4  C   UNL d   1      60.526  -0.519  28.721  0.00  0.00     0.019 A 
ATOM      5  C   UNL d   1      60.869   0.682  29.434  0.00  0.00     0.000 A 
ATOM      6  C   UNL d   1      61.044   0.110  28.853  0.00  0.00     0.002 A 
ENDROOT
BRANCH   1   7
ATOM      7  C   UNL d   1      58.963  -0.075  30.186  0.00  0.00     0.112 A 
ATOM      8  N   UNL d   1      58.698  -0.659  30.692  0.00  0.00    -0.238 NA
ATOM      9  C   UNL d   1      57.964  -0.426  30.983  0.00  0.00     0.088 A 
ATOM     10  C   UNL d   1      57.439  -0.781  31.504  0.00  0.00     0.020 A 
ATOM     11  C   UNL d   1      57.782   0.301  30.652  0.00  0.00     0.049 A 
ATOM     12  C   UNL d   1      56.729  -0.405  31.695  0.00  0.00     0.002 A 
ATOM     13  C   UNL d   1      56.548   0.323  31.364  0.00  0.00     0.001 A 
ATOM     14  C   UNL d   1      57.072   0.677  30.843  0.00  0.00     0.008 A 
ATOM     15  S   UNL d   1      58.408   0.517  30.156  0.00  0.00    -0.066 SA
ENDBRANCH   1   7
BRANCH   2  16
ATOM     16  N   UNL d   1      59.315  -1.205  29.037  0.00  0.00    -0.206 NA
ATOM     17  C   UNL d   1      59.611  -1.951  28.814  0.00  0.00     0.302 C 
ATOM     18  O   UNL d   1      60.422  -2.060  28.724  0.00  0.00    -0.263 OA
BRANCH  17  19
ATOM     19  C   UNL d   1      59.094  -2.581  28.683  0.00  0.00     0.158 A 
ATOM     20  O   UNL d   1      58.278  -2.609  28.544  0.00  0.00    -0.300 OA
ATOM     21  C   UNL d   1      58.070  -3.393  28.455  0.00  0.00     0.123 A 
ATOM     22  C   UNL d   1      58.742  -3.863  28.536  0.00  0.00     0.029 A 
ATOM     23  C   UNL d   1      59.377  -3.355  28.678  0.00  0.00     0.032 A 
ENDBRANCH  17  19
ENDBRANCH   2  16
TORSDOF 3
ENDMDL
MODEL 2
REMARK VINA RESULT:       0.2      3.870      6.394
REMARK  3 active torsions:
REMARK  status: ('A' for Active; 'I' for Inactive)
REMARK    1  A    between atoms: C_4  and  C_1 
REMARK       I    between atoms: C_5  and  N_6 
REMARK    2  A    between atoms: C_8  and  C_5 
REMARK    3  A    between atoms: N_6  and  C_7 
ROOT
ATOM      1  C   UNL d   1      55.072   0.297  33.545  0.00  0.00     0.042 A 
ATOM      2  C   UNL d   1      55.314   0.503  34.308  0.00  0.00     0.087 A 
ATOM      3  C   UNL d   1      54.267   0.272  33.369  0.00  0.00     0.004 A 
ATOM      4  C   UNL d   1      54.760   0.682  34.891  0.00  0.00     0.019 A 
ATOM      5  C   UNL d   1      53.705   0.448  33.942  0.00  0.00     0.000 A 
ATOM      6  C   UNL d   1      53.955   0.655  34.710  0.00  0.00     0.002 A 
ENDROOT
BRANCH   1   7
ATOM      7  C   UNL d   1      55.630   0.119  32.963  0.00  0.00     0.112 A 
ATOM      8  N   UNL d   1      56.038   0.599  32.444  0.00  0.00    -0.238 NA
ATOM      9  C   UNL d   1      56.525   0.118  31.986  0.00  0.00     0.088 A 
ATOM     10  C   UNL d   1      57.054   0.285  31.383  0.00  0.00     0.020 A 
ATOM     11  C   UNL d   1      56.413  -0.656  32.230  0.00  0.00     0.049 A 
ATOM     12  C   UNL d   1      57.474  -0.328  31.020  0.00  0.00     0.002 A 
ATOM     13  C   UNL d   1      57.361  -1.102  31.264  0.00  0.00     0.001 A 
ATOM     14  C   UNL d   1      56.832  -1.268  31.867  0.00  0.00     0.008 A 
ATOM     15  S   UNL d   1      55.853  -0.652  32.840  0.00  0.00    -0.066 SA
ENDBRANCH   1   7
BRANCH   2  16
ATOM     16  N   UNL d   1      56.119   0.529  34.485  0.00  0.00    -0.206 NA
ATOM     17  C   UNL d   1      56.370   0.575  35.279  0.00  0.00     0.302 C 
ATOM     18  O   UNL d   1      55.811   0.595  35.883  0.00  0.00    -0.263 OA
BRANCH  17  19
ATOM     19  C   UNL d   1      57.174   0.602  35.460  0.00  0.00     0.158 A 
ATOM     20  O   UNL d   1      57.851   0.573  34.983  0.00  0.00    -0.300 OA
ATOM     21  C   UNL d   1      58.501   0.622  35.475  0.00  0.00     0.123 A 
ATOM     22  C   UNL d   1      58.246   0.682  36.256  0.00  0.00     0.029 A 
ATOM     23  C   UNL d   1      57.420   0.669  36.244  0.00  0.00     0.032 A 
ENDBRANCH  17  19
ENDBRANCH   2  16
TORSDOF 3
ENDMDL
MODEL 3
REMARK VINA RESULT:       0.3      9.026      9.295
REMARK  3 active torsions:
REMARK  status: ('A' for Active; 'I' for Inactive)
REMARK    1  A    between atoms: C_4  and  C_1 
REMARK       I    between atoms: C_5  and  N_6 
REMARK    2  A    between atoms: C_8  and  C_5 
REMARK    3  A    between atoms: N_6  and  C_7 
ROOT
ATOM      1  C   UNL d   1      59.478  -9.772  29.879  0.00  0.00     0.042 A 
ATOM      2  C   UNL d   1      59.893  -9.802  30.593  0.00  0.00     0.087 A 
ATOM      3  C   UNL d   1      59.895  -9.758  29.168  0.00  0.00     0.004 A 
ATOM      4  C   UNL d   1      60.717  -9.817  30.599  0.00  0.00     0.019 A 
ATOM      5  C   UNL d   1      60.717  -9.773  29.162  0.00  0.00     0.000 A 
ATOM      6  C   UNL d   1      61.130  -9.803  29.885  0.00  0.00     0.002 A 
ENDROOT
BRANCH   1   7
ATOM      7  C   UNL d   1      58.652  -9.757  29.876  0.00  0.00     0.112 A 
ATOM      8  N   UNL d   1      58.111  -9.808  30.486  0.00  0.00    -0.238 NA
ATOM      9  C   UNL d   1      57.357  -9.761  30.158  0.00  0.00     0.088 A 
ATOM     10  C   UNL d   1      56.609  -9.781  30.492  0.00  0.00     0.020 A 
ATOM     11  C   UNL d   1      57.441  -9.683  29.347  0.00  0.00     0.049 A 
ATOM     12  C   UNL d   1      55.940  -9.721  30.011  0.00  0.00     0.002 A 
ATOM     13  C   UNL d   1      56.025  -9.643  29.199  0.00  0.00     0.001 A 
ATOM     14  C   UNL d   1      56.773  -9.623  28.866  0.00  0.00     0.008 A 
ATOM     15  S   UNL d   1      58.251  -9.681  29.174  0.00  0.00    -0.066 SA
ENDBRANCH   1   7
BRANCH   2  16
ATOM     16  N   UNL d   1      59.476  -9.816  31.304  0.00  0.00    -0.206 NA
ATOM     17  C   UNL d   1      59.851  -9.581  32.011  0.00  0.00     0.302 C 
ATOM     18  O   UNL d   1      60.636  -9.335  31.995  0.00  0.00    -0.263 OA
BRANCH  17  19
ATOM     19  C   UNL d   1      59.437  -9.594  32.725  0.00  0.00     0.158 A 
ATOM     20  O   UNL d   1      58.628  -9.561  32.898  0.00  0.00    -0.300 OA
ATOM     21  C   UNL d   1      58.547  -9.595  33.709  0.00  0.00     0.123 A 
ATOM     22  C   UNL d   1      59.294  -9.649  34.053  0.00  0.00     0.029 A 
ATOM     23  C   UNL d   1      59.845  -9.648  33.439  0.00  0.00     0.032 A 
ENDBRANCH  17  19
ENDBRANCH   2  16
TORSDOF 3
ENDMDL
