MODEL 1
REMARK VINA RESULT:      10.3      0.000      0.000
REMARK  6 active torsions:
REMARK  status: ('A' for Active; 'I' for Inactive)
REMARK    1  A    between atoms: C_4  and  C_1 
REMARK    2  A    between atoms: N_7  and  C_2 
REMARK    3  A    between atoms: C_6  and  C_4 
REMARK    4  A    between atoms: C_8  and  C_4 
REMARK    5  A    between atoms: O_13  and  C_6 
REMARK    6  A    between atoms: C_19  and  O_13 
ROOT
ATOM      1  C   UNL d   1     -42.042-122.722 -49.603  0.00  0.00     0.122 A 
ATOM      2  C   UNL d   1     -42.841-122.709 -49.392  0.00  0.00     0.166 A 
ATOM      3  N   UNL d   1     -43.068-122.959 -48.635  0.00  0.00    -0.225 NA
ATOM      4  N   UNL d   1     -41.468-122.982 -49.065  0.00  0.00    -0.241 NA
ATOM      5  C   UNL d   1     -42.498-123.219 -48.097  0.00  0.00     0.101 A 
ATOM      6  C   UNL d   1     -41.696-123.229 -48.316  0.00  0.00     0.099 A 
ATOM      7  C   UNL d   1     -42.725-123.467 -47.343  0.00  0.00     0.021 A 
ATOM      8  C   UNL d   1     -41.131-123.489 -47.776  0.00  0.00     0.021 A 
ATOM      9  C   UNL d   1     -41.358-123.737 -47.023  0.00  0.00     0.002 A 
ATOM     10  C   UNL d   1     -42.151-123.727 -46.806  0.00  0.00     0.002 A 
ENDROOT
BRANCH   1  11
ATOM     11  C   UNL d   1     -41.804-122.472 -50.363  0.00  0.00     0.105 C 
BRANCH  11  12
ATOM     12  C   UNL d   1     -41.540-123.016 -50.922  0.00  0.00     0.303 C 
ATOM     13  O   UNL d   1     -41.496-123.817 -50.725  0.00  0.00    -0.259 OA
BRANCH  12  14
ATOM     14  O   UNL d   1     -41.321-122.763 -51.676  0.00  0.00    -0.273 OA
BRANCH  14  15
ATOM     15  C   UNL d   1     -41.278-122.901 -52.485  0.00  0.00     0.103 A 
ATOM     16  C   UNL d   1     -41.349-123.670 -52.767  0.00  0.00     0.025 A 
ATOM     17  C   UNL d   1     -41.307-123.809 -53.572  0.00  0.00     0.002 A 
ATOM     18  C   UNL d   1     -41.195-123.190 -54.105  0.00  0.00     0.000 A 
ATOM     19  C   UNL d   1     -41.125-122.421 -53.809  0.00  0.00     0.002 A 
ATOM     20  C   UNL d   1     -41.167-122.278 -53.002  0.00  0.00     0.025 A 
ENDBRANCH  14  15
ENDBRANCH  12  14
ENDBRANCH  11  12
BRANCH  11  21
ATOM     21  C   UNL d   1     -41.833-121.660 -50.563  0.00  0.00     0.129 C 
ATOM     22  N   UNL d   1     -41.199-121.026 -50.237  0.00  0.00    -0.146 N 
ENDBRANCH  11  21
ENDBRANCH   1  11
BRANCH   2  23
ATOM     23  N   UNL d   1     -43.407-122.450 -49.932  0.00  0.00    -0.285 N 
ATOM     24  C   UNL d   1     -43.331-121.697 -50.277  0.00  0.00     0.101 A 
ATOM     25  C   UNL d   1     -43.890-121.429 -50.816  0.00  0.00     0.100 A 
ATOM     26  N   UNL d   1     -44.532-121.914 -51.015  0.00  0.00    -0.299 N 
ATOM     27  C   UNL d   1     -44.608-122.666 -50.670  0.00  0.00     0.100 A 
ATOM     28  C   UNL d   1     -45.105-121.648 -51.563  0.00  0.00     0.100 C 
ATOM     29  C   UNL d   1     -44.043-122.933 -50.127  0.00  0.00     0.101 A 
ENDBRANCH   2  23
TORSDOF 6
ENDMDL
MODEL 2
REMARK VINA RESULT:      11.2      1.857      3.694
REMARK  6 active torsions:
REMARK  status: ('A' for Active; 'I' for Inactive)
REMARK    1  A    between atoms: C_4  and  C_1 
REMARK    2  A    between atoms: N_7  and  C_2 
REMARK    3  A    between atoms: C_6  and  C_4 
REMARK    4  A    between atoms: C_8  and  C_4 
REMARK    5  A    between atoms: O_13  and  C_6 
REMARK    6  A    between atoms: C_19  and  O_13 
ROOT
ATOM      1  C   UNL d   1     -41.634-121.590 -51.872  0.00  0.00     0.122 A 
ATOM      2  C   UNL d   1     -41.651-121.415 -51.065  0.00  0.00     0.166 A 
ATOM      3  N   UNL d   1     -41.530-120.635 -50.813  0.00  0.00    -0.225 NA
ATOM      4  N   UNL d   1     -41.498-120.994 -52.431  0.00  0.00    -0.241 NA
ATOM      5  C   UNL d   1     -41.395-120.037 -51.368  0.00  0.00     0.101 A 
ATOM      6  C   UNL d   1     -41.379-120.221 -52.178  0.00  0.00     0.099 A 
ATOM      7  C   UNL d   1     -41.275-119.261 -51.117  0.00  0.00     0.021 A 
ATOM      8  C   UNL d   1     -41.243-119.623 -52.728  0.00  0.00     0.021 A 
ATOM      9  C   UNL d   1     -41.124-118.846 -52.477  0.00  0.00     0.002 A 
ATOM     10  C   UNL d   1     -41.139-118.664 -51.675  0.00  0.00     0.002 A 
ENDROOT
BRANCH   1  11
ATOM     11  C   UNL d   1     -41.755-122.373 -52.134  0.00  0.00     0.105 C 
BRANCH  11  12
ATOM     12  C   UNL d   1     -42.321-122.544 -52.706  0.00  0.00     0.303 C 
ATOM     13  O   UNL d   1     -43.111-122.639 -52.485  0.00  0.00    -0.259 OA
BRANCH  12  14
ATOM     14  O   UNL d   1     -42.103-122.619 -53.498  0.00  0.00    -0.273 OA
BRANCH  14  15
ATOM     15  C   UNL d   1     -42.264-122.489 -54.294  0.00  0.00     0.103 A 
ATOM     16  C   UNL d   1     -41.791-121.970 -54.722  0.00  0.00     0.025 A 
ATOM     17  C   UNL d   1     -41.952-121.840 -55.514  0.00  0.00     0.002 A 
ATOM     18  C   UNL d   1     -42.579-122.220 -55.888  0.00  0.00     0.000 A 
ATOM     19  C   UNL d   1     -43.048-122.739 -55.447  0.00  0.00     0.002 A 
ATOM     20  C   UNL d   1     -42.891-122.873 -54.653  0.00  0.00     0.025 A 
ENDBRANCH  14  15
ENDBRANCH  12  14
ENDBRANCH  11  12
BRANCH  11  21
ATOM     21  C   UNL d   1     -41.295-122.996 -51.814  0.00  0.00     0.129 C 
ATOM     22  N   UNL d   1     -41.124-123.807 -52.289  0.00  0.00    -0.146 N 
ENDBRANCH  11  21
ENDBRANCH   1  11
BRANCH   2  23
ATOM     23  N   UNL d   1     -41.787-122.013 -50.514  0.00  0.00    -0.285 N 
ATOM     24  C   UNL d   1     -42.567-122.220 -50.317  0.00  0.00     0.101 A 
ATOM     25  C   UNL d   1     -42.713-122.815 -49.770  0.00  0.00     0.100 A 
ATOM     26  N   UNL d   1     -42.077-123.209 -49.414  0.00  0.00    -0.299 N 
ATOM     27  C   UNL d   1     -41.297-123.002 -49.610  0.00  0.00     0.100 A 
ATOM     28  C   UNL d   1     -42.217-123.815 -48.855  0.00  0.00     0.100 C 
ATOM     29  C   UNL d   1     -41.153-122.401 -50.163  0.00  0.00     0.101 A 
ENDBRANCH   2  23
TORSDOF 6
ENDMDL
