MODEL 1
REMARK VINA RESULT:      -3.1      0.000      0.000
REMARK  3 active torsions:
REMARK  status: ('A' for Active; 'I' for Inactive)
REMARK    1  A    between atoms: C_7  and  C_3 
REMARK       I    between atoms: N_10  and  C_7 
REMARK    2  A    between atoms: C_19  and  C_9 
REMARK    3  A    between atoms: C_12  and  N_10 
ROOT
ATOM      1  C   UNL d   1      32.960  21.113 -21.629  0.00  0.00     0.059 A 
ATOM      2  C   UNL d   1      33.169  21.617 -22.248  0.00  0.00     0.013 A 
ATOM      3  C   UNL d   1      33.033  19.998 -22.514  0.00  0.00     0.088 A 
ATOM      4  S   UNL d   1      32.892  20.305 -21.760  0.00  0.00    -0.075 SA
ATOM      5  S   UNL d   1      32.819  21.417 -20.874  0.00  0.00    -0.080 SA
ATOM      6  C   UNL d   1      33.241  20.502 -23.132  0.00  0.00     0.012 A 
ATOM      7  C   UNL d   1      33.097  22.728 -21.367  0.00  0.00     0.007 A 
ATOM      8  C   UNL d   1      32.888  22.224 -20.748  0.00  0.00     0.030 A 
ENDROOT
BRANCH   3   9
ATOM      9  C   UNL d   1      32.964  19.190 -22.644  0.00  0.00     0.285 C 
ATOM     10  N   UNL d   1      32.633  18.911 -23.352  0.00  0.00    -0.208 NA
ATOM     11  O   UNL d   1      33.222  18.659 -22.080  0.00  0.00    -0.265 OA
BRANCH  10  12
ATOM     12  C   UNL d   1      32.563  18.100 -23.485  0.00  0.00     0.085 A 
ATOM     13  C   UNL d   1      31.824  17.755 -23.479  0.00  0.00     0.021 A 
ATOM     14  C   UNL d   1      31.742  16.948 -23.610  0.00  0.00     0.031 A 
ATOM     15  C   UNL d   1      32.416  16.488 -23.749  0.00  0.00     0.140 A 
ATOM     16  C   UNL d   1      33.160  16.846 -23.753  0.00  0.00     0.031 A 
ATOM     17  F   UNL d   1      32.347  15.677 -23.882  0.00  0.00    -0.204 F 
ATOM     18  C   UNL d   1      33.235  17.655 -23.620  0.00  0.00     0.021 A 
ENDBRANCH  10  12
ENDBRANCH   3   9
BRANCH   8  19
ATOM     19  C   UNL d   1      32.750  22.539 -20.000  0.00  0.00     0.006 C 
ATOM     20  C   UNL d   1      33.004  23.298 -19.813  0.00  0.00     0.001 C 
ENDBRANCH   8  19
TORSDOF 3
ENDMDL
MODEL 2
REMARK VINA RESULT:      -2.5      2.217      5.123
REMARK  3 active torsions:
REMARK  status: ('A' for Active; 'I' for Inactive)
REMARK    1  A    between atoms: C_7  and  C_3 
REMARK       I    between atoms: N_10  and  C_7 
REMARK    2  A    between atoms: C_19  and  C_9 
REMARK    3  A    between atoms: C_12  and  N_10 
ROOT
ATOM      1  C   UNL d   1      32.372  17.861 -23.788  0.00  0.00     0.059 A 
ATOM      2  C   UNL d   1      32.749  18.058 -24.494  0.00  0.00     0.013 A 
ATOM      3  C   UNL d   1      32.854  19.063 -23.195  0.00  0.00     0.088 A 
ATOM      4  S   UNL d   1      32.423  18.361 -23.138  0.00  0.00    -0.075 SA
ATOM      5  S   UNL d   1      31.939  17.159 -23.728  0.00  0.00    -0.080 SA
ATOM      6  C   UNL d   1      33.232  19.260 -23.901  0.00  0.00     0.012 A 
ATOM      7  C   UNL d   1      32.268  16.859 -25.085  0.00  0.00     0.007 A 
ATOM      8  C   UNL d   1      31.890  16.663 -24.379  0.00  0.00     0.030 A 
ENDROOT
BRANCH   3   9
ATOM      9  C   UNL d   1      32.906  19.564 -22.545  0.00  0.00     0.285 C 
ATOM     10  N   UNL d   1      32.627  20.343 -22.600  0.00  0.00    -0.208 NA
ATOM     11  O   UNL d   1      33.230  19.297 -21.846  0.00  0.00    -0.265 OA
BRANCH  10  12
ATOM     12  C   UNL d   1      32.678  20.847 -21.950  0.00  0.00     0.085 A 
ATOM     13  C   UNL d   1      33.182  21.488 -21.978  0.00  0.00     0.021 A 
ATOM     14  C   UNL d   1      33.241  21.997 -21.335  0.00  0.00     0.031 A 
ATOM     15  C   UNL d   1      32.785  21.855 -20.660  0.00  0.00     0.140 A 
ATOM     16  C   UNL d   1      32.278  21.204 -20.640  0.00  0.00     0.031 A 
ATOM     17  F   UNL d   1      32.835  22.359 -20.008  0.00  0.00    -0.204 F 
ATOM     18  C   UNL d   1      32.224  20.698 -21.287  0.00  0.00     0.021 A 
ENDBRANCH  10  12
ENDBRANCH   3   9
BRANCH   8  19
ATOM     19  C   UNL d   1      31.462  15.961 -24.332  0.00  0.00     0.006 C 
ATOM     20  C   UNL d   1      31.179  15.598 -25.013  0.00  0.00     0.001 C 
ENDBRANCH   8  19
TORSDOF 3
ENDMDL
MODEL 3
REMARK VINA RESULT:      -2.0      0.867      1.353
REMARK  3 active torsions:
REMARK  status: ('A' for Active; 'I' for Inactive)
REMARK    1  A    between atoms: C_7  and  C_3 
REMARK       I    between atoms: N_10  and  C_7 
REMARK    2  A    between atoms: C_19  and  C_9 
REMARK    3  A    between atoms: C_12  and  N_10 
ROOT
ATOM      1  C   UNL d   1      33.143  21.930 -20.694  0.00  0.00     0.059 A 
ATOM      2  C   UNL d   1      33.165  22.573 -21.211  0.00  0.00     0.013 A 
ATOM      3  C   UNL d   1      33.090  21.039 -21.805  0.00  0.00     0.088 A 
ATOM      4  S   UNL d   1      33.105  21.164 -20.989  0.00  0.00    -0.075 SA
ATOM      5  S   UNL d   1      33.158  22.052 -19.876  0.00  0.00    -0.080 SA
ATOM      6  C   UNL d   1      33.112  21.682 -22.321  0.00  0.00     0.012 A 
ATOM      7  C   UNL d   1      33.218  23.461 -20.104  0.00  0.00     0.007 A 
ATOM      8  C   UNL d   1      33.196  22.818 -19.587  0.00  0.00     0.030 A 
ENDROOT
BRANCH   3   9
ATOM      9  C   UNL d   1      33.052  20.273 -22.099  0.00  0.00     0.285 C 
ATOM     10  N   UNL d   1      32.829  20.143 -22.887  0.00  0.00    -0.208 NA
ATOM     11  O   UNL d   1      33.234  19.639 -21.619  0.00  0.00    -0.265 OA
BRANCH  10  12
ATOM     12  C   UNL d   1      32.791  19.375 -23.185  0.00  0.00     0.085 A 
ATOM     13  C   UNL d   1      32.304  18.829 -22.823  0.00  0.00     0.021 A 
ATOM     14  C   UNL d   1      32.258  18.061 -23.111  0.00  0.00     0.031 A 
ATOM     15  C   UNL d   1      32.709  17.845 -23.770  0.00  0.00     0.140 A 
ATOM     16  C   UNL d   1      33.198  18.404 -24.130  0.00  0.00     0.031 A 
ATOM     17  F   UNL d   1      32.671  17.076 -24.069  0.00  0.00    -0.204 F 
ATOM     18  C   UNL d   1      33.240  19.172 -23.837  0.00  0.00     0.021 A 
ENDBRANCH  10  12
ENDBRANCH   3   9
BRANCH   8  19
ATOM     19  C   UNL d   1      33.211  22.953 -18.774  0.00  0.00     0.006 C 
ATOM     20  C   UNL d   1      32.924  23.657 -18.462  0.00  0.00     0.001 C 
ENDBRANCH   8  19
TORSDOF 3
ENDMDL
MODEL 4
REMARK VINA RESULT:      -1.6      3.956      4.862
REMARK  3 active torsions:
REMARK  status: ('A' for Active; 'I' for Inactive)
REMARK    1  A    between atoms: C_7  and  C_3 
REMARK       I    between atoms: N_10  and  C_7 
REMARK    2  A    between atoms: C_19  and  C_9 
REMARK    3  A    between atoms: C_12  and  N_10 
ROOT
ATOM      1  C   UNL d   1      32.980  22.844 -18.617  0.00  0.00     0.059 A 
ATOM      2  C   UNL d   1      33.054  22.033 -18.487  0.00  0.00     0.013 A 
ATOM      3  C   UNL d   1      33.045  22.625 -20.024  0.00  0.00     0.088 A 
ATOM      4  S   UNL d   1      32.975  23.141 -19.383  0.00  0.00    -0.075 SA
ATOM      5  S   UNL d   1      32.910  23.364 -17.978  0.00  0.00    -0.080 SA
ATOM      6  C   UNL d   1      33.119  21.814 -19.894  0.00  0.00     0.012 A 
ATOM      7  C   UNL d   1      32.989  22.251 -17.086  0.00  0.00     0.007 A 
ATOM      8  C   UNL d   1      32.915  23.063 -17.215  0.00  0.00     0.030 A 
ENDROOT
BRANCH   3   9
ATOM      9  C   UNL d   1      33.040  22.923 -20.789  0.00  0.00     0.285 C 
ATOM     10  N   UNL d   1      32.832  22.430 -21.423  0.00  0.00    -0.208 NA
ATOM     11  O   UNL d   1      33.240  23.701 -20.929  0.00  0.00    -0.265 OA
BRANCH  10  12
ATOM     12  C   UNL d   1      32.827  22.727 -22.193  0.00  0.00     0.085 A 
ATOM     13  C   UNL d   1      33.237  22.332 -22.777  0.00  0.00     0.021 A 
ATOM     14  C   UNL d   1      33.239  22.618 -23.547  0.00  0.00     0.031 A 
ATOM     15  C   UNL d   1      32.821  23.309 -23.726  0.00  0.00     0.140 A 
ATOM     16  C   UNL d   1      32.409  23.702 -23.129  0.00  0.00     0.031 A 
ATOM     17  F   UNL d   1      32.816  23.607 -24.496  0.00  0.00    -0.204 F 
ATOM     18  C   UNL d   1      32.411  23.410 -22.359  0.00  0.00     0.021 A 
ENDBRANCH  10  12
ENDBRANCH   3   9
BRANCH   8  19
ATOM     19  C   UNL d   1      32.846  23.570 -16.570  0.00  0.00     0.006 C 
ATOM     20  C   UNL d   1      33.195  23.380 -15.851  0.00  0.00     0.001 C 
ENDBRANCH   8  19
TORSDOF 3
ENDMDL
MODEL 5
REMARK VINA RESULT:      -1.3      2.171      3.331
REMARK  3 active torsions:
REMARK  status: ('A' for Active; 'I' for Inactive)
REMARK    1  A    between atoms: C_7  and  C_3 
REMARK       I    between atoms: N_10  and  C_7 
REMARK    2  A    between atoms: C_19  and  C_9 
REMARK    3  A    between atoms: C_12  and  N_10 
ROOT
ATOM      1  C   UNL d   1      32.746  22.808 -19.258  0.00  0.00     0.059 A 
ATOM      2  C   UNL d   1      32.227  23.447 -19.318  0.00  0.00     0.013 A 
ATOM      3  C   UNL d   1      32.591  22.552 -20.651  0.00  0.00     0.088 A 
ATOM      4  S   UNL d   1      32.928  22.361 -19.922  0.00  0.00    -0.075 SA
ATOM      5  S   UNL d   1      33.086  22.614 -18.530  0.00  0.00    -0.080 SA
ATOM      6  C   UNL d   1      32.072  23.190 -20.711  0.00  0.00     0.012 A 
ATOM      7  C   UNL d   1      32.382  23.702 -17.929  0.00  0.00     0.007 A 
ATOM      8  C   UNL d   1      32.901  23.064 -17.870  0.00  0.00     0.030 A 
ENDROOT
BRANCH   3   9
ATOM      9  C   UNL d   1      32.773  22.104 -21.315  0.00  0.00     0.285 C 
ATOM     10  N   UNL d   1      32.515  21.318 -21.368  0.00  0.00    -0.208 NA
ATOM     11  O   UNL d   1      33.208  22.431 -21.924  0.00  0.00    -0.265 OA
BRANCH  10  12
ATOM     12  C   UNL d   1      32.697  20.867 -22.034  0.00  0.00     0.085 A 
ATOM     13  C   UNL d   1      32.692  20.053 -21.981  0.00  0.00     0.021 A 
ATOM     14  C   UNL d   1      32.871  19.594 -22.638  0.00  0.00     0.031 A 
ATOM     15  C   UNL d   1      33.058  19.963 -23.354  0.00  0.00     0.140 A 
ATOM     16  C   UNL d   1      33.062  20.787 -23.399  0.00  0.00     0.031 A 
ATOM     17  F   UNL d   1      33.241  19.512 -24.021  0.00  0.00    -0.204 F 
ATOM     18  C   UNL d   1      32.881  21.242 -22.737  0.00  0.00     0.021 A 
ENDBRANCH  10  12
ENDBRANCH   3   9
BRANCH   8  19
ATOM     19  C   UNL d   1      33.233  22.880 -17.138  0.00  0.00     0.006 C 
ATOM     20  C   UNL d   1      32.996  23.281 -16.460  0.00  0.00     0.001 C 
ENDBRANCH   8  19
TORSDOF 3
ENDMDL
MODEL 6
REMARK VINA RESULT:      -1.1      3.328      5.954
REMARK  3 active torsions:
REMARK  status: ('A' for Active; 'I' for Inactive)
REMARK    1  A    between atoms: C_7  and  C_3 
REMARK       I    between atoms: N_10  and  C_7 
REMARK    2  A    between atoms: C_19  and  C_9 
REMARK    3  A    between atoms: C_12  and  N_10 
ROOT
ATOM      1  C   UNL d   1      33.082  21.094 -21.241  0.00  0.00     0.059 A 
ATOM      2  C   UNL d   1      32.930  21.550 -21.912  0.00  0.00     0.013 A 
ATOM      3  C   UNL d   1      33.034  22.267 -20.434  0.00  0.00     0.088 A 
ATOM      4  S   UNL d   1      33.134  21.451 -20.503  0.00  0.00    -0.075 SA
ATOM      5  S   UNL d   1      33.182  20.276 -21.307  0.00  0.00    -0.080 SA
ATOM      6  C   UNL d   1      32.883  22.723 -21.104  0.00  0.00     0.012 A 
ATOM      7  C   UNL d   1      32.978  20.381 -22.717  0.00  0.00     0.007 A 
ATOM      8  C   UNL d   1      33.129  19.925 -22.046  0.00  0.00     0.030 A 
ENDROOT
BRANCH   3   9
ATOM      9  C   UNL d   1      33.086  22.624 -19.695  0.00  0.00     0.285 C 
ATOM     10  N   UNL d   1      33.017  22.165 -19.008  0.00  0.00    -0.208 NA
ATOM     11  O   UNL d   1      33.206  23.429 -19.636  0.00  0.00    -0.265 OA
BRANCH  10  12
ATOM     12  C   UNL d   1      33.069  22.521 -18.266  0.00  0.00     0.085 A 
ATOM     13  C   UNL d   1      33.020  23.333 -18.207  0.00  0.00     0.021 A 
ATOM     14  C   UNL d   1      33.071  23.699 -17.473  0.00  0.00     0.031 A 
ATOM     15  C   UNL d   1      33.172  23.237 -16.794  0.00  0.00     0.140 A 
ATOM     16  C   UNL d   1      33.220  22.416 -16.863  0.00  0.00     0.031 A 
ATOM     17  F   UNL d   1      33.224  23.593 -16.051  0.00  0.00    -0.204 F 
ATOM     18  C   UNL d   1      33.169  22.056 -17.602  0.00  0.00     0.021 A 
ENDBRANCH  10  12
ENDBRANCH   3   9
BRANCH   8  19
ATOM     19  C   UNL d   1      33.227  19.111 -22.124  0.00  0.00     0.006 C 
ATOM     20  C   UNL d   1      33.192  18.756 -22.865  0.00  0.00     0.001 C 
ENDBRANCH   8  19
TORSDOF 3
ENDMDL
