MODEL 1
REMARK VINA RESULT:      -6.5      0.000      0.000
REMARK  6 active torsions:
REMARK  status: ('A' for Active; 'I' for Inactive)
REMARK    1  A    between atoms: C_11  and  N_2 
REMARK    2  A    between atoms: O_15  and  C_9 
REMARK    3  A    between atoms: C_10  and  O_14 
REMARK    4  A    between atoms: C_16  and  C_11 
REMARK    5  A    between atoms: O_14  and  C_17 
REMARK    6  A    between atoms: C_17  and  C_16 
ROOT
ATOM      1  C   UNL d   1     -48.356  13.932  22.462  0.00  0.00     0.087 C 
ENDROOT
BRANCH   1   2
ATOM      2  N   UNL d   1     -49.047  14.243  22.796  0.00  0.00    -0.251 N 
ATOM      3  C   UNL d   1     -49.251  15.036  22.918  0.00  0.00     0.378 A 
ATOM      4  O   UNL d   1     -50.004  15.053  23.271  0.00  0.00    -0.258 OA
ATOM      5  O   UNL d   1     -48.789  15.692  22.725  0.00  0.00    -0.237 OA
ATOM      6  C   UNL d   1     -50.263  14.274  23.365  0.00  0.00     0.121 A 
ATOM      7  C   UNL d   1     -50.960  13.943  23.679  0.00  0.00     0.026 A 
ATOM      8  C   UNL d   1     -49.672  13.772  23.071  0.00  0.00     0.092 A 
ATOM      9  C   UNL d   1     -51.062  13.126  23.698  0.00  0.00     0.002 A 
ATOM     10  C   UNL d   1     -50.468  12.628  23.404  0.00  0.00     0.002 A 
ATOM     11  C   UNL d   1     -49.777  12.949  23.092  0.00  0.00     0.020 A 
ATOM     12  C   UNL d   1     -50.569  11.812  23.422  0.00  0.00     0.000 C 
ENDBRANCH   1   2
BRANCH   1  13
ATOM     13  C   UNL d   1     -47.660  13.902  22.897  0.00  0.00     0.046 C 
BRANCH  13  14
ATOM     14  C   UNL d   1     -46.976  13.571  22.572  0.00  0.00     0.124 C 
BRANCH  14  15
ATOM     15  O   UNL d   1     -46.463  13.142  23.041  0.00  0.00    -0.303 OA
BRANCH  15  16
ATOM     16  C   UNL d   1     -45.753  12.923  22.689  0.00  0.00     0.122 A 
ATOM     17  C   UNL d   1     -45.381  12.216  22.916  0.00  0.00     0.117 A 
ATOM     18  C   UNL d   1     -44.668  11.996  22.562  0.00  0.00     0.026 A 
ATOM     19  C   UNL d   1     -44.334  12.483  21.986  0.00  0.00     0.002 A 
ATOM     20  C   UNL d   1     -44.708  13.183  21.765  0.00  0.00     0.002 A 
ATOM     21  C   UNL d   1     -45.418  13.403  22.117  0.00  0.00     0.027 A 
BRANCH  17  22
ATOM     22  O   UNL d   1     -45.723  11.737  23.492  0.00  0.00    -0.326 OA
ATOM     23  C   UNL d   1     -45.521  10.952  23.615  0.00  0.00     0.181 C 
ENDBRANCH  17  22
ENDBRANCH  15  16
ENDBRANCH  14  15
ENDBRANCH  13  14
ENDBRANCH   1  13
TORSDOF 6
ENDMDL
MODEL 2
REMARK VINA RESULT:      -6.4      1.416      1.919
REMARK  6 active torsions:
REMARK  status: ('A' for Active; 'I' for Inactive)
REMARK    1  A    between atoms: C_11  and  N_2 
REMARK    2  A    between atoms: O_15  and  C_9 
REMARK    3  A    between atoms: C_10  and  O_14 
REMARK    4  A    between atoms: C_16  and  C_11 
REMARK    5  A    between atoms: O_14  and  C_17 
REMARK    6  A    between atoms: C_17  and  C_16 
ROOT
ATOM      1  C   UNL d   1     -48.456  12.622  23.693  0.00  0.00     0.087 C 
ENDROOT
BRANCH   1   2
ATOM      2  N   UNL d   1     -49.225  12.464  23.430  0.00  0.00    -0.251 N 
ATOM      3  C   UNL d   1     -49.631  11.743  23.424  0.00  0.00     0.378 A 
ATOM      4  O   UNL d   1     -50.388  11.881  23.105  0.00  0.00    -0.258 OA
ATOM      5  O   UNL d   1     -49.340  11.017  23.687  0.00  0.00    -0.237 OA
ATOM      6  C   UNL d   1     -50.446  12.684  22.916  0.00  0.00     0.121 A 
ATOM      7  C   UNL d   1     -51.056  13.144  22.585  0.00  0.00     0.026 A 
ATOM      8  C   UNL d   1     -49.727  13.045  23.116  0.00  0.00     0.092 A 
ATOM      9  C   UNL d   1     -50.947  13.951  22.459  0.00  0.00     0.002 A 
ATOM     10  C   UNL d   1     -50.227  14.309  22.661  0.00  0.00     0.002 A 
ATOM     11  C   UNL d   1     -49.620  13.858  22.988  0.00  0.00     0.020 A 
ATOM     12  C   UNL d   1     -50.118  15.114  22.536  0.00  0.00     0.000 C 
ENDBRANCH   1   2
BRANCH   1  13
ATOM     13  C   UNL d   1     -47.814  12.230  23.363  0.00  0.00     0.046 C 
BRANCH  13  14
ATOM     14  C   UNL d   1     -47.065  12.581  23.358  0.00  0.00     0.124 C 
BRANCH  14  15
ATOM     15  O   UNL d   1     -46.393  12.117  23.375  0.00  0.00    -0.303 OA
BRANCH  15  16
ATOM     16  C   UNL d   1     -45.771  12.369  22.900  0.00  0.00     0.122 A 
ATOM     17  C   UNL d   1     -45.063  11.937  22.883  0.00  0.00     0.117 A 
ATOM     18  C   UNL d   1     -44.438  12.190  22.406  0.00  0.00     0.026 A 
ATOM     19  C   UNL d   1     -44.527  12.872  21.950  0.00  0.00     0.002 A 
ATOM     20  C   UNL d   1     -45.233  13.297  21.971  0.00  0.00     0.002 A 
ATOM     21  C   UNL d   1     -45.855  13.045  22.446  0.00  0.00     0.027 A 
BRANCH  17  22
ATOM     22  O   UNL d   1     -44.984  11.257  23.342  0.00  0.00    -0.326 OA
ATOM     23  C   UNL d   1     -44.324  10.771  23.333  0.00  0.00     0.181 C 
ENDBRANCH  17  22
ENDBRANCH  15  16
ENDBRANCH  14  15
ENDBRANCH  13  14
ENDBRANCH   1  13
TORSDOF 6
ENDMDL
MODEL 3
REMARK VINA RESULT:      -6.0      1.606      4.845
REMARK  6 active torsions:
REMARK  status: ('A' for Active; 'I' for Inactive)
REMARK    1  A    between atoms: C_11  and  N_2 
REMARK    2  A    between atoms: O_15  and  C_9 
REMARK    3  A    between atoms: C_10  and  O_14 
REMARK    4  A    between atoms: C_16  and  C_11 
REMARK    5  A    between atoms: O_14  and  C_17 
REMARK    6  A    between atoms: C_17  and  C_16 
ROOT
ATOM      1  C   UNL d   1     -47.187  11.883  23.698  0.00  0.00     0.087 C 
ENDROOT
BRANCH   1   2
ATOM      2  N   UNL d   1     -46.454  11.992  23.329  0.00  0.00    -0.251 N 
ATOM      3  C   UNL d   1     -45.847  11.440  23.212  0.00  0.00     0.378 A 
ATOM      4  O   UNL d   1     -45.227  11.827  22.814  0.00  0.00    -0.258 OA
ATOM      5  O   UNL d   1     -45.856  10.649  23.446  0.00  0.00    -0.237 OA
ATOM      6  C   UNL d   1     -45.451  12.612  22.687  0.00  0.00     0.121 A 
ATOM      7  C   UNL d   1     -45.069  13.258  22.323  0.00  0.00     0.026 A 
ATOM      8  C   UNL d   1     -46.209  12.715  23.006  0.00  0.00     0.092 A 
ATOM      9  C   UNL d   1     -45.442  13.991  22.281  0.00  0.00     0.002 A 
ATOM     10  C   UNL d   1     -46.200  14.090  22.600  0.00  0.00     0.002 A 
ATOM     11  C   UNL d   1     -46.582  13.455  22.961  0.00  0.00     0.020 A 
ATOM     12  C   UNL d   1     -46.573  14.822  22.558  0.00  0.00     0.000 C 
ENDBRANCH   1   2
BRANCH   1  13
ATOM     13  C   UNL d   1     -47.783  11.459  23.324  0.00  0.00     0.046 C 
BRANCH  13  14
ATOM     14  C   UNL d   1     -48.576  11.672  23.424  0.00  0.00     0.124 C 
BRANCH  14  15
ATOM     15  O   UNL d   1     -49.091  11.652  22.791  0.00  0.00    -0.303 OA
BRANCH  15  16
ATOM     16  C   UNL d   1     -49.749  12.141  22.847  0.00  0.00     0.122 A 
ATOM     17  C   UNL d   1     -49.972  12.609  22.199  0.00  0.00     0.117 A 
ATOM     18  C   UNL d   1     -50.633  13.101  22.257  0.00  0.00     0.026 A 
ATOM     19  C   UNL d   1     -51.064  13.120  22.959  0.00  0.00     0.002 A 
ATOM     20  C   UNL d   1     -50.838  12.652  23.599  0.00  0.00     0.002 A 
ATOM     21  C   UNL d   1     -50.180  12.163  23.543  0.00  0.00     0.027 A 
BRANCH  17  22
ATOM     22  O   UNL d   1     -49.534  12.583  21.502  0.00  0.00    -0.326 OA
ATOM     23  C   UNL d   1     -49.646  13.093  20.870  0.00  0.00     0.181 C 
ENDBRANCH  17  22
ENDBRANCH  15  16
ENDBRANCH  14  15
ENDBRANCH  13  14
ENDBRANCH   1  13
TORSDOF 6
ENDMDL
MODEL 4
REMARK VINA RESULT:      -6.0      0.932      1.678
REMARK  6 active torsions:
REMARK  status: ('A' for Active; 'I' for Inactive)
REMARK    1  A    between atoms: C_11  and  N_2 
REMARK    2  A    between atoms: O_15  and  C_9 
REMARK    3  A    between atoms: C_10  and  O_14 
REMARK    4  A    between atoms: C_16  and  C_11 
REMARK    5  A    between atoms: O_14  and  C_17 
REMARK    6  A    between atoms: C_17  and  C_16 
ROOT
ATOM      1  C   UNL d   1     -47.559  13.161  22.536  0.00  0.00     0.087 C 
ENDROOT
BRANCH   1   2
ATOM      2  N   UNL d   1     -48.066  13.792  22.707  0.00  0.00    -0.251 N 
ATOM      3  C   UNL d   1     -47.894  14.602  22.730  0.00  0.00     0.378 A 
ATOM      4  O   UNL d   1     -48.595  15.004  22.928  0.00  0.00    -0.258 OA
ATOM      5  O   UNL d   1     -47.160  14.948  22.583  0.00  0.00    -0.237 OA
ATOM      6  C   UNL d   1     -49.195  14.444  23.027  0.00  0.00     0.121 A 
ATOM      7  C   UNL d   1     -50.002  14.509  23.224  0.00  0.00     0.026 A 
ATOM      8  C   UNL d   1     -48.869  13.695  22.890  0.00  0.00     0.092 A 
ATOM      9  C   UNL d   1     -50.472  13.835  23.282  0.00  0.00     0.002 A 
ATOM     10  C   UNL d   1     -50.142  13.087  23.144  0.00  0.00     0.002 A 
ATOM     11  C   UNL d   1     -49.345  13.018  22.949  0.00  0.00     0.020 A 
ATOM     12  C   UNL d   1     -50.610  12.413  23.202  0.00  0.00     0.000 C 
ENDBRANCH   1   2
BRANCH   1  13
ATOM     13  C   UNL d   1     -46.824  13.107  22.898  0.00  0.00     0.046 C 
BRANCH  13  14
ATOM     14  C   UNL d   1     -46.436  12.379  22.956  0.00  0.00     0.124 C 
BRANCH  14  15
ATOM     15  O   UNL d   1     -45.621  12.342  22.931  0.00  0.00    -0.303 OA
BRANCH  15  16
ATOM     16  C   UNL d   1     -45.287  11.618  23.131  0.00  0.00     0.122 A 
ATOM     17  C   UNL d   1     -44.489  11.469  22.960  0.00  0.00     0.117 A 
ATOM     18  C   UNL d   1     -44.154  10.742  23.160  0.00  0.00     0.026 A 
ATOM     19  C   UNL d   1     -44.620  10.170  23.530  0.00  0.00     0.002 A 
ATOM     20  C   UNL d   1     -45.412  10.323  23.697  0.00  0.00     0.002 A 
ATOM     21  C   UNL d   1     -45.746  11.047  23.498  0.00  0.00     0.027 A 
BRANCH  17  22
ATOM     22  O   UNL d   1     -44.033  12.048  22.590  0.00  0.00    -0.326 OA
ATOM     23  C   UNL d   1     -43.355  11.890  22.156  0.00  0.00     0.181 C 
ENDBRANCH  17  22
ENDBRANCH  15  16
ENDBRANCH  14  15
ENDBRANCH  13  14
ENDBRANCH   1  13
TORSDOF 6
ENDMDL
MODEL 5
REMARK VINA RESULT:      -5.8      1.225      4.553
REMARK  6 active torsions:
REMARK  status: ('A' for Active; 'I' for Inactive)
REMARK    1  A    between atoms: C_11  and  N_2 
REMARK    2  A    between atoms: O_15  and  C_9 
REMARK    3  A    between atoms: C_10  and  O_14 
REMARK    4  A    between atoms: C_16  and  C_11 
REMARK    5  A    between atoms: O_14  and  C_17 
REMARK    6  A    between atoms: C_17  and  C_16 
ROOT
ATOM      1  C   UNL d   1     -47.112  13.586  22.441  0.00  0.00     0.087 C 
ENDROOT
BRANCH   1   2
ATOM      2  N   UNL d   1     -46.433  13.156  22.641  0.00  0.00    -0.251 N 
ATOM      3  C   UNL d   1     -45.639  13.377  22.562  0.00  0.00     0.378 A 
ATOM      4  O   UNL d   1     -45.172  12.749  22.844  0.00  0.00    -0.258 OA
ATOM      5  O   UNL d   1     -45.360  14.091  22.258  0.00  0.00    -0.237 OA
ATOM      6  C   UNL d   1     -45.677  12.144  23.096  0.00  0.00     0.121 A 
ATOM      7  C   UNL d   1     -45.538  11.392  23.426  0.00  0.00     0.026 A 
ATOM      8  C   UNL d   1     -46.457  12.395  22.971  0.00  0.00     0.092 A 
ATOM      9  C   UNL d   1     -46.169  10.902  23.625  0.00  0.00     0.002 A 
ATOM     10  C   UNL d   1     -46.948  11.157  23.499  0.00  0.00     0.002 A 
ATOM     11  C   UNL d   1     -47.090  11.900  23.173  0.00  0.00     0.020 A 
ATOM     12  C   UNL d   1     -47.579  10.668  23.698  0.00  0.00     0.000 C 
ENDBRANCH   1   2
BRANCH   1  13
ATOM     13  C   UNL d   1     -47.402  14.167  22.944  0.00  0.00     0.046 C 
BRANCH  13  14
ATOM     14  C   UNL d   1     -48.162  14.474  22.837  0.00  0.00     0.124 C 
BRANCH  14  15
ATOM     15  O   UNL d   1     -48.801  14.135  23.214  0.00  0.00    -0.303 OA
BRANCH  15  16
ATOM     16  C   UNL d   1     -49.454  14.622  23.324  0.00  0.00     0.122 A 
ATOM     17  C   UNL d   1     -50.196  14.288  23.484  0.00  0.00     0.117 A 
ATOM     18  C   UNL d   1     -50.852  14.778  23.595  0.00  0.00     0.026 A 
ATOM     19  C   UNL d   1     -50.759  15.596  23.544  0.00  0.00     0.002 A 
ATOM     20  C   UNL d   1     -50.019  15.922  23.385  0.00  0.00     0.002 A 
ATOM     21  C   UNL d   1     -49.367  15.435  23.275  0.00  0.00     0.027 A 
BRANCH  17  22
ATOM     22  O   UNL d   1     -50.278  13.470  23.533  0.00  0.00    -0.326 OA
ATOM     23  C   UNL d   1     -50.992  13.074  23.454  0.00  0.00     0.181 C 
ENDBRANCH  17  22
ENDBRANCH  15  16
ENDBRANCH  14  15
ENDBRANCH  13  14
ENDBRANCH   1  13
TORSDOF 6
ENDMDL
MODEL 6
REMARK VINA RESULT:      -5.3      1.477      5.201
REMARK  6 active torsions:
REMARK  status: ('A' for Active; 'I' for Inactive)
REMARK    1  A    between atoms: C_11  and  N_2 
REMARK    2  A    between atoms: O_15  and  C_9 
REMARK    3  A    between atoms: C_10  and  O_14 
REMARK    4  A    between atoms: C_16  and  C_11 
REMARK    5  A    between atoms: O_14  and  C_17 
REMARK    6  A    between atoms: C_17  and  C_16 
ROOT
ATOM      1  C   UNL d   1     -46.403  13.364  22.465  0.00  0.00     0.087 C 
ENDROOT
BRANCH   1   2
ATOM      2  N   UNL d   1     -45.898  12.753  22.704  0.00  0.00    -0.251 N 
ATOM      3  C   UNL d   1     -46.037  12.155  23.259  0.00  0.00     0.378 A 
ATOM      4  O   UNL d   1     -45.355  11.680  23.296  0.00  0.00    -0.258 OA
ATOM      5  O   UNL d   1     -46.728  12.049  23.698  0.00  0.00    -0.237 OA
ATOM      6  C   UNL d   1     -44.799  11.984  22.766  0.00  0.00     0.121 A 
ATOM      7  C   UNL d   1     -44.026  11.751  22.561  0.00  0.00     0.026 A 
ATOM      8  C   UNL d   1     -45.134  12.648  22.399  0.00  0.00     0.092 A 
ATOM      9  C   UNL d   1     -43.599  12.175  21.999  0.00  0.00     0.002 A 
ATOM     10  C   UNL d   1     -43.937  12.838  21.634  0.00  0.00     0.002 A 
ATOM     11  C   UNL d   1     -44.701  13.073  21.833  0.00  0.00     0.020 A 
ATOM     12  C   UNL d   1     -43.511  13.262  21.073  0.00  0.00     0.000 C 
ENDBRANCH   1   2
BRANCH   1  13
ATOM     13  C   UNL d   1     -47.218  13.266  22.489  0.00  0.00     0.046 C 
BRANCH  13  14
ATOM     14  C   UNL d   1     -47.721  13.922  22.473  0.00  0.00     0.124 C 
BRANCH  14  15
ATOM     15  O   UNL d   1     -48.395  13.914  22.012  0.00  0.00    -0.303 OA
BRANCH  15  16
ATOM     16  C   UNL d   1     -49.012  14.393  22.268  0.00  0.00     0.122 A 
ATOM     17  C   UNL d   1     -49.795  14.196  22.076  0.00  0.00     0.117 A 
ATOM     18  C   UNL d   1     -50.414  14.678  22.334  0.00  0.00     0.026 A 
ATOM     19  C   UNL d   1     -50.245  15.350  22.781  0.00  0.00     0.002 A 
ATOM     20  C   UNL d   1     -49.466  15.540  22.969  0.00  0.00     0.002 A 
ATOM     21  C   UNL d   1     -48.849  15.061  22.712  0.00  0.00     0.027 A 
BRANCH  17  22
ATOM     22  O   UNL d   1     -49.952  13.522  21.630  0.00  0.00    -0.326 OA
ATOM     23  C   UNL d   1     -50.707  13.241  21.473  0.00  0.00     0.181 C 
ENDBRANCH  17  22
ENDBRANCH  15  16
ENDBRANCH  14  15
ENDBRANCH  13  14
ENDBRANCH   1  13
TORSDOF 6
ENDMDL
MODEL 7
REMARK VINA RESULT:      -5.1      8.615      9.989
REMARK  6 active torsions:
REMARK  status: ('A' for Active; 'I' for Inactive)
REMARK    1  A    between atoms: C_11  and  N_2 
REMARK    2  A    between atoms: O_15  and  C_9 
REMARK    3  A    between atoms: C_10  and  O_14 
REMARK    4  A    between atoms: C_16  and  C_11 
REMARK    5  A    between atoms: O_14  and  C_17 
REMARK    6  A    between atoms: C_17  and  C_16 
ROOT
ATOM      1  C   UNL d   1     -39.817  14.321  20.269  0.00  0.00     0.087 C 
ENDROOT
BRANCH   1   2
ATOM      2  N   UNL d   1     -39.748  14.749  20.975  0.00  0.00    -0.251 N 
ATOM      3  C   UNL d   1     -40.100  15.470  21.178  0.00  0.00     0.378 A 
ATOM      4  O   UNL d   1     -39.854  15.664  21.949  0.00  0.00    -0.258 OA
ATOM      5  O   UNL d   1     -40.605  15.917  20.703  0.00  0.00    -0.237 OA
ATOM      6  C   UNL d   1     -39.353  15.064  22.219  0.00  0.00     0.121 A 
ATOM      7  C   UNL d   1     -38.941  14.950  22.934  0.00  0.00     0.026 A 
ATOM      8  C   UNL d   1     -39.286  14.498  21.616  0.00  0.00     0.092 A 
ATOM      9  C   UNL d   1     -38.473  14.281  23.042  0.00  0.00     0.002 A 
ATOM     10  C   UNL d   1     -38.409  13.718  22.438  0.00  0.00     0.002 A 
ATOM     11  C   UNL d   1     -38.814  13.826  21.729  0.00  0.00     0.020 A 
ATOM     12  C   UNL d   1     -37.942  13.049  22.545  0.00  0.00     0.000 C 
ENDBRANCH   1   2
BRANCH   1  13
ATOM     13  C   UNL d   1     -39.508  14.619  19.569  0.00  0.00     0.046 C 
BRANCH  13  14
ATOM     14  C   UNL d   1     -39.369  14.119  18.925  0.00  0.00     0.124 C 
BRANCH  14  15
ATOM     15  O   UNL d   1     -39.247  14.431  18.180  0.00  0.00    -0.303 OA
BRANCH  15  16
ATOM     16  C   UNL d   1     -38.865  13.940  17.643  0.00  0.00     0.122 A 
ATOM     17  C   UNL d   1     -38.595  14.247  16.921  0.00  0.00     0.117 A 
ATOM     18  C   UNL d   1     -38.211  13.753  16.382  0.00  0.00     0.026 A 
ATOM     19  C   UNL d   1     -38.101  12.957  16.570  0.00  0.00     0.002 A 
ATOM     20  C   UNL d   1     -38.371  12.658  17.288  0.00  0.00     0.002 A 
ATOM     21  C   UNL d   1     -38.753  13.149  17.825  0.00  0.00     0.027 A 
BRANCH  17  22
ATOM     22  O   UNL d   1     -38.711  15.043  16.744  0.00  0.00    -0.326 OA
ATOM     23  C   UNL d   1     -38.475  15.397  16.043  0.00  0.00     0.181 C 
ENDBRANCH  17  22
ENDBRANCH  15  16
ENDBRANCH  14  15
ENDBRANCH  13  14
ENDBRANCH   1  13
TORSDOF 6
ENDMDL
MODEL 8
REMARK VINA RESULT:      -4.4      7.655      9.516
REMARK  6 active torsions:
REMARK  status: ('A' for Active; 'I' for Inactive)
REMARK    1  A    between atoms: C_11  and  N_2 
REMARK    2  A    between atoms: O_15  and  C_9 
REMARK    3  A    between atoms: C_10  and  O_14 
REMARK    4  A    between atoms: C_16  and  C_11 
REMARK    5  A    between atoms: O_14  and  C_17 
REMARK    6  A    between atoms: C_17  and  C_16 
ROOT
ATOM      1  C   UNL d   1     -40.646  15.145  20.387  0.00  0.00     0.087 C 
ENDROOT
BRANCH   1   2
ATOM      2  N   UNL d   1     -40.426  14.637  21.004  0.00  0.00    -0.251 N 
ATOM      3  C   UNL d   1     -40.808  13.953  21.270  0.00  0.00     0.378 A 
ATOM      4  O   UNL d   1     -40.363  13.645  21.903  0.00  0.00    -0.258 OA
ATOM      5  O   UNL d   1     -41.503  13.632  20.964  0.00  0.00    -0.237 OA
ATOM      6  C   UNL d   1     -39.712  14.139  22.025  0.00  0.00     0.121 A 
ATOM      7  C   UNL d   1     -39.081  14.119  22.569  0.00  0.00     0.026 A 
ATOM      8  C   UNL d   1     -39.750  14.753  21.469  0.00  0.00     0.092 A 
ATOM      9  C   UNL d   1     -38.500  14.703  22.554  0.00  0.00     0.002 A 
ATOM     10  C   UNL d   1     -38.542  15.315  21.997  0.00  0.00     0.002 A 
ATOM     11  C   UNL d   1     -39.164  15.340  21.457  0.00  0.00     0.020 A 
ATOM     12  C   UNL d   1     -37.963  15.899  21.982  0.00  0.00     0.000 C 
ENDBRANCH   1   2
BRANCH   1  13
ATOM     13  C   UNL d   1     -40.677  14.872  19.613  0.00  0.00     0.046 C 
BRANCH  13  14
ATOM     14  C   UNL d   1     -40.496  15.375  18.983  0.00  0.00     0.124 C 
BRANCH  14  15
ATOM     15  O   UNL d   1     -40.850  15.268  18.255  0.00  0.00    -0.303 OA
BRANCH  15  16
ATOM     16  C   UNL d   1     -40.386  15.448  17.600  0.00  0.00     0.122 A 
ATOM     17  C   UNL d   1     -40.742  15.739  16.909  0.00  0.00     0.117 A 
ATOM     18  C   UNL d   1     -40.276  15.919  16.252  0.00  0.00     0.026 A 
ATOM     19  C   UNL d   1     -39.460  15.807  16.291  0.00  0.00     0.002 A 
ATOM     20  C   UNL d   1     -39.112  15.518  16.980  0.00  0.00     0.002 A 
ATOM     21  C   UNL d   1     -39.576  15.338  17.634  0.00  0.00     0.027 A 
BRANCH  17  22
ATOM     22  O   UNL d   1     -41.559  15.847  16.881  0.00  0.00    -0.326 OA
ATOM     23  C   UNL d   1     -41.990  15.912  16.186  0.00  0.00     0.181 C 
ENDBRANCH  17  22
ENDBRANCH  15  16
ENDBRANCH  14  15
ENDBRANCH  13  14
ENDBRANCH   1  13
TORSDOF 6
ENDMDL
MODEL 9
REMARK VINA RESULT:      -4.3      3.298      5.303
REMARK  6 active torsions:
REMARK  status: ('A' for Active; 'I' for Inactive)
REMARK    1  A    between atoms: C_11  and  N_2 
REMARK    2  A    between atoms: O_15  and  C_9 
REMARK    3  A    between atoms: C_10  and  O_14 
REMARK    4  A    between atoms: C_16  and  C_11 
REMARK    5  A    between atoms: O_14  and  C_17 
REMARK    6  A    between atoms: C_17  and  C_16 
ROOT
ATOM      1  C   UNL d   1     -43.815  13.068  21.515  0.00  0.00     0.087 C 
ENDROOT
BRANCH   1   2
ATOM      2  N   UNL d   1     -44.249  12.622  22.061  0.00  0.00    -0.251 N 
ATOM      3  C   UNL d   1     -44.045  11.903  22.419  0.00  0.00     0.378 A 
ATOM      4  O   UNL d   1     -44.670  11.686  22.924  0.00  0.00    -0.258 OA
ATOM      5  O   UNL d   1     -43.349  11.478  22.297  0.00  0.00    -0.237 OA
ATOM      6  C   UNL d   1     -45.255  12.268  22.877  0.00  0.00     0.121 A 
ATOM      7  C   UNL d   1     -45.996  12.356  23.247  0.00  0.00     0.026 A 
ATOM      8  C   UNL d   1     -44.995  12.847  22.344  0.00  0.00     0.092 A 
ATOM      9  C   UNL d   1     -46.466  13.013  23.085  0.00  0.00     0.002 A 
ATOM     10  C   UNL d   1     -46.203  13.590  22.551  0.00  0.00     0.002 A 
ATOM     11  C   UNL d   1     -45.471  13.507  22.183  0.00  0.00     0.020 A 
ATOM     12  C   UNL d   1     -46.672  14.245  22.389  0.00  0.00     0.000 C 
ENDBRANCH   1   2
BRANCH   1  13
ATOM     13  C   UNL d   1     -42.995  13.040  21.511  0.00  0.00     0.046 C 
BRANCH  13  14
ATOM     14  C   UNL d   1     -42.554  13.668  21.203  0.00  0.00     0.124 C 
BRANCH  14  15
ATOM     15  O   UNL d   1     -41.740  13.625  21.171  0.00  0.00    -0.303 OA
BRANCH  15  16
ATOM     16  C   UNL d   1     -41.345  14.338  21.068  0.00  0.00     0.122 A 
ATOM     17  C   UNL d   1     -40.534  14.390  21.237  0.00  0.00     0.117 A 
ATOM     18  C   UNL d   1     -40.138  15.108  21.134  0.00  0.00     0.026 A 
ATOM     19  C   UNL d   1     -40.556  15.765  20.863  0.00  0.00     0.002 A 
ATOM     20  C   UNL d   1     -41.361  15.708  20.697  0.00  0.00     0.002 A 
ATOM     21  C   UNL d   1     -41.755  14.994  20.800  0.00  0.00     0.027 A 
BRANCH  17  22
ATOM     22  O   UNL d   1     -40.126  13.727  21.507  0.00  0.00    -0.326 OA
ATOM     23  C   UNL d   1     -39.341  13.735  21.743  0.00  0.00     0.181 C 
ENDBRANCH  17  22
ENDBRANCH  15  16
ENDBRANCH  14  15
ENDBRANCH  13  14
ENDBRANCH   1  13
TORSDOF 6
ENDMDL
