MODEL 1
REMARK VINA RESULT:      -6.1      0.000      0.000
REMARK  5 active torsions:
REMARK  status: ('A' for Active; 'I' for Inactive)
REMARK    1  A    between atoms: N_2  and  C_1 
REMARK    2  A    between atoms: C_5  and  C_1 
REMARK    3  A    between atoms: O_4  and  N_2 
REMARK    4  A    between atoms: C_3  and  O_4 
REMARK    5  A    between atoms: C_6  and  C_3 
ROOT
ATOM      1  O   UNL d   1     -47.785  13.478  22.844  0.00  0.00    -0.168 OA
ENDROOT
BRANCH   1   2
ATOM      2  C   UNL d   1     -48.485  13.605  22.273  0.00  0.00     0.319 C 
ATOM      3  O   UNL d   1     -48.482  13.228  21.458  0.00  0.00    -0.257 OA
BRANCH   2   4
ATOM      4  C   UNL d   1     -49.129  14.071  22.506  0.00  0.00     0.065 A 
ATOM      5  C   UNL d   1     -49.847  13.698  22.698  0.00  0.00     0.005 A 
ATOM      6  C   UNL d   1     -50.487  14.174  22.931  0.00  0.00     0.000 A 
ATOM      7  C   UNL d   1     -50.419  14.994  22.972  0.00  0.00     0.000 A 
ATOM      8  C   UNL d   1     -49.694  15.334  22.776  0.00  0.00     0.000 A 
ATOM      9  C   UNL d   1     -51.064  15.452  23.205  0.00  0.00     0.000 C 
ATOM     10  C   UNL d   1     -49.060  14.888  22.547  0.00  0.00     0.005 A 
ENDBRANCH   2   4
ENDBRANCH   1   2
BRANCH   1  11
ATOM     11  N   UNL d   1     -47.261  12.862  22.740  0.00  0.00    -0.100 NA
BRANCH  11  12
ATOM     12  C   UNL d   1     -46.549  12.832  23.145  0.00  0.00     0.228 C 
ATOM     13  N   UNL d   1     -46.237  13.526  23.461  0.00  0.00    -0.123 N 
BRANCH  12  14
ATOM     14  C   UNL d   1     -46.141  12.130  23.242  0.00  0.00     0.121 A 
ATOM     15  N   UNL d   1     -45.366  12.068  22.996  0.00  0.00    -0.241 NA
ATOM     16  C   UNL d   1     -44.954  11.349  23.098  0.00  0.00     0.099 A 
ATOM     17  C   UNL d   1     -45.336  10.704  23.448  0.00  0.00     0.021 A 
ATOM     18  C   UNL d   1     -46.126  10.770  23.698  0.00  0.00     0.003 A 
ATOM     19  C   UNL d   1     -46.523  11.486  23.592  0.00  0.00     0.022 A 
ENDBRANCH  12  14
ENDBRANCH  11  12
ENDBRANCH   1  11
TORSDOF 5
ENDMDL
MODEL 2
REMARK VINA RESULT:      -5.9      1.763      4.455
REMARK  5 active torsions:
REMARK  status: ('A' for Active; 'I' for Inactive)
REMARK    1  A    between atoms: N_2  and  C_1 
REMARK    2  A    between atoms: C_5  and  C_1 
REMARK    3  A    between atoms: O_4  and  N_2 
REMARK    4  A    between atoms: C_3  and  O_4 
REMARK    5  A    between atoms: C_6  and  C_3 
ROOT
ATOM      1  O   UNL d   1     -47.634  12.941  22.439  0.00  0.00    -0.168 OA
ENDROOT
BRANCH   1   2
ATOM      2  C   UNL d   1     -46.916  13.385  22.786  0.00  0.00     0.319 C 
ATOM      3  O   UNL d   1     -47.034  14.056  23.371  0.00  0.00    -0.257 OA
BRANCH   2   4
ATOM      4  C   UNL d   1     -46.149  13.169  22.560  0.00  0.00     0.065 A 
ATOM      5  C   UNL d   1     -45.832  12.454  22.845  0.00  0.00     0.005 A 
ATOM      6  C   UNL d   1     -45.061  12.247  22.612  0.00  0.00     0.000 A 
ATOM      7  C   UNL d   1     -44.619  12.731  22.115  0.00  0.00     0.000 A 
ATOM      8  C   UNL d   1     -44.961  13.432  21.850  0.00  0.00     0.000 A 
ATOM      9  C   UNL d   1     -43.855  12.510  21.894  0.00  0.00     0.000 C 
ATOM     10  C   UNL d   1     -45.708  13.652  22.064  0.00  0.00     0.005 A 
ENDBRANCH   2   4
ENDBRANCH   1   2
BRANCH   1  11
ATOM     11  N   UNL d   1     -48.396  13.141  22.649  0.00  0.00    -0.100 NA
BRANCH  11  12
ATOM     12  C   UNL d   1     -49.045  12.769  22.314  0.00  0.00     0.228 C 
ATOM     13  N   UNL d   1     -49.018  12.554  21.519  0.00  0.00    -0.123 N 
BRANCH  12  14
ATOM     14  C   UNL d   1     -49.717  12.606  22.748  0.00  0.00     0.121 A 
ATOM     15  N   UNL d   1     -50.367  13.096  22.701  0.00  0.00    -0.241 NA
ATOM     16  C   UNL d   1     -51.051  12.925  23.147  0.00  0.00     0.099 A 
ATOM     17  C   UNL d   1     -51.064  12.257  23.635  0.00  0.00     0.021 A 
ATOM     18  C   UNL d   1     -50.402  11.758  23.682  0.00  0.00     0.003 A 
ATOM     19  C   UNL d   1     -49.731  11.938  23.236  0.00  0.00     0.022 A 
ENDBRANCH  12  14
ENDBRANCH  11  12
ENDBRANCH   1  11
TORSDOF 5
ENDMDL
MODEL 3
REMARK VINA RESULT:      -5.7      8.197      9.444
REMARK  5 active torsions:
REMARK  status: ('A' for Active; 'I' for Inactive)
REMARK    1  A    between atoms: N_2  and  C_1 
REMARK    2  A    between atoms: C_5  and  C_1 
REMARK    3  A    between atoms: O_4  and  N_2 
REMARK    4  A    between atoms: C_3  and  O_4 
REMARK    5  A    between atoms: C_6  and  C_3 
ROOT
ATOM      1  O   UNL d   1     -40.132  14.362  19.734  0.00  0.00    -0.168 OA
ENDROOT
BRANCH   1   2
ATOM      2  C   UNL d   1     -40.498  14.516  20.555  0.00  0.00     0.319 C 
ATOM      3  O   UNL d   1     -41.369  14.355  20.704  0.00  0.00    -0.257 OA
BRANCH   2   4
ATOM      4  C   UNL d   1     -40.026  14.806  21.171  0.00  0.00     0.065 A 
ATOM      5  C   UNL d   1     -40.047  15.620  21.345  0.00  0.00     0.005 A 
ATOM      6  C   UNL d   1     -39.569  15.901  21.964  0.00  0.00     0.000 A 
ATOM      7  C   UNL d   1     -39.085  15.394  22.396  0.00  0.00     0.000 A 
ATOM      8  C   UNL d   1     -39.086  14.594  22.199  0.00  0.00     0.000 A 
ATOM      9  C   UNL d   1     -38.617  15.690  23.008  0.00  0.00     0.000 C 
ATOM     10  C   UNL d   1     -39.543  14.301  21.602  0.00  0.00     0.005 A 
ENDBRANCH   2   4
ENDBRANCH   1   2
BRANCH   1  11
ATOM     11  N   UNL d   1     -40.563  14.475  19.052  0.00  0.00    -0.100 NA
BRANCH  11  12
ATOM     12  C   UNL d   1     -40.230  14.367  18.311  0.00  0.00     0.228 C 
ATOM     13  N   UNL d   1     -39.728  13.725  18.186  0.00  0.00    -0.123 N 
BRANCH  12  14
ATOM     14  C   UNL d   1     -40.382  14.879  17.693  0.00  0.00     0.121 A 
ATOM     15  N   UNL d   1     -41.127  14.918  17.364  0.00  0.00    -0.241 NA
ATOM     16  C   UNL d   1     -41.277  15.443  16.734  0.00  0.00     0.099 A 
ATOM     17  C   UNL d   1     -40.667  15.922  16.446  0.00  0.00     0.021 A 
ATOM     18  C   UNL d   1     -39.909  15.882  16.782  0.00  0.00     0.003 A 
ATOM     19  C   UNL d   1     -39.772  15.358  17.406  0.00  0.00     0.022 A 
ENDBRANCH  12  14
ENDBRANCH  11  12
ENDBRANCH   1  11
TORSDOF 5
ENDMDL
MODEL 4
REMARK VINA RESULT:      -5.5      8.374      9.696
REMARK  5 active torsions:
REMARK  status: ('A' for Active; 'I' for Inactive)
REMARK    1  A    between atoms: N_2  and  C_1 
REMARK    2  A    between atoms: C_5  and  C_1 
REMARK    3  A    between atoms: O_4  and  N_2 
REMARK    4  A    between atoms: C_3  and  O_4 
REMARK    5  A    between atoms: C_6  and  C_3 
ROOT
ATOM      1  O   UNL d   1     -40.328  14.915  18.999  0.00  0.00    -0.168 OA
ENDROOT
BRANCH   1   2
ATOM      2  C   UNL d   1     -40.422  14.316  18.318  0.00  0.00     0.319 C 
ATOM      3  O   UNL d   1     -41.104  13.731  18.315  0.00  0.00    -0.257 OA
BRANCH   2   4
ATOM      4  C   UNL d   1     -39.875  14.309  17.696  0.00  0.00     0.065 A 
ATOM      5  C   UNL d   1     -39.330  13.682  17.647  0.00  0.00     0.005 A 
ATOM      6  C   UNL d   1     -38.785  13.685  17.018  0.00  0.00     0.000 A 
ATOM      7  C   UNL d   1     -38.779  14.287  16.458  0.00  0.00     0.000 A 
ATOM      8  C   UNL d   1     -39.332  14.894  16.534  0.00  0.00     0.000 A 
ATOM      9  C   UNL d   1     -38.232  14.274  15.841  0.00  0.00     0.000 C 
ATOM     10  C   UNL d   1     -39.870  14.910  17.137  0.00  0.00     0.005 A 
ENDBRANCH   2   4
ENDBRANCH   1   2
BRANCH   1  11
ATOM     11  N   UNL d   1     -40.458  14.697  19.774  0.00  0.00    -0.100 NA
BRANCH  11  12
ATOM     12  C   UNL d   1     -40.445  15.247  20.382  0.00  0.00     0.228 C 
ATOM     13  N   UNL d   1     -40.922  15.917  20.327  0.00  0.00    -0.123 N 
BRANCH  12  14
ATOM     14  C   UNL d   1     -39.972  15.147  21.040  0.00  0.00     0.121 A 
ATOM     15  N   UNL d   1     -39.924  14.420  21.406  0.00  0.00    -0.241 NA
ATOM     16  C   UNL d   1     -39.439  14.324  22.078  0.00  0.00     0.099 A 
ATOM     17  C   UNL d   1     -39.009  14.968  22.368  0.00  0.00     0.021 A 
ATOM     18  C   UNL d   1     -39.058  15.707  21.994  0.00  0.00     0.003 A 
ATOM     19  C   UNL d   1     -39.542  15.791  21.330  0.00  0.00     0.022 A 
ENDBRANCH  12  14
ENDBRANCH  11  12
ENDBRANCH   1  11
TORSDOF 5
ENDMDL
MODEL 5
REMARK VINA RESULT:      -5.4      8.939      9.465
REMARK  5 active torsions:
REMARK  status: ('A' for Active; 'I' for Inactive)
REMARK    1  A    between atoms: N_2  and  C_1 
REMARK    2  A    between atoms: C_5  and  C_1 
REMARK    3  A    between atoms: O_4  and  N_2 
REMARK    4  A    between atoms: C_3  and  O_4 
REMARK    5  A    between atoms: C_6  and  C_3 
ROOT
ATOM      1  O   UNL d   1     -39.098  14.432  19.172  0.00  0.00    -0.168 OA
ENDROOT
BRANCH   1   2
ATOM      2  C   UNL d   1     -39.517  14.050  18.459  0.00  0.00     0.319 C 
ATOM      3  O   UNL d   1     -39.439  13.169  18.303  0.00  0.00    -0.257 OA
BRANCH   2   4
ATOM      4  C   UNL d   1     -39.975  14.516  17.949  0.00  0.00     0.065 A 
ATOM      5  C   UNL d   1     -40.766  14.674  18.150  0.00  0.00     0.005 A 
ATOM      6  C   UNL d   1     -41.217  15.143  17.632  0.00  0.00     0.000 A 
ATOM      7  C   UNL d   1     -40.894  15.447  16.939  0.00  0.00     0.000 A 
ATOM      8  C   UNL d   1     -40.106  15.273  16.768  0.00  0.00     0.000 A 
ATOM      9  C   UNL d   1     -41.355  15.911  16.436  0.00  0.00     0.000 C 
ATOM     10  C   UNL d   1     -39.653  14.819  17.257  0.00  0.00     0.005 A 
ENDBRANCH   2   4
ENDBRANCH   1   2
BRANCH   1  11
ATOM     11  N   UNL d   1     -38.823  13.981  19.793  0.00  0.00    -0.100 NA
BRANCH  11  12
ATOM     12  C   UNL d   1     -38.510  14.325  20.468  0.00  0.00     0.228 C 
ATOM     13  N   UNL d   1     -38.199  15.086  20.423  0.00  0.00    -0.123 N 
BRANCH  12  14
ATOM     14  C   UNL d   1     -38.499  13.931  21.184  0.00  0.00     0.121 A 
ATOM     15  N   UNL d   1     -37.946  13.348  21.325  0.00  0.00    -0.241 NA
ATOM     16  C   UNL d   1     -37.940  12.950  22.058  0.00  0.00     0.099 A 
ATOM     17  C   UNL d   1     -38.495  13.149  22.637  0.00  0.00     0.021 A 
ATOM     18  C   UNL d   1     -39.057  13.743  22.492  0.00  0.00     0.003 A 
ATOM     19  C   UNL d   1     -39.054  14.130  21.763  0.00  0.00     0.022 A 
ENDBRANCH  12  14
ENDBRANCH  11  12
ENDBRANCH   1  11
TORSDOF 5
ENDMDL
MODEL 6
REMARK VINA RESULT:      -5.3      8.216      9.448
REMARK  5 active torsions:
REMARK  status: ('A' for Active; 'I' for Inactive)
REMARK    1  A    between atoms: N_2  and  C_1 
REMARK    2  A    between atoms: C_5  and  C_1 
REMARK    3  A    between atoms: O_4  and  N_2 
REMARK    4  A    between atoms: C_3  and  O_4 
REMARK    5  A    between atoms: C_6  and  C_3 
ROOT
ATOM      1  O   UNL d   1     -40.395  14.705  19.292  0.00  0.00    -0.168 OA
ENDROOT
BRANCH   1   2
ATOM      2  C   UNL d   1     -40.646  14.514  20.148  0.00  0.00     0.319 C 
ATOM      3  O   UNL d   1     -41.334  13.959  20.309  0.00  0.00    -0.257 OA
BRANCH   2   4
ATOM      4  C   UNL d   1     -40.237  14.854  20.784  0.00  0.00     0.065 A 
ATOM      5  C   UNL d   1     -40.492  15.590  21.078  0.00  0.00     0.005 A 
ATOM      6  C   UNL d   1     -40.075  15.922  21.716  0.00  0.00     0.000 A 
ATOM      7  C   UNL d   1     -39.428  15.539  22.052  0.00  0.00     0.000 A 
ATOM      8  C   UNL d   1     -39.201  14.811  21.738  0.00  0.00     0.000 A 
ATOM      9  C   UNL d   1     -39.026  15.883  22.685  0.00  0.00     0.000 C 
ATOM     10  C   UNL d   1     -39.593  14.472  21.119  0.00  0.00     0.005 A 
ENDBRANCH   2   4
ENDBRANCH   1   2
BRANCH   1  11
ATOM     11  N   UNL d   1     -40.418  14.137  18.708  0.00  0.00    -0.100 NA
BRANCH  11  12
ATOM     12  C   UNL d   1     -40.240  14.315  17.928  0.00  0.00     0.228 C 
ATOM     13  N   UNL d   1     -40.732  14.830  17.513  0.00  0.00    -0.123 N 
BRANCH  12  14
ATOM     14  C   UNL d   1     -39.589  13.996  17.553  0.00  0.00     0.121 A 
ATOM     15  N   UNL d   1     -39.373  13.222  17.690  0.00  0.00    -0.241 NA
ATOM     16  C   UNL d   1     -38.706  12.901  17.304  0.00  0.00     0.099 A 
ATOM     17  C   UNL d   1     -38.268  13.373  16.784  0.00  0.00     0.021 A 
ATOM     18  C   UNL d   1     -38.490  14.161  16.646  0.00  0.00     0.003 A 
ATOM     19  C   UNL d   1     -39.151  14.467  17.033  0.00  0.00     0.022 A 
ENDBRANCH  12  14
ENDBRANCH  11  12
ENDBRANCH   1  11
TORSDOF 5
ENDMDL
