MODEL 1
REMARK VINA RESULT:      40.1      0.000      0.000
REMARK  6 active torsions:
REMARK  status: ('A' for Active; 'I' for Inactive)
REMARK    1  A    between atoms: C_3  and  N_1 
REMARK    2  A    between atoms: C_2  and  N_5 
REMARK    3  A    between atoms: N_6  and  C_2 
REMARK    4  A    between atoms: N_5  and  N_9 
REMARK    5  A    between atoms: C_13  and  N_6 
REMARK    6  A    between atoms: N_9  and  C_12 
ROOT
ATOM      1  N   UNL d   1     -49.724  27.253  33.908  0.00  0.00    -0.276 N 
ATOM      2  H   UNL d   1     -50.053  27.986  33.719  0.00  0.00     0.189 HD
ENDROOT
BRANCH   1   3
ATOM      3  C   UNL d   1     -50.001  26.572  33.511  0.00  0.00     0.191 C 
ATOM      4  S   UNL d   1     -49.461  25.971  33.321  0.00  0.00    -0.039 SA
BRANCH   3   5
ATOM      5  N   UNL d   1     -50.795  26.481  33.306  0.00  0.00    -0.331 N 
ATOM      6  H   UNL d   1     -51.223  27.156  33.098  0.00  0.00     0.168 HD
BRANCH   5   7
ATOM      7  C   UNL d   1     -51.157  25.739  33.306  0.00  0.00     0.058 A 
ATOM      8  C   UNL d   1     -51.986  25.692  33.306  0.00  0.00     0.017 A 
ATOM      9  C   UNL d   1     -52.349  24.962  33.306  0.00  0.00     0.002 A 
ATOM     10  C   UNL d   1     -51.904  24.266  33.306  0.00  0.00     0.000 A 
ATOM     11  C   UNL d   1     -51.076  24.314  33.306  0.00  0.00     0.002 A 
ATOM     12  C   UNL d   1     -50.713  25.056  33.306  0.00  0.00     0.017 A 
ENDBRANCH   5   7
ENDBRANCH   3   5
ENDBRANCH   1   3
BRANCH   1  13
ATOM     13  N   UNL d   1     -49.140  27.207  34.475  0.00  0.00    -0.297 N 
ATOM     14  H   UNL d   1     -48.903  26.454  34.769  0.00  0.00     0.187 HD
BRANCH  13  15
ATOM     15  C   UNL d   1     -48.765  27.895  34.777  0.00  0.00     0.072 A 
ATOM     16  C   UNL d   1     -48.693  28.555  34.288  0.00  0.00     0.020 A 
ATOM     17  C   UNL d   1     -48.332  29.240  34.554  0.00  0.00     0.025 A 
ATOM     18  C   UNL d   1     -48.039  29.257  35.329  0.00  0.00     0.127 A 
ATOM     19  C   UNL d   1     -48.111  28.597  35.819  0.00  0.00     0.025 A 
ATOM     20  C   UNL d   1     -48.476  27.920  35.534  0.00  0.00     0.020 A 
BRANCH  18  21
ATOM     21  N   UNL d   1     -47.658  29.977  35.615  0.00  0.00    -0.114 N 
ATOM     22  O   UNL d   1     -47.647  30.133  36.425  0.00  0.00    -0.532 OA
ATOM     23  O   UNL d   1     -47.319  30.482  35.068  0.00  0.00    -0.532 OA
ENDBRANCH  18  21
ENDBRANCH  13  15
ENDBRANCH   1  13
TORSDOF 6
ENDMDL
MODEL 2
REMARK VINA RESULT:      42.1      3.036      3.637
REMARK  6 active torsions:
REMARK  status: ('A' for Active; 'I' for Inactive)
REMARK    1  A    between atoms: C_3  and  N_1 
REMARK    2  A    between atoms: C_2  and  N_5 
REMARK    3  A    between atoms: N_6  and  C_2 
REMARK    4  A    between atoms: N_5  and  N_9 
REMARK    5  A    between atoms: C_13  and  N_6 
REMARK    6  A    between atoms: N_9  and  C_12 
ROOT
ATOM      1  N   UNL d   1     -51.591  26.068  34.584  0.00  0.00    -0.276 N 
ATOM      2  H   UNL d   1     -52.259  25.666  34.853  0.00  0.00     0.189 HD
ENDROOT
BRANCH   1   3
ATOM      3  C   UNL d   1     -51.412  26.054  33.768  0.00  0.00     0.191 C 
ATOM      4  S   UNL d   1     -51.488  26.754  33.328  0.00  0.00    -0.039 SA
BRANCH   3   5
ATOM      5  N   UNL d   1     -51.163  25.365  33.390  0.00  0.00    -0.331 N 
ATOM      6  H   UNL d   1     -50.429  25.371  33.013  0.00  0.00     0.168 HD
BRANCH   5   7
ATOM      7  C   UNL d   1     -51.630  24.684  33.386  0.00  0.00     0.058 A 
ATOM      8  C   UNL d   1     -51.266  23.941  33.458  0.00  0.00     0.017 A 
ATOM      9  C   UNL d   1     -51.722  23.266  33.455  0.00  0.00     0.002 A 
ATOM     10  C   UNL d   1     -52.543  23.308  33.380  0.00  0.00     0.000 A 
ATOM     11  C   UNL d   1     -52.907  24.050  33.307  0.00  0.00     0.002 A 
ATOM     12  C   UNL d   1     -52.440  24.731  33.311  0.00  0.00     0.017 A 
ENDBRANCH   5   7
ENDBRANCH   3   5
ENDBRANCH   1   3
BRANCH   1  13
ATOM     13  N   UNL d   1     -51.121  26.470  35.115  0.00  0.00    -0.297 N 
ATOM     14  H   UNL d   1     -50.452  26.900  34.838  0.00  0.00     0.187 HD
BRANCH  13  15
ATOM     15  C   UNL d   1     -51.286  26.466  35.939  0.00  0.00     0.072 A 
ATOM     16  C   UNL d   1     -50.703  26.726  36.462  0.00  0.00     0.020 A 
ATOM     17  C   UNL d   1     -50.834  26.734  37.270  0.00  0.00     0.025 A 
ATOM     18  C   UNL d   1     -51.569  26.475  37.554  0.00  0.00     0.127 A 
ATOM     19  C   UNL d   1     -52.152  26.215  37.031  0.00  0.00     0.025 A 
ATOM     20  C   UNL d   1     -52.001  26.215  36.225  0.00  0.00     0.020 A 
BRANCH  18  21
ATOM     21  N   UNL d   1     -51.713  26.482  38.404  0.00  0.00    -0.114 N 
ATOM     22  O   UNL d   1     -51.234  26.944  38.892  0.00  0.00    -0.532 OA
ATOM     23  O   UNL d   1     -52.324  26.025  38.700  0.00  0.00    -0.532 OA
ENDBRANCH  18  21
ENDBRANCH  13  15
ENDBRANCH   1  13
TORSDOF 6
ENDMDL
MODEL 3
REMARK VINA RESULT:      42.6      1.239      1.871
REMARK  6 active torsions:
REMARK  status: ('A' for Active; 'I' for Inactive)
REMARK    1  A    between atoms: C_3  and  N_1 
REMARK    2  A    between atoms: C_2  and  N_5 
REMARK    3  A    between atoms: N_6  and  C_2 
REMARK    4  A    between atoms: N_5  and  N_9 
REMARK    5  A    between atoms: C_13  and  N_6 
REMARK    6  A    between atoms: N_9  and  C_12 
ROOT
ATOM      1  N   UNL d   1     -49.156  28.552  34.224  0.00  0.00    -0.276 N 
ATOM      2  H   UNL d   1     -49.450  29.166  33.758  0.00  0.00     0.189 HD
ENDROOT
BRANCH   1   3
ATOM      3  C   UNL d   1     -49.423  27.772  34.082  0.00  0.00     0.191 C 
ATOM      4  S   UNL d   1     -49.290  27.191  34.658  0.00  0.00    -0.039 SA
BRANCH   3   5
ATOM      5  N   UNL d   1     -49.814  27.568  33.385  0.00  0.00    -0.331 N 
ATOM      6  H   UNL d   1     -49.662  28.014  32.708  0.00  0.00     0.168 HD
BRANCH   5   7
ATOM      7  C   UNL d   1     -50.345  26.936  33.359  0.00  0.00     0.058 A 
ATOM      8  C   UNL d   1     -50.051  26.160  33.332  0.00  0.00     0.017 A 
ATOM      9  C   UNL d   1     -50.570  25.532  33.306  0.00  0.00     0.002 A 
ATOM     10  C   UNL d   1     -51.386  25.655  33.307  0.00  0.00     0.000 A 
ATOM     11  C   UNL d   1     -51.680  26.431  33.334  0.00  0.00     0.002 A 
ATOM     12  C   UNL d   1     -51.150  27.063  33.360  0.00  0.00     0.017 A 
ENDBRANCH   5   7
ENDBRANCH   3   5
ENDBRANCH   1   3
BRANCH   1  13
ATOM     13  N   UNL d   1     -48.615  28.714  34.812  0.00  0.00    -0.297 N 
ATOM     14  H   UNL d   1     -48.370  28.101  35.335  0.00  0.00     0.187 HD
BRANCH  13  15
ATOM     15  C   UNL d   1     -48.291  29.484  34.911  0.00  0.00     0.072 A 
ATOM     16  C   UNL d   1     -47.783  29.621  35.546  0.00  0.00     0.020 A 
ATOM     17  C   UNL d   1     -47.452  30.359  35.669  0.00  0.00     0.025 A 
ATOM     18  C   UNL d   1     -47.639  30.970  35.140  0.00  0.00     0.127 A 
ATOM     19  C   UNL d   1     -48.148  30.832  34.505  0.00  0.00     0.025 A 
ATOM     20  C   UNL d   1     -48.470  30.085  34.399  0.00  0.00     0.020 A 
BRANCH  18  21
ATOM     21  N   UNL d   1     -47.294  31.750  35.265  0.00  0.00    -0.114 N 
ATOM     22  O   UNL d   1     -46.655  31.832  35.780  0.00  0.00    -0.532 OA
ATOM     23  O   UNL d   1     -47.614  32.388  34.863  0.00  0.00    -0.532 OA
ENDBRANCH  18  21
ENDBRANCH  13  15
ENDBRANCH   1  13
TORSDOF 6
ENDMDL
