MODEL 1
REMARK VINA RESULT:      43.9      0.000      0.000
REMARK  7 active torsions:
REMARK  status: ('A' for Active; 'I' for Inactive)
REMARK    1  A    between atoms: O_9  and  N_1 
REMARK    2  A    between atoms: C_8  and  O_11 
REMARK    3  A    between atoms: C_15  and  O_9 
REMARK    4  A    between atoms: O_11  and  C_16 
REMARK    5  A    between atoms: C_18  and  C_15 
REMARK    6  A    between atoms: C_16  and  C_17 
REMARK    7  A    between atoms: C_17  and  C_18 
ROOT
ATOM      1  N   UNL d   1     -57.437 -99.058 -43.752  0.00  0.00    -0.139 N 
ATOM      2  C   UNL d   1     -57.055 -98.956 -44.485  0.00  0.00     0.287 A 
ATOM      3  C   UNL d   1     -56.861 -99.240 -43.183  0.00  0.00     0.287 A 
ATOM      4  C   UNL d   1     -56.244 -99.075 -44.364  0.00  0.00     0.063 A 
ATOM      5  C   UNL d   1     -56.124 -99.250 -43.563  0.00  0.00     0.063 A 
ATOM      6  O   UNL d   1     -56.955 -99.391 -42.376  0.00  0.00    -0.265 OA
ATOM      7  O   UNL d   1     -57.378 -98.771 -45.214  0.00  0.00    -0.265 OA
ATOM      8  C   UNL d   1     -55.361 -99.396 -43.282  0.00  0.00     0.005 A 
ATOM      9  C   UNL d   1     -55.600 -99.047 -44.881  0.00  0.00     0.005 A 
ATOM     10  C   UNL d   1     -54.721 -99.368 -43.799  0.00  0.00     0.000 A 
ATOM     11  C   UNL d   1     -54.840 -99.193 -44.599  0.00  0.00     0.000 A 
ENDROOT
BRANCH   1  12
ATOM     12  O   UNL d   1     -58.247 -98.990 -43.616  0.00  0.00    -0.221 OA
BRANCH  12  13
ATOM     13  C   UNL d   1     -58.996 -98.759 -43.880  0.00  0.00     0.148 C 
BRANCH  13  14
ATOM     14  C   UNL d   1     -59.368 -99.196 -44.471  0.00  0.00     0.031 C 
BRANCH  14  15
ATOM     15  C   UNL d   1     -59.864 -98.818 -45.009  0.00  0.00     0.029 C 
BRANCH  15  16
ATOM     16  C   UNL d   1     -59.960 -99.129 -45.764  0.00  0.00     0.126 C 
BRANCH  16  17
ATOM     17  O   UNL d   1     -59.352 -99.050 -46.317  0.00  0.00    -0.271 OA
BRANCH  17  18
ATOM     18  C   UNL d   1     -59.476 -99.291 -47.094  0.00  0.00     0.300 C 
ATOM     19  O   UNL d   1     -59.778 -98.760 -47.648  0.00  0.00    -0.259 OA
ATOM     20  C   UNL d   1     -59.298-100.062 -47.317  0.00  0.00     0.074 C 
ENDBRANCH  17  18
ENDBRANCH  16  17
ENDBRANCH  15  16
ENDBRANCH  14  15
ENDBRANCH  13  14
ENDBRANCH  12  13
ENDBRANCH   1  12
TORSDOF 7
ENDMDL
MODEL 2
REMARK VINA RESULT:      44.0      5.590      7.397
REMARK  7 active torsions:
REMARK  status: ('A' for Active; 'I' for Inactive)
REMARK    1  A    between atoms: O_9  and  N_1 
REMARK    2  A    between atoms: C_8  and  O_11 
REMARK    3  A    between atoms: C_15  and  O_9 
REMARK    4  A    between atoms: O_11  and  C_16 
REMARK    5  A    between atoms: C_18  and  C_15 
REMARK    6  A    between atoms: C_16  and  C_17 
REMARK    7  A    between atoms: C_17  and  C_18 
ROOT
ATOM      1  N   UNL d   1     -54.821-100.935 -37.958  0.00  0.00    -0.139 N 
ATOM      2  C   UNL d   1     -54.916-100.521 -37.241  0.00  0.00     0.287 A 
ATOM      3  C   UNL d   1     -54.847-101.747 -37.792  0.00  0.00     0.287 A 
ATOM      4  C   UNL d   1     -55.000-101.081 -36.637  0.00  0.00     0.063 A 
ATOM      5  C   UNL d   1     -54.958-101.835 -36.975  0.00  0.00     0.063 A 
ATOM      6  O   UNL d   1     -54.781-102.387 -38.311  0.00  0.00    -0.265 OA
ATOM      7  O   UNL d   1     -54.930 -99.712 -37.110  0.00  0.00    -0.265 OA
ATOM      8  C   UNL d   1     -55.025-102.507 -36.498  0.00  0.00     0.005 A 
ATOM      9  C   UNL d   1     -55.109-100.999 -35.821  0.00  0.00     0.005 A 
ATOM     10  C   UNL d   1     -55.134-102.424 -35.686  0.00  0.00     0.000 A 
ATOM     11  C   UNL d   1     -55.176-101.669 -35.347  0.00  0.00     0.000 A 
ENDROOT
BRANCH   1  12
ATOM     12  O   UNL d   1     -54.720-100.595 -38.702  0.00  0.00    -0.221 OA
BRANCH  12  13
ATOM     13  C   UNL d   1     -54.989-100.085 -39.295  0.00  0.00     0.148 C 
BRANCH  13  14
ATOM     14  C   UNL d   1     -54.715-100.182 -40.066  0.00  0.00     0.031 C 
BRANCH  14  15
ATOM     15  C   UNL d   1     -55.218-100.485 -40.643  0.00  0.00     0.029 C 
BRANCH  15  16
ATOM     16  C   UNL d   1     -54.943-101.062 -41.162  0.00  0.00     0.126 C 
BRANCH  16  17
ATOM     17  O   UNL d   1     -55.483-101.536 -41.567  0.00  0.00    -0.271 OA
BRANCH  17  18
ATOM     18  C   UNL d   1     -55.209-102.115 -42.083  0.00  0.00     0.300 C 
ATOM     19  O   UNL d   1     -54.983-102.853 -41.794  0.00  0.00    -0.259 OA
ATOM     20  C   UNL d   1     -55.161-101.956 -42.889  0.00  0.00     0.074 C 
ENDBRANCH  17  18
ENDBRANCH  16  17
ENDBRANCH  15  16
ENDBRANCH  14  15
ENDBRANCH  13  14
ENDBRANCH  12  13
ENDBRANCH   1  12
TORSDOF 7
ENDMDL
