MODEL 1
REMARK VINA RESULT:      -4.5      0.000      0.000
REMARK  5 active torsions:
REMARK  status: ('A' for Active; 'I' for Inactive)
REMARK    1  A    between atoms: C_5  and  C_1 
REMARK    2  A    between atoms: O_8  and  C_5 
REMARK    3  A    between atoms: C_15  and  O_8 
REMARK       I    between atoms: C_9  and  N_11 
REMARK    4  A    between atoms: N_11  and  C_16 
REMARK    5  A    between atoms: O_21  and  C_13 
ROOT
ATOM      1  C   UNL d   1      58.828  -1.307  29.515  0.00  0.00     0.127 A 
ATOM      2  C   UNL d   1      59.653  -1.350  29.489  0.00  0.00     0.305 A 
ATOM      3  O   UNL d   1      60.022  -2.044  29.214  0.00  0.00    -0.271 OA
ATOM      4  C   UNL d   1      58.372  -1.950  29.269  0.00  0.00     0.013 A 
ATOM      5  C   UNL d   1      59.567  -2.687  28.968  0.00  0.00     0.125 A 
ATOM      6  C   UNL d   1      58.742  -2.636  28.997  0.00  0.00     0.025 A 
ATOM      7  O   UNL d   1      60.116  -0.717  29.731  0.00  0.00    -0.259 OA
ATOM      8  C   UNL d   1      59.933  -3.364  28.699  0.00  0.00     0.117 A 
ATOM      9  C   UNL d   1      58.282  -3.278  28.752  0.00  0.00     0.002 A 
ATOM     10  C   UNL d   1      58.657  -3.960  28.481  0.00  0.00     0.002 A 
ATOM     11  C   UNL d   1      59.482  -4.003  28.455  0.00  0.00     0.026 A 
ENDROOT
BRANCH   1  12
ATOM     12  C   UNL d   1      58.467  -0.619  29.788  0.00  0.00     0.305 C 
ATOM     13  O   UNL d   1      58.338   0.008  29.264  0.00  0.00    -0.259 OA
BRANCH  12  14
ATOM     14  O   UNL d   1      58.235  -0.555  30.579  0.00  0.00    -0.273 OA
BRANCH  14  15
ATOM     15  C   UNL d   1      57.697  -0.285  31.147  0.00  0.00     0.103 A 
ATOM     16  C   UNL d   1      57.856   0.408  31.553  0.00  0.00     0.026 A 
ATOM     17  C   UNL d   1      57.321   0.680  32.120  0.00  0.00     0.021 A 
ATOM     18  C   UNL d   1      56.629   0.250  32.272  0.00  0.00     0.085 A 
ATOM     19  C   UNL d   1      56.481  -0.444  31.857  0.00  0.00     0.021 A 
ATOM     20  C   UNL d   1      57.011  -0.714  31.296  0.00  0.00     0.026 A 
BRANCH  18  21
ATOM     21  N   UNL d   1      56.094   0.522  32.839  0.00  0.00    -0.208 NA
ATOM     22  C   UNL d   1      55.763  -0.007  33.379  0.00  0.00     0.279 C 
ATOM     23  O   UNL d   1      55.968  -0.810  33.349  0.00  0.00    -0.265 OA
ATOM     24  C   UNL d   1      55.227   0.261  33.947  0.00  0.00     0.068 C 
ENDBRANCH  18  21
ENDBRANCH  14  15
ENDBRANCH  12  14
ENDBRANCH   1  12
BRANCH   8  25
ATOM     25  O   UNL d   1      60.750  -3.403  28.675  0.00  0.00    -0.326 OA
ATOM     26  C   UNL d   1      61.133  -4.132  28.705  0.00  0.00     0.181 C 
ENDBRANCH   8  25
TORSDOF 5
ENDMDL
MODEL 2
REMARK VINA RESULT:      -4.4      1.665      5.233
REMARK  5 active torsions:
REMARK  status: ('A' for Active; 'I' for Inactive)
REMARK    1  A    between atoms: C_5  and  C_1 
REMARK    2  A    between atoms: O_8  and  C_5 
REMARK    3  A    between atoms: C_15  and  O_8 
REMARK       I    between atoms: C_9  and  N_11 
REMARK    4  A    between atoms: N_11  and  C_16 
REMARK    5  A    between atoms: O_21  and  C_13 
ROOT
ATOM      1  C   UNL d   1      57.570  -0.313  31.007  0.00  0.00     0.127 A 
ATOM      2  C   UNL d   1      57.929   0.233  31.513  0.00  0.00     0.305 A 
ATOM      3  O   UNL d   1      57.640   0.332  32.287  0.00  0.00    -0.271 OA
ATOM      4  C   UNL d   1      56.927  -0.759  31.269  0.00  0.00     0.013 A 
ATOM      5  C   UNL d   1      56.997  -0.114  32.550  0.00  0.00     0.125 A 
ATOM      6  C   UNL d   1      56.644  -0.658  32.038  0.00  0.00     0.025 A 
ATOM      7  O   UNL d   1      58.569   0.682  31.261  0.00  0.00    -0.259 OA
ATOM      8  C   UNL d   1      56.718  -0.014  33.309  0.00  0.00     0.117 A 
ATOM      9  C   UNL d   1      55.999  -1.107  32.297  0.00  0.00     0.002 A 
ATOM     10  C   UNL d   1      55.720  -1.002  33.066  0.00  0.00     0.002 A 
ATOM     11  C   UNL d   1      56.080  -0.456  33.572  0.00  0.00     0.026 A 
ENDROOT
BRANCH   1  12
ATOM     12  C   UNL d   1      57.859  -0.407  30.241  0.00  0.00     0.305 C 
ATOM     13  O   UNL d   1      57.429  -0.102  29.604  0.00  0.00    -0.259 OA
BRANCH  12  14
ATOM     14  O   UNL d   1      58.573  -0.804  30.111  0.00  0.00    -0.273 OA
BRANCH  14  15
ATOM     15  C   UNL d   1      59.009  -1.373  29.698  0.00  0.00     0.103 A 
ATOM     16  C   UNL d   1      59.735  -1.168  29.380  0.00  0.00     0.026 A 
ATOM     17  C   UNL d   1      60.174  -1.733  28.967  0.00  0.00     0.021 A 
ATOM     18  C   UNL d   1      59.874  -2.501  28.879  0.00  0.00     0.085 A 
ATOM     19  C   UNL d   1      59.144  -2.694  29.203  0.00  0.00     0.021 A 
ATOM     20  C   UNL d   1      58.710  -2.134  29.612  0.00  0.00     0.026 A 
BRANCH  18  21
ATOM     21  N   UNL d   1      60.313  -3.066  28.466  0.00  0.00    -0.208 NA
ATOM     22  C   UNL d   1      60.616  -3.723  28.865  0.00  0.00     0.279 C 
ATOM     23  O   UNL d   1      60.479  -3.812  29.677  0.00  0.00    -0.265 OA
ATOM     24  C   UNL d   1      61.054  -4.290  28.455  0.00  0.00     0.068 C 
ENDBRANCH  18  21
ENDBRANCH  14  15
ENDBRANCH  12  14
ENDBRANCH   1  12
BRANCH   8  25
ATOM     25  O   UNL d   1      57.076   0.528  33.807  0.00  0.00    -0.326 OA
ATOM     26  C   UNL d   1      56.765   0.673  34.557  0.00  0.00     0.181 C 
ENDBRANCH   8  25
TORSDOF 5
ENDMDL
