MODEL 1
REMARK VINA RESULT:      -7.8      0.000      0.000
REMARK  3 active torsions:
REMARK  status: ('A' for Active; 'I' for Inactive)
REMARK    1  A    between atoms: N_2  and  C_1 
REMARK    2  A    between atoms: N_3  and  C_1 
REMARK       I    between atoms: C_4  and  N_3 
REMARK    3  A    between atoms: C_7  and  C_4 
ROOT
ATOM      1  C   UNL d   1     -47.902  13.096  22.692  0.00  0.00     0.209 C 
ATOM      2  S   UNL d   1     -47.793  13.809  23.106  0.00  0.00    -0.038 SA
ENDROOT
BRANCH   1   3
ATOM      3  N   UNL d   1     -48.568  12.984  22.224  0.00  0.00    -0.282 N 
ATOM      4  C   UNL d   1     -49.264  12.685  22.565  0.00  0.00     0.066 A 
ATOM      5  C   UNL d   1     -49.929  12.573  22.097  0.00  0.00     0.016 A 
ATOM      6  C   UNL d   1     -49.291  12.502  23.362  0.00  0.00     0.018 A 
ATOM      7  C   UNL d   1     -50.620  12.279  22.425  0.00  0.00     0.001 A 
ATOM      8  C   UNL d   1     -49.909  12.755  21.295  0.00  0.00     0.003 A 
ATOM      9  C   UNL d   1     -50.646  12.096  23.226  0.00  0.00     0.000 A 
ATOM     10  C   UNL d   1     -49.987  12.205  23.698  0.00  0.00     0.002 A 
ATOM     11  C   UNL d   1     -49.214  13.052  20.960  0.00  0.00     0.019 A 
ATOM     12  C   UNL d   1     -48.545  13.166  21.425  0.00  0.00     0.082 A 
ENDBRANCH   1   3
BRANCH   1  13
ATOM     13  N   UNL d   1     -47.333  12.494  22.754  0.00  0.00    -0.180 NA
ATOM     14  C   UNL d   1     -46.612  12.652  23.137  0.00  0.00     0.281 C 
ATOM     15  O   UNL d   1     -46.461  13.395  23.453  0.00  0.00    -0.265 OA
BRANCH  14  16
ATOM     16  C   UNL d   1     -46.036  12.045  23.200  0.00  0.00     0.058 A 
ATOM     17  C   UNL d   1     -46.217  11.354  23.623  0.00  0.00     0.005 A 
ATOM     18  C   UNL d   1     -45.647  10.753  23.685  0.00  0.00     0.007 A 
ATOM     19  C   UNL d   1     -44.907  10.844  23.328  0.00  0.00     0.035 A 
ATOM     20  C   UNL d   1     -44.734  11.545  22.903  0.00  0.00     0.007 A 
ATOM     21 BR   UNL d   1     -44.337  10.243  23.390  0.00  0.00    -0.049 Br
ATOM     22  C   UNL d   1     -45.299  12.140  22.841  0.00  0.00     0.005 A 
ENDBRANCH  14  16
ENDBRANCH   1  13
TORSDOF 3
ENDMDL
MODEL 2
REMARK VINA RESULT:      -7.6      1.609      2.106
REMARK  3 active torsions:
REMARK  status: ('A' for Active; 'I' for Inactive)
REMARK    1  A    between atoms: N_2  and  C_1 
REMARK    2  A    between atoms: N_3  and  C_1 
REMARK       I    between atoms: C_4  and  N_3 
REMARK    3  A    between atoms: C_7  and  C_4 
ROOT
ATOM      1  C   UNL d   1     -48.789  13.276  23.183  0.00  0.00     0.209 C 
ATOM      2  S   UNL d   1     -49.017  12.603  23.616  0.00  0.00    -0.038 SA
ENDROOT
BRANCH   1   3
ATOM      3  N   UNL d   1     -49.319  13.892  23.063  0.00  0.00    -0.282 N 
ATOM      4  C   UNL d   1     -49.903  13.824  22.477  0.00  0.00     0.066 A 
ATOM      5  C   UNL d   1     -50.433  14.440  22.357  0.00  0.00     0.016 A 
ATOM      6  C   UNL d   1     -49.955  13.148  22.018  0.00  0.00     0.018 A 
ATOM      7  C   UNL d   1     -51.012  14.380  21.781  0.00  0.00     0.001 A 
ATOM      8  C   UNL d   1     -50.387  15.123  22.815  0.00  0.00     0.003 A 
ATOM      9  C   UNL d   1     -51.063  13.701  21.322  0.00  0.00     0.000 A 
ATOM     10  C   UNL d   1     -50.538  13.084  21.436  0.00  0.00     0.002 A 
ATOM     11  C   UNL d   1     -49.803  15.186  23.397  0.00  0.00     0.019 A 
ATOM     12  C   UNL d   1     -49.271  14.571  23.520  0.00  0.00     0.082 A 
ENDBRANCH   1   3
BRANCH   1  13
ATOM     13  N   UNL d   1     -48.021  13.323  22.871  0.00  0.00    -0.180 NA
ATOM     14  C   UNL d   1     -47.440  12.790  23.134  0.00  0.00     0.281 C 
ATOM     15  O   UNL d   1     -47.621  12.220  23.698  0.00  0.00    -0.265 OA
BRANCH  14  16
ATOM     16  C   UNL d   1     -46.664  12.837  22.820  0.00  0.00     0.058 A 
ATOM     17  C   UNL d   1     -46.403  13.549  22.482  0.00  0.00     0.005 A 
ATOM     18  C   UNL d   1     -45.635  13.595  22.170  0.00  0.00     0.007 A 
ATOM     19  C   UNL d   1     -45.135  12.937  22.197  0.00  0.00     0.035 A 
ATOM     20  C   UNL d   1     -45.407  12.223  22.541  0.00  0.00     0.007 A 
ATOM     21 BR   UNL d   1     -44.366  12.983  21.886  0.00  0.00    -0.049 Br
ATOM     22  C   UNL d   1     -46.169  12.177  22.849  0.00  0.00     0.005 A 
ENDBRANCH  14  16
ENDBRANCH   1  13
TORSDOF 3
ENDMDL
MODEL 3
REMARK VINA RESULT:      -7.1      8.639      9.739
REMARK  3 active torsions:
REMARK  status: ('A' for Active; 'I' for Inactive)
REMARK    1  A    between atoms: N_2  and  C_1 
REMARK    2  A    between atoms: N_3  and  C_1 
REMARK       I    between atoms: C_4  and  N_3 
REMARK    3  A    between atoms: C_7  and  C_4 
ROOT
ATOM      1  C   UNL d   1     -40.232  14.553  18.718  0.00  0.00     0.209 C 
ATOM      2  S   UNL d   1     -40.893  14.047  18.745  0.00  0.00    -0.038 SA
ENDROOT
BRANCH   1   3
ATOM      3  N   UNL d   1     -39.970  14.857  18.002  0.00  0.00    -0.282 N 
ATOM      4  C   UNL d   1     -39.436  14.418  17.541  0.00  0.00     0.066 A 
ATOM      5  C   UNL d   1     -39.173  14.721  16.825  0.00  0.00     0.016 A 
ATOM      6  C   UNL d   1     -39.170  13.687  17.796  0.00  0.00     0.018 A 
ATOM      7  C   UNL d   1     -38.647  14.295  16.364  0.00  0.00     0.001 A 
ATOM      8  C   UNL d   1     -39.436  15.456  16.563  0.00  0.00     0.003 A 
ATOM      9  C   UNL d   1     -38.381  13.562  16.621  0.00  0.00     0.000 A 
ATOM     10  C   UNL d   1     -38.638  13.254  17.334  0.00  0.00     0.002 A 
ATOM     11  C   UNL d   1     -39.968  15.890  17.025  0.00  0.00     0.019 A 
ATOM     12  C   UNL d   1     -40.233  15.589  17.743  0.00  0.00     0.082 A 
ENDBRANCH   1   3
BRANCH   1  13
ATOM     13  N   UNL d   1     -39.838  14.752  19.423  0.00  0.00    -0.180 NA
ATOM     14  C   UNL d   1     -40.257  14.742  20.141  0.00  0.00     0.281 C 
ATOM     15  O   UNL d   1     -41.053  14.540  20.158  0.00  0.00    -0.265 OA
BRANCH  14  16
ATOM     16  C   UNL d   1     -39.860  14.943  20.852  0.00  0.00     0.058 A 
ATOM     17  C   UNL d   1     -39.893  15.723  21.132  0.00  0.00     0.005 A 
ATOM     18  C   UNL d   1     -39.499  15.921  21.837  0.00  0.00     0.007 A 
ATOM     19  C   UNL d   1     -39.079  15.344  22.253  0.00  0.00     0.035 A 
ATOM     20  C   UNL d   1     -39.051  14.559  21.962  0.00  0.00     0.007 A 
ATOM     21 BR   UNL d   1     -38.685  15.542  22.957  0.00  0.00    -0.049 Br
ATOM     22  C   UNL d   1     -39.441  14.363  21.265  0.00  0.00     0.005 A 
ENDBRANCH  14  16
ENDBRANCH   1  13
TORSDOF 3
ENDMDL
MODEL 4
REMARK VINA RESULT:      -6.9      8.666      9.664
REMARK  3 active torsions:
REMARK  status: ('A' for Active; 'I' for Inactive)
REMARK    1  A    between atoms: N_2  and  C_1 
REMARK    2  A    between atoms: N_3  and  C_1 
REMARK       I    between atoms: C_4  and  N_3 
REMARK    3  A    between atoms: C_7  and  C_4 
ROOT
ATOM      1  C   UNL d   1     -40.224  14.383  20.166  0.00  0.00     0.209 C 
ATOM      2  S   UNL d   1     -40.928  13.939  20.184  0.00  0.00    -0.038 SA
ENDROOT
BRANCH   1   3
ATOM      3  N   UNL d   1     -39.965  14.778  20.837  0.00  0.00    -0.282 N 
ATOM      4  C   UNL d   1     -39.415  14.414  21.342  0.00  0.00     0.066 A 
ATOM      5  C   UNL d   1     -39.156  14.809  22.014  0.00  0.00     0.016 A 
ATOM      6  C   UNL d   1     -39.130  13.665  21.175  0.00  0.00     0.018 A 
ATOM      7  C   UNL d   1     -38.614  14.457  22.517  0.00  0.00     0.001 A 
ATOM      8  C   UNL d   1     -39.438  15.563  22.188  0.00  0.00     0.003 A 
ATOM      9  C   UNL d   1     -38.329  13.705  22.348  0.00  0.00     0.000 A 
ATOM     10  C   UNL d   1     -38.583  13.306  21.681  0.00  0.00     0.002 A 
ATOM     11  C   UNL d   1     -39.985  15.922  21.683  0.00  0.00     0.019 A 
ATOM     12  C   UNL d   1     -40.247  15.529  21.009  0.00  0.00     0.082 A 
ENDBRANCH   1   3
BRANCH   1  13
ATOM     13  N   UNL d   1     -39.783  14.426  19.464  0.00  0.00    -0.180 NA
ATOM     14  C   UNL d   1     -40.153  14.254  18.739  0.00  0.00     0.281 C 
ATOM     15  O   UNL d   1     -40.946  14.043  18.714  0.00  0.00    -0.265 OA
BRANCH  14  16
ATOM     16  C   UNL d   1     -39.708  14.296  18.029  0.00  0.00     0.058 A 
ATOM     17  C   UNL d   1     -39.219  13.660  17.815  0.00  0.00     0.005 A 
ATOM     18  C   UNL d   1     -38.778  13.703  17.112  0.00  0.00     0.007 A 
ATOM     19  C   UNL d   1     -38.827  14.373  16.631  0.00  0.00     0.035 A 
ATOM     20  C   UNL d   1     -39.323  15.010  16.856  0.00  0.00     0.007 A 
ATOM     21 BR   UNL d   1     -38.387  14.416  15.928  0.00  0.00    -0.049 Br
ATOM     22  C   UNL d   1     -39.760  14.968  17.552  0.00  0.00     0.005 A 
ENDBRANCH  14  16
ENDBRANCH   1  13
TORSDOF 3
ENDMDL
MODEL 5
REMARK VINA RESULT:      -6.5      9.126      9.707
REMARK  3 active torsions:
REMARK  status: ('A' for Active; 'I' for Inactive)
REMARK    1  A    between atoms: N_2  and  C_1 
REMARK    2  A    between atoms: N_3  and  C_1 
REMARK       I    between atoms: C_4  and  N_3 
REMARK    3  A    between atoms: C_7  and  C_4 
ROOT
ATOM      1  C   UNL d   1     -38.766  15.157  19.157  0.00  0.00     0.209 C 
ATOM      2  S   UNL d   1     -38.437  15.921  19.189  0.00  0.00    -0.038 SA
ENDROOT
BRANCH   1   3
ATOM      3  N   UNL d   1     -38.993  14.832  18.439  0.00  0.00    -0.282 N 
ATOM      4  C   UNL d   1     -39.703  15.076  18.083  0.00  0.00     0.066 A 
ATOM      5  C   UNL d   1     -39.930  14.752  17.364  0.00  0.00     0.016 A 
ATOM      6  C   UNL d   1     -40.177  15.638  18.444  0.00  0.00     0.018 A 
ATOM      7  C   UNL d   1     -40.629  14.988  17.007  0.00  0.00     0.001 A 
ATOM      8  C   UNL d   1     -39.459  14.186  16.996  0.00  0.00     0.003 A 
ATOM      9  C   UNL d   1     -41.103  15.551  17.371  0.00  0.00     0.000 A 
ATOM     10  C   UNL d   1     -40.882  15.879  18.087  0.00  0.00     0.002 A 
ATOM     11  C   UNL d   1     -38.753  13.946  17.353  0.00  0.00     0.019 A 
ATOM     12  C   UNL d   1     -38.522  14.269  18.073  0.00  0.00     0.082 A 
ENDBRANCH   1   3
BRANCH   1  13
ATOM     13  N   UNL d   1     -38.863  14.722  19.859  0.00  0.00    -0.180 NA
ATOM     14  C   UNL d   1     -38.445  14.948  20.541  0.00  0.00     0.281 C 
ATOM     15  O   UNL d   1     -37.940  15.595  20.525  0.00  0.00    -0.265 OA
BRANCH  14  16
ATOM     16  C   UNL d   1     -38.544  14.509  21.249  0.00  0.00     0.058 A 
ATOM     17  C   UNL d   1     -38.968  14.844  21.880  0.00  0.00     0.005 A 
ATOM     18  C   UNL d   1     -39.065  14.409  22.581  0.00  0.00     0.007 A 
ATOM     19  C   UNL d   1     -38.742  13.651  22.648  0.00  0.00     0.035 A 
ATOM     20  C   UNL d   1     -38.316  13.322  22.006  0.00  0.00     0.007 A 
ATOM     21 BR   UNL d   1     -38.839  13.216  23.349  0.00  0.00    -0.049 Br
ATOM     22  C   UNL d   1     -38.220  13.753  21.311  0.00  0.00     0.005 A 
ENDBRANCH  14  16
ENDBRANCH   1  13
TORSDOF 3
ENDMDL
MODEL 6
REMARK VINA RESULT:      -6.2      1.777      2.097
REMARK  3 active torsions:
REMARK  status: ('A' for Active; 'I' for Inactive)
REMARK    1  A    between atoms: N_2  and  C_1 
REMARK    2  A    between atoms: N_3  and  C_1 
REMARK       I    between atoms: C_4  and  N_3 
REMARK    3  A    between atoms: C_7  and  C_4 
ROOT
ATOM      1  C   UNL d   1     -49.269  12.975  23.041  0.00  0.00     0.209 C 
ATOM      2  S   UNL d   1     -49.454  12.497  23.698  0.00  0.00    -0.038 SA
ENDROOT
BRANCH   1   3
ATOM      3  N   UNL d   1     -49.866  13.331  22.605  0.00  0.00    -0.282 N 
ATOM      4  C   UNL d   1     -50.147  14.080  22.828  0.00  0.00     0.066 A 
ATOM      5  C   UNL d   1     -50.744  14.437  22.392  0.00  0.00     0.016 A 
ATOM      6  C   UNL d   1     -49.833  14.465  23.479  0.00  0.00     0.018 A 
ATOM      7  C   UNL d   1     -51.026  15.176  22.606  0.00  0.00     0.001 A 
ATOM      8  C   UNL d   1     -51.064  14.056  21.737  0.00  0.00     0.003 A 
ATOM      9  C   UNL d   1     -50.710  15.560  23.259  0.00  0.00     0.000 A 
ATOM     10  C   UNL d   1     -50.115  15.211  23.698  0.00  0.00     0.002 A 
ATOM     11  C   UNL d   1     -50.782  13.310  21.518  0.00  0.00     0.019 A 
ATOM     12  C   UNL d   1     -50.184  12.950  21.953  0.00  0.00     0.082 A 
ENDBRANCH   1   3
BRANCH   1  13
ATOM     13  N   UNL d   1     -48.474  13.090  22.828  0.00  0.00    -0.180 NA
ATOM     14  C   UNL d   1     -47.904  12.530  23.061  0.00  0.00     0.281 C 
ATOM     15  O   UNL d   1     -48.121  11.869  23.497  0.00  0.00    -0.265 OA
BRANCH  14  16
ATOM     16  C   UNL d   1     -47.102  12.646  22.846  0.00  0.00     0.058 A 
ATOM     17  C   UNL d   1     -46.519  12.148  23.164  0.00  0.00     0.005 A 
ATOM     18  C   UNL d   1     -45.724  12.263  22.950  0.00  0.00     0.007 A 
ATOM     19  C   UNL d   1     -45.518  12.868  22.427  0.00  0.00     0.035 A 
ATOM     20  C   UNL d   1     -46.114  13.366  22.111  0.00  0.00     0.007 A 
ATOM     21 BR   UNL d   1     -44.723  12.983  22.214  0.00  0.00    -0.049 Br
ATOM     22  C   UNL d   1     -46.901  13.251  22.322  0.00  0.00     0.005 A 
ENDBRANCH  14  16
ENDBRANCH   1  13
TORSDOF 3
ENDMDL
