MODEL 1
REMARK VINA RESULT:      -3.1      0.000      0.000
REMARK  7 active torsions:
REMARK  status: ('A' for Active; 'I' for Inactive)
REMARK    1  A    between atoms: N_6  and  C_1 
REMARK    2  A    between atoms: S_9  and  C_3 
REMARK       I    between atoms: C_7  and  N_6 
REMARK    3  A    between atoms: C_14  and  C_7 
REMARK    4  A    between atoms: C_8  and  C_13 
REMARK       I    between atoms: N_10  and  C_8 
REMARK    5  A    between atoms: C_13  and  S_9 
REMARK    6  A    between atoms: C_15  and  N_10 
REMARK    7  A    between atoms: C_22  and  C_14 
ROOT
ATOM      1  C   UNL d   1      33.144  19.592 -22.598  0.00  0.00     0.219 A 
ATOM      2  S   UNL d   1      33.120  18.784 -22.476  0.00  0.00    -0.019 SA
ATOM      3  C   UNL d   1      33.023  18.431 -23.172  0.00  0.00     0.165 A 
ATOM      4  N   UNL d   1      33.056  19.706 -23.417  0.00  0.00    -0.120 NA
ATOM      5  N   UNL d   1      32.983  19.008 -23.762  0.00  0.00    -0.133 NA
ENDROOT
BRANCH   3   6
ATOM      6  S   UNL d   1      32.978  17.588 -23.216  0.00  0.00    -0.054 SA
BRANCH   6   7
ATOM      7  C   UNL d   1      32.401  17.230 -23.687  0.00  0.00     0.100 C 
BRANCH   7   8
ATOM      8  C   UNL d   1      32.489  16.449 -23.937  0.00  0.00     0.286 C 
ATOM      9  N   UNL d   1      31.866  16.049 -24.251  0.00  0.00    -0.208 NA
ATOM     10  O   UNL d   1      33.240  16.063 -23.863  0.00  0.00    -0.265 OA
BRANCH   9  11
ATOM     11  C   UNL d   1      31.111  16.443 -24.323  0.00  0.00     0.085 A 
ATOM     12  C   UNL d   1      30.969  16.855 -25.015  0.00  0.00     0.021 A 
ATOM     13  C   UNL d   1      30.244  17.239 -25.097  0.00  0.00     0.031 A 
ATOM     14  C   UNL d   1      29.682  17.215 -24.515  0.00  0.00     0.140 A 
ATOM     15  C   UNL d   1      29.833  16.790 -23.805  0.00  0.00     0.031 A 
ATOM     16  F   UNL d   1      29.019  17.569 -24.594  0.00  0.00    -0.204 F 
ATOM     17  C   UNL d   1      30.558  16.400 -23.712  0.00  0.00     0.021 A 
ENDBRANCH   9  11
ENDBRANCH   7   8
ENDBRANCH   6   7
ENDBRANCH   3   6
BRANCH   1  18
ATOM     18  N   UNL d   1      33.237  20.210 -22.044  0.00  0.00    -0.181 NA
ATOM     19  C   UNL d   1      32.848  20.731 -21.501  0.00  0.00     0.281 C 
ATOM     20  O   UNL d   1      32.031  20.679 -21.413  0.00  0.00    -0.265 OA
BRANCH  19  21
ATOM     21  C   UNL d   1      33.177  21.313 -21.019  0.00  0.00     0.063 C 
BRANCH  21  22
ATOM     22  C   UNL d   1      32.711  22.077 -20.913  0.00  0.00     0.005 C 
ATOM     23  C   UNL d   1      33.052  22.765 -21.244  0.00  0.00     0.000 C 
ATOM     24  C   UNL d   1      32.111  22.188 -20.599  0.00  0.00     0.000 C 
ENDBRANCH  21  22
ENDBRANCH  19  21
ENDBRANCH   1  18
TORSDOF 7
ENDMDL
MODEL 2
REMARK VINA RESULT:      -1.7      2.306      5.889
REMARK  7 active torsions:
REMARK  status: ('A' for Active; 'I' for Inactive)
REMARK    1  A    between atoms: N_6  and  C_1 
REMARK    2  A    between atoms: S_9  and  C_3 
REMARK       I    between atoms: C_7  and  N_6 
REMARK    3  A    between atoms: C_14  and  C_7 
REMARK    4  A    between atoms: C_8  and  C_13 
REMARK       I    between atoms: N_10  and  C_8 
REMARK    5  A    between atoms: C_13  and  S_9 
REMARK    6  A    between atoms: C_15  and  N_10 
REMARK    7  A    between atoms: C_22  and  C_14 
ROOT
ATOM      1  C   UNL d   1      32.981  19.420 -22.886  0.00  0.00     0.219 A 
ATOM      2  S   UNL d   1      33.085  20.146 -23.247  0.00  0.00    -0.019 SA
ATOM      3  C   UNL d   1      33.125  20.697 -22.688  0.00  0.00     0.165 A 
ATOM      4  N   UNL d   1      32.960  19.568 -22.069  0.00  0.00    -0.120 NA
ATOM      5  N   UNL d   1      33.047  20.336 -21.949  0.00  0.00    -0.133 NA
ENDROOT
BRANCH   3   6
ATOM      6  S   UNL d   1      33.232  21.509 -22.900  0.00  0.00    -0.054 SA
BRANCH   6   7
ATOM      7  C   UNL d   1      32.984  22.106 -22.385  0.00  0.00     0.100 C 
BRANCH   7   8
ATOM      8  C   UNL d   1      32.845  22.870 -22.665  0.00  0.00     0.286 C 
ATOM      9  N   UNL d   1      32.662  23.463 -22.154  0.00  0.00    -0.208 NA
ATOM     10  O   UNL d   1      32.896  23.032 -23.495  0.00  0.00    -0.265 OA
BRANCH   9  11
ATOM     11  C   UNL d   1      32.612  23.294 -21.318  0.00  0.00     0.085 A 
ATOM     12  C   UNL d   1      33.240  23.531 -20.851  0.00  0.00     0.021 A 
ATOM     13  C   UNL d   1      33.205  23.374 -20.042  0.00  0.00     0.031 A 
ATOM     14  C   UNL d   1      32.570  22.996 -19.710  0.00  0.00     0.140 A 
ATOM     15  C   UNL d   1      31.927  22.754 -20.195  0.00  0.00     0.031 A 
ATOM     16  F   UNL d   1      32.542  22.854 -18.968  0.00  0.00    -0.204 F 
ATOM     17  C   UNL d   1      31.952  22.907 -21.009  0.00  0.00     0.021 A 
ENDBRANCH   9  11
ENDBRANCH   7   8
ENDBRANCH   6   7
ENDBRANCH   3   6
BRANCH   1  18
ATOM     18  N   UNL d   1      32.906  18.663 -23.230  0.00  0.00    -0.181 NA
ATOM     19  C   UNL d   1      32.406  18.133 -23.663  0.00  0.00     0.281 C 
ATOM     20  O   UNL d   1      31.654  18.386 -23.883  0.00  0.00    -0.265 OA
BRANCH  19  21
ATOM     21  C   UNL d   1      32.562  17.363 -23.912  0.00  0.00     0.063 C 
BRANCH  21  22
ATOM     22  C   UNL d   1      31.872  16.883 -24.233  0.00  0.00     0.005 C 
ATOM     23  C   UNL d   1      31.988  16.528 -24.982  0.00  0.00     0.000 C 
ATOM     24  C   UNL d   1      31.255  16.758 -23.960  0.00  0.00     0.000 C 
ENDBRANCH  21  22
ENDBRANCH  19  21
ENDBRANCH   1  18
TORSDOF 7
ENDMDL
