MODEL 1
REMARK VINA RESULT:      -6.0      0.000      0.000
REMARK  7 active torsions:
REMARK  status: ('A' for Active; 'I' for Inactive)
REMARK    1  A    between atoms: C_6  and  N_2 
REMARK    2  A    between atoms: C_7  and  C_3 
REMARK    3  A    between atoms: C_10  and  C_6 
REMARK    4  A    between atoms: C_17  and  C_7 
REMARK    5  A    between atoms: O_8  and  C_10 
REMARK    6  A    between atoms: C_9  and  O_8 
REMARK    7  A    between atoms: C_14  and  C_17 
ROOT
ATOM      1  N   UNL d   1     -46.644  11.851  23.140  0.00  0.00    -0.227 NA
ATOM      2  N   UNL d   1     -47.480  12.872  22.927  0.00  0.00    -0.287 N 
ATOM      3  C   UNL d   1     -46.673  12.650  22.894  0.00  0.00     0.148 A 
ATOM      4  C   UNL d   1     -47.921  12.230  23.183  0.00  0.00     0.083 A 
ATOM      5  C   UNL d   1     -47.382  11.572  23.320  0.00  0.00     0.099 A 
ATOM      6  C   UNL d   1     -48.721  12.150  23.310  0.00  0.00     0.019 A 
ATOM      7  C   UNL d   1     -47.736  10.865  23.586  0.00  0.00     0.021 A 
ATOM      8  C   UNL d   1     -48.993  11.432  23.569  0.00  0.00     0.002 A 
ATOM      9  C   UNL d   1     -48.488  10.815  23.697  0.00  0.00     0.002 A 
ENDROOT
BRANCH   2  10
ATOM     10  C   UNL d   1     -47.617  13.628  22.708  0.00  0.00     0.108 C 
BRANCH  10  11
ATOM     11  C   UNL d   1     -48.269  14.049  22.967  0.00  0.00     0.142 C 
BRANCH  11  12
ATOM     12  O   UNL d   1     -48.561  14.705  22.578  0.00  0.00    -0.304 OA
BRANCH  12  13
ATOM     13  C   UNL d   1     -49.262  15.085  22.789  0.00  0.00     0.100 A 
ATOM     14  C   UNL d   1     -49.357  15.513  23.487  0.00  0.00     0.025 A 
ATOM     15  C   UNL d   1     -50.057  15.891  23.698  0.00  0.00     0.002 A 
ATOM     16  C   UNL d   1     -50.705  15.839  23.177  0.00  0.00     0.000 A 
ATOM     17  C   UNL d   1     -50.634  15.410  22.461  0.00  0.00     0.002 A 
ATOM     18  C   UNL d   1     -49.909  15.033  22.268  0.00  0.00     0.025 A 
ENDBRANCH  12  13
ENDBRANCH  11  12
ENDBRANCH  10  11
ENDBRANCH   2  10
BRANCH   3  19
ATOM     19  C   UNL d   1     -46.398  13.364  22.636  0.00  0.00     0.041 C 
BRANCH  19  20
ATOM     20  C   UNL d   1     -45.573  13.503  22.609  0.00  0.00     0.049 C 
BRANCH  20  21
ATOM     21  C   UNL d   1     -45.173  13.544  21.878  0.00  0.00     0.234 C 
ATOM     22  O   UNL d   1     -44.340  13.529  21.851  0.00  0.00    -0.283 OA
ENDBRANCH  20  21
ENDBRANCH  19  20
ENDBRANCH   3  19
TORSDOF 7
ENDMDL
MODEL 2
REMARK VINA RESULT:      -5.7      2.047      3.089
REMARK  7 active torsions:
REMARK  status: ('A' for Active; 'I' for Inactive)
REMARK    1  A    between atoms: C_6  and  N_2 
REMARK    2  A    between atoms: C_7  and  C_3 
REMARK    3  A    between atoms: C_10  and  C_6 
REMARK    4  A    between atoms: C_17  and  C_7 
REMARK    5  A    between atoms: O_8  and  C_10 
REMARK    6  A    between atoms: C_9  and  O_8 
REMARK    7  A    between atoms: C_14  and  C_17 
ROOT
ATOM      1  N   UNL d   1     -45.467  13.200  22.993  0.00  0.00    -0.227 NA
ATOM      2  N   UNL d   1     -46.761  12.955  23.222  0.00  0.00    -0.287 N 
ATOM      3  C   UNL d   1     -46.002  12.601  23.226  0.00  0.00     0.148 A 
ATOM      4  C   UNL d   1     -46.686  13.739  22.995  0.00  0.00     0.083 A 
ATOM      5  C   UNL d   1     -45.852  13.897  22.848  0.00  0.00     0.099 A 
ATOM      6  C   UNL d   1     -47.246  14.322  22.902  0.00  0.00     0.019 A 
ATOM      7  C   UNL d   1     -45.669  14.675  22.609  0.00  0.00     0.021 A 
ATOM      8  C   UNL d   1     -46.994  15.055  22.667  0.00  0.00     0.002 A 
ATOM      9  C   UNL d   1     -46.211  15.203  22.529  0.00  0.00     0.002 A 
ENDROOT
BRANCH   2  10
ATOM     10  C   UNL d   1     -47.351  12.459  23.433  0.00  0.00     0.108 C 
BRANCH  10  11
ATOM     11  C   UNL d   1     -48.137  12.618  23.274  0.00  0.00     0.142 C 
BRANCH  11  12
ATOM     12  O   UNL d   1     -48.747  12.120  23.492  0.00  0.00    -0.304 OA
BRANCH  12  13
ATOM     13  C   UNL d   1     -49.506  12.165  23.172  0.00  0.00     0.100 A 
ATOM     14  C   UNL d   1     -49.667  12.103  22.365  0.00  0.00     0.025 A 
ATOM     15  C   UNL d   1     -50.424  12.147  22.047  0.00  0.00     0.002 A 
ATOM     16  C   UNL d   1     -51.064  12.262  22.568  0.00  0.00     0.000 A 
ATOM     17  C   UNL d   1     -50.927  12.328  23.391  0.00  0.00     0.002 A 
ATOM     18  C   UNL d   1     -50.146  12.279  23.692  0.00  0.00     0.025 A 
ENDBRANCH  12  13
ENDBRANCH  11  12
ENDBRANCH  10  11
ENDBRANCH   2  10
BRANCH   3  19
ATOM     19  C   UNL d   1     -46.249  11.869  23.461  0.00  0.00     0.041 C 
BRANCH  19  20
ATOM     20  C   UNL d   1     -45.683  11.287  23.663  0.00  0.00     0.049 C 
BRANCH  20  21
ATOM     21  C   UNL d   1     -45.883  10.477  23.653  0.00  0.00     0.234 C 
ATOM     22  O   UNL d   1     -45.289   9.895  23.694  0.00  0.00    -0.283 OA
ENDBRANCH  20  21
ENDBRANCH  19  20
ENDBRANCH   3  19
TORSDOF 7
ENDMDL
MODEL 3
REMARK VINA RESULT:      -5.6      1.551      4.300
REMARK  7 active torsions:
REMARK  status: ('A' for Active; 'I' for Inactive)
REMARK    1  A    between atoms: C_6  and  N_2 
REMARK    2  A    between atoms: C_7  and  C_3 
REMARK    3  A    between atoms: C_10  and  C_6 
REMARK    4  A    between atoms: C_17  and  C_7 
REMARK    5  A    between atoms: O_8  and  C_10 
REMARK    6  A    between atoms: C_9  and  O_8 
REMARK    7  A    between atoms: C_14  and  C_17 
ROOT
ATOM      1  N   UNL d   1     -50.775  13.690  22.951  0.00  0.00    -0.227 NA
ATOM      2  N   UNL d   1     -49.491  13.784  23.309  0.00  0.00    -0.287 N 
ATOM      3  C   UNL d   1     -50.087  13.237  23.095  0.00  0.00     0.148 A 
ATOM      4  C   UNL d   1     -49.808  14.540  23.295  0.00  0.00     0.083 A 
ATOM      5  C   UNL d   1     -50.636  14.479  23.064  0.00  0.00     0.099 A 
ATOM      6  C   UNL d   1     -49.470  15.263  23.457  0.00  0.00     0.019 A 
ATOM      7  C   UNL d   1     -51.052  15.201  23.020  0.00  0.00     0.021 A 
ATOM      8  C   UNL d   1     -49.937  15.922  23.393  0.00  0.00     0.002 A 
ATOM      9  C   UNL d   1     -50.713  15.865  23.176  0.00  0.00     0.002 A 
ENDROOT
BRANCH   2  10
ATOM     10  C   UNL d   1     -48.784  13.447  23.469  0.00  0.00     0.108 C 
BRANCH  10  11
ATOM     11  C   UNL d   1     -48.082  13.729  23.157  0.00  0.00     0.142 C 
BRANCH  11  12
ATOM     12  O   UNL d   1     -47.353  13.587  23.497  0.00  0.00    -0.304 OA
BRANCH  12  13
ATOM     13  C   UNL d   1     -46.655  13.522  23.063  0.00  0.00     0.100 A 
ATOM     14  C   UNL d   1     -46.306  14.152  22.662  0.00  0.00     0.025 A 
ATOM     15  C   UNL d   1     -45.609  14.087  22.229  0.00  0.00     0.002 A 
ATOM     16  C   UNL d   1     -45.235  13.343  22.194  0.00  0.00     0.000 A 
ATOM     17  C   UNL d   1     -45.570  12.687  22.593  0.00  0.00     0.002 A 
ATOM     18  C   UNL d   1     -46.282  12.779  23.028  0.00  0.00     0.025 A 
ENDBRANCH  12  13
ENDBRANCH  11  12
ENDBRANCH  10  11
ENDBRANCH   2  10
BRANCH   3  19
ATOM     19  C   UNL d   1     -49.625  12.578  23.157  0.00  0.00     0.041 C 
BRANCH  19  20
ATOM     20  C   UNL d   1     -49.921  11.839  22.895  0.00  0.00     0.049 C 
BRANCH  20  21
ATOM     21  C   UNL d   1     -49.699  11.132  23.278  0.00  0.00     0.234 C 
ATOM     22  O   UNL d   1     -50.263  10.680  23.690  0.00  0.00    -0.283 OA
ENDBRANCH  20  21
ENDBRANCH  19  20
ENDBRANCH   3  19
TORSDOF 7
ENDMDL
MODEL 4
REMARK VINA RESULT:      -5.6      1.688      2.380
REMARK  7 active torsions:
REMARK  status: ('A' for Active; 'I' for Inactive)
REMARK    1  A    between atoms: C_6  and  N_2 
REMARK    2  A    between atoms: C_7  and  C_3 
REMARK    3  A    between atoms: C_10  and  C_6 
REMARK    4  A    between atoms: C_17  and  C_7 
REMARK    5  A    between atoms: O_8  and  C_10 
REMARK    6  A    between atoms: C_9  and  O_8 
REMARK    7  A    between atoms: C_14  and  C_17 
ROOT
ATOM      1  N   UNL d   1     -45.451  12.559  23.027  0.00  0.00    -0.227 NA
ATOM      2  N   UNL d   1     -46.741  12.415  23.345  0.00  0.00    -0.287 N 
ATOM      3  C   UNL d   1     -46.174  12.976  23.090  0.00  0.00     0.148 A 
ATOM      4  C   UNL d   1     -46.374  11.687  23.433  0.00  0.00     0.083 A 
ATOM      5  C   UNL d   1     -45.542  11.780  23.228  0.00  0.00     0.099 A 
ATOM      6  C   UNL d   1     -46.671  10.966  23.665  0.00  0.00     0.019 A 
ATOM      7  C   UNL d   1     -45.078  11.090  23.286  0.00  0.00     0.021 A 
ATOM      8  C   UNL d   1     -46.158  10.339  23.698  0.00  0.00     0.002 A 
ATOM      9  C   UNL d   1     -45.378  10.426  23.506  0.00  0.00     0.002 A 
ENDROOT
BRANCH   2  10
ATOM     10  C   UNL d   1     -47.476  12.717  23.436  0.00  0.00     0.108 C 
BRANCH  10  11
ATOM     11  C   UNL d   1     -48.151  12.297  23.242  0.00  0.00     0.142 C 
BRANCH  11  12
ATOM     12  O   UNL d   1     -48.860  12.385  23.636  0.00  0.00    -0.304 OA
BRANCH  12  13
ATOM     13  C   UNL d   1     -49.572  12.555  23.257  0.00  0.00     0.100 A 
ATOM     14  C   UNL d   1     -49.889  12.094  22.651  0.00  0.00     0.025 A 
ATOM     15  C   UNL d   1     -50.600  12.265  22.272  0.00  0.00     0.002 A 
ATOM     16  C   UNL d   1     -51.023  12.940  22.515  0.00  0.00     0.000 A 
ATOM     17  C   UNL d   1     -50.723  13.425  23.128  0.00  0.00     0.002 A 
ATOM     18  C   UNL d   1     -49.995  13.230  23.499  0.00  0.00     0.025 A 
ENDBRANCH  12  13
ENDBRANCH  11  12
ENDBRANCH  10  11
ENDBRANCH   2  10
BRANCH   3  19
ATOM     19  C   UNL d   1     -46.681  13.603  23.056  0.00  0.00     0.041 C 
BRANCH  19  20
ATOM     20  C   UNL d   1     -46.396  14.351  22.812  0.00  0.00     0.049 C 
BRANCH  20  21
ATOM     21  C   UNL d   1     -46.887  14.876  22.389  0.00  0.00     0.234 C 
ATOM     22  O   UNL d   1     -47.003  15.656  22.659  0.00  0.00    -0.283 OA
ENDBRANCH  20  21
ENDBRANCH  19  20
ENDBRANCH   3  19
TORSDOF 7
ENDMDL
MODEL 5
REMARK VINA RESULT:      -5.5      2.039      4.937
REMARK  7 active torsions:
REMARK  status: ('A' for Active; 'I' for Inactive)
REMARK    1  A    between atoms: C_6  and  N_2 
REMARK    2  A    between atoms: C_7  and  C_3 
REMARK    3  A    between atoms: C_10  and  C_6 
REMARK    4  A    between atoms: C_17  and  C_7 
REMARK    5  A    between atoms: O_8  and  C_10 
REMARK    6  A    between atoms: C_9  and  O_8 
REMARK    7  A    between atoms: C_14  and  C_17 
ROOT
ATOM      1  N   UNL d   1     -48.494  13.622  22.898  0.00  0.00    -0.227 NA
ATOM      2  N   UNL d   1     -47.460  12.857  23.264  0.00  0.00    -0.287 N 
ATOM      3  C   UNL d   1     -48.294  12.859  23.179  0.00  0.00     0.148 A 
ATOM      4  C   UNL d   1     -47.169  13.590  23.042  0.00  0.00     0.083 A 
ATOM      5  C   UNL d   1     -47.836  14.083  22.806  0.00  0.00     0.099 A 
ATOM      6  C   UNL d   1     -46.407  13.877  23.020  0.00  0.00     0.019 A 
ATOM      7  C   UNL d   1     -47.642  14.857  22.561  0.00  0.00     0.021 A 
ATOM      8  C   UNL d   1     -46.297  14.639  22.770  0.00  0.00     0.002 A 
ATOM      9  C   UNL d   1     -46.922  15.102  22.550  0.00  0.00     0.002 A 
ENDROOT
BRANCH   2  10
ATOM     10  C   UNL d   1     -47.164  12.164  23.530  0.00  0.00     0.108 C 
BRANCH  10  11
ATOM     11  C   UNL d   1     -46.424  11.890  23.314  0.00  0.00     0.142 C 
BRANCH  11  12
ATOM     12  O   UNL d   1     -46.053  11.264  23.685  0.00  0.00    -0.304 OA
BRANCH  12  13
ATOM     13  C   UNL d   1     -45.299  11.000  23.484  0.00  0.00     0.100 A 
ATOM     14  C   UNL d   1     -44.726  11.476  23.130  0.00  0.00     0.025 A 
ATOM     15  C   UNL d   1     -43.973  11.212  22.930  0.00  0.00     0.002 A 
ATOM     16  C   UNL d   1     -43.778  10.419  23.094  0.00  0.00     0.000 A 
ATOM     17  C   UNL d   1     -44.341   9.914  23.454  0.00  0.00     0.002 A 
ATOM     18  C   UNL d   1     -45.103  10.207  23.649  0.00  0.00     0.025 A 
ENDBRANCH  12  13
ENDBRANCH  11  12
ENDBRANCH  10  11
ENDBRANCH   2  10
BRANCH   3  19
ATOM     19  C   UNL d   1     -48.408  12.100  23.428  0.00  0.00     0.041 C 
BRANCH  19  20
ATOM     20  C   UNL d   1     -49.187  11.817  23.545  0.00  0.00     0.049 C 
BRANCH  20  21
ATOM     21  C   UNL d   1     -49.328  11.009  23.698  0.00  0.00     0.234 C 
ATOM     22  O   UNL d   1     -50.101  10.702  23.668  0.00  0.00    -0.283 OA
ENDBRANCH  20  21
ENDBRANCH  19  20
ENDBRANCH   3  19
TORSDOF 7
ENDMDL
MODEL 6
REMARK VINA RESULT:      -5.5      9.274     10.205
REMARK  7 active torsions:
REMARK  status: ('A' for Active; 'I' for Inactive)
REMARK    1  A    between atoms: C_6  and  N_2 
REMARK    2  A    between atoms: C_7  and  C_3 
REMARK    3  A    between atoms: C_10  and  C_6 
REMARK    4  A    between atoms: C_17  and  C_7 
REMARK    5  A    between atoms: O_8  and  C_10 
REMARK    6  A    between atoms: C_9  and  O_8 
REMARK    7  A    between atoms: C_14  and  C_17 
ROOT
ATOM      1  N   UNL d   1     -39.850  13.929  17.165  0.00  0.00    -0.227 NA
ATOM      2  N   UNL d   1     -39.291  14.169  18.356  0.00  0.00    -0.287 N 
ATOM      3  C   UNL d   1     -39.287  13.636  17.710  0.00  0.00     0.148 A 
ATOM      4  C   UNL d   1     -39.836  14.763  18.206  0.00  0.00     0.083 A 
ATOM      5  C   UNL d   1     -40.197  14.608  17.438  0.00  0.00     0.099 A 
ATOM      6  C   UNL d   1     -40.054  15.411  18.648  0.00  0.00     0.019 A 
ATOM      7  C   UNL d   1     -40.771  15.160  17.192  0.00  0.00     0.021 A 
ATOM      8  C   UNL d   1     -40.620  15.904  18.344  0.00  0.00     0.002 A 
ATOM      9  C   UNL d   1     -40.958  15.759  17.624  0.00  0.00     0.002 A 
ENDROOT
BRANCH   2  10
ATOM     10  C   UNL d   1     -38.780  13.976  18.938  0.00  0.00     0.108 C 
BRANCH  10  11
ATOM     11  C   UNL d   1     -38.929  14.139  19.726  0.00  0.00     0.142 C 
BRANCH  11  12
ATOM     12  O   UNL d   1     -38.352  14.122  20.304  0.00  0.00    -0.304 OA
BRANCH  12  13
ATOM     13  C   UNL d   1     -38.514  14.016  21.105  0.00  0.00     0.100 A 
ATOM     14  C   UNL d   1     -38.946  14.552  21.559  0.00  0.00     0.025 A 
ATOM     15  C   UNL d   1     -39.107  14.447  22.358  0.00  0.00     0.002 A 
ATOM     16  C   UNL d   1     -38.818  13.760  22.731  0.00  0.00     0.000 A 
ATOM     17  C   UNL d   1     -38.377  13.200  22.292  0.00  0.00     0.002 A 
ATOM     18  C   UNL d   1     -38.225  13.330  21.478  0.00  0.00     0.025 A 
ENDBRANCH  12  13
ENDBRANCH  11  12
ENDBRANCH  10  11
ENDBRANCH   2  10
BRANCH   3  19
ATOM     19  C   UNL d   1     -38.723  13.142  18.010  0.00  0.00     0.041 C 
BRANCH  19  20
ATOM     20  C   UNL d   1     -38.410  12.532  17.528  0.00  0.00     0.049 C 
BRANCH  20  21
ATOM     21  C   UNL d   1     -37.941  11.928  17.859  0.00  0.00     0.234 C 
ATOM     22  O   UNL d   1     -38.033  11.138  17.612  0.00  0.00    -0.283 OA
ENDBRANCH  20  21
ENDBRANCH  19  20
ENDBRANCH   3  19
TORSDOF 7
ENDMDL
MODEL 7
REMARK VINA RESULT:      -5.2      1.150      2.633
REMARK  7 active torsions:
REMARK  status: ('A' for Active; 'I' for Inactive)
REMARK    1  A    between atoms: C_6  and  N_2 
REMARK    2  A    between atoms: C_7  and  C_3 
REMARK    3  A    between atoms: C_10  and  C_6 
REMARK    4  A    between atoms: C_17  and  C_7 
REMARK    5  A    between atoms: O_8  and  C_10 
REMARK    6  A    between atoms: C_9  and  O_8 
REMARK    7  A    between atoms: C_14  and  C_17 
ROOT
ATOM      1  N   UNL d   1     -46.606  12.148  22.979  0.00  0.00    -0.227 NA
ATOM      2  N   UNL d   1     -47.498  13.128  22.804  0.00  0.00    -0.287 N 
ATOM      3  C   UNL d   1     -47.427  12.308  22.963  0.00  0.00     0.148 A 
ATOM      4  C   UNL d   1     -46.748  13.449  22.728  0.00  0.00     0.083 A 
ATOM      5  C   UNL d   1     -46.173  12.818  22.841  0.00  0.00     0.099 A 
ATOM      6  C   UNL d   1     -46.509  14.212  22.574  0.00  0.00     0.019 A 
ATOM      7  C   UNL d   1     -45.373  13.045  22.782  0.00  0.00     0.021 A 
ATOM      8  C   UNL d   1     -45.713  14.357  22.531  0.00  0.00     0.002 A 
ATOM      9  C   UNL d   1     -45.174  13.765  22.637  0.00  0.00     0.002 A 
ENDROOT
BRANCH   2  10
ATOM     10  C   UNL d   1     -48.254  13.385  22.768  0.00  0.00     0.108 C 
BRANCH  10  11
ATOM     11  C   UNL d   1     -48.477  14.131  23.020  0.00  0.00     0.142 C 
BRANCH  11  12
ATOM     12  O   UNL d   1     -48.928  14.640  22.567  0.00  0.00    -0.304 OA
BRANCH  12  13
ATOM     13  C   UNL d   1     -49.623  14.992  22.837  0.00  0.00     0.100 A 
ATOM     14  C   UNL d   1     -49.644  15.570  23.425  0.00  0.00     0.025 A 
ATOM     15  C   UNL d   1     -50.338  15.921  23.693  0.00  0.00     0.002 A 
ATOM     16  C   UNL d   1     -51.059  15.680  23.352  0.00  0.00     0.000 A 
ATOM     17  C   UNL d   1     -51.064  15.095  22.753  0.00  0.00     0.002 A 
ATOM     18  C   UNL d   1     -50.343  14.751  22.496  0.00  0.00     0.025 A 
ENDBRANCH  12  13
ENDBRANCH  11  12
ENDBRANCH  10  11
ENDBRANCH   2  10
BRANCH   3  19
ATOM     19  C   UNL d   1     -48.219  12.159  23.007  0.00  0.00     0.041 C 
BRANCH  19  20
ATOM     20  C   UNL d   1     -48.494  11.519  23.472  0.00  0.00     0.049 C 
BRANCH  20  21
ATOM     21  C   UNL d   1     -49.115  11.034  23.201  0.00  0.00     0.234 C 
ATOM     22  O   UNL d   1     -49.784  10.897  23.680  0.00  0.00    -0.283 OA
ENDBRANCH  20  21
ENDBRANCH  19  20
ENDBRANCH   3  19
TORSDOF 7
ENDMDL
MODEL 8
REMARK VINA RESULT:      -4.9      8.303     10.196
REMARK  7 active torsions:
REMARK  status: ('A' for Active; 'I' for Inactive)
REMARK    1  A    between atoms: C_6  and  N_2 
REMARK    2  A    between atoms: C_7  and  C_3 
REMARK    3  A    between atoms: C_10  and  C_6 
REMARK    4  A    between atoms: C_17  and  C_7 
REMARK    5  A    between atoms: O_8  and  C_10 
REMARK    6  A    between atoms: C_9  and  O_8 
REMARK    7  A    between atoms: C_14  and  C_17 
ROOT
ATOM      1  N   UNL d   1     -41.359  15.862  19.458  0.00  0.00    -0.227 NA
ATOM      2  N   UNL d   1     -40.248  15.348  18.920  0.00  0.00    -0.287 N 
ATOM      3  C   UNL d   1     -41.016  15.625  18.732  0.00  0.00     0.148 A 
ATOM      4  C   UNL d   1     -40.132  15.415  19.729  0.00  0.00     0.083 A 
ATOM      5  C   UNL d   1     -40.848  15.746  20.075  0.00  0.00     0.099 A 
ATOM      6  C   UNL d   1     -39.491  15.226  20.193  0.00  0.00     0.019 A 
ATOM      7  C   UNL d   1     -40.831  15.854  20.902  0.00  0.00     0.021 A 
ATOM      8  C   UNL d   1     -39.547  15.359  20.989  0.00  0.00     0.002 A 
ATOM      9  C   UNL d   1     -40.219  15.669  21.315  0.00  0.00     0.002 A 
ENDROOT
BRANCH   2  10
ATOM     10  C   UNL d   1     -39.831  15.095  18.286  0.00  0.00     0.108 C 
BRANCH  10  11
ATOM     11  C   UNL d   1     -39.281  14.491  18.334  0.00  0.00     0.142 C 
BRANCH  11  12
ATOM     12  O   UNL d   1     -38.855  14.224  17.692  0.00  0.00    -0.304 OA
BRANCH  12  13
ATOM     13  C   UNL d   1     -38.554  13.458  17.633  0.00  0.00     0.100 A 
ATOM     14  C   UNL d   1     -38.432  12.964  18.282  0.00  0.00     0.025 A 
ATOM     15  C   UNL d   1     -38.132  12.200  18.223  0.00  0.00     0.002 A 
ATOM     16  C   UNL d   1     -37.940  11.910  17.466  0.00  0.00     0.000 A 
ATOM     17  C   UNL d   1     -38.054  12.392  16.791  0.00  0.00     0.002 A 
ATOM     18  C   UNL d   1     -38.362  13.168  16.877  0.00  0.00     0.025 A 
ENDBRANCH  12  13
ENDBRANCH  11  12
ENDBRANCH  10  11
ENDBRANCH   2  10
BRANCH   3  19
ATOM     19  C   UNL d   1     -40.963  15.494  17.937  0.00  0.00     0.041 C 
BRANCH  19  20
ATOM     20  C   UNL d   1     -41.654  15.534  17.466  0.00  0.00     0.049 C 
BRANCH  20  21
ATOM     21  C   UNL d   1     -41.642  15.921  16.727  0.00  0.00     0.234 C 
ATOM     22  O   UNL d   1     -42.300  15.879  16.218  0.00  0.00    -0.283 OA
ENDBRANCH  20  21
ENDBRANCH  19  20
ENDBRANCH   3  19
TORSDOF 7
ENDMDL
MODEL 9
REMARK VINA RESULT:      -4.9      6.809      9.742
REMARK  7 active torsions:
REMARK  status: ('A' for Active; 'I' for Inactive)
REMARK    1  A    between atoms: C_6  and  N_2 
REMARK    2  A    between atoms: C_7  and  C_3 
REMARK    3  A    between atoms: C_10  and  C_6 
REMARK    4  A    between atoms: C_17  and  C_7 
REMARK    5  A    between atoms: O_8  and  C_10 
REMARK    6  A    between atoms: C_9  and  O_8 
REMARK    7  A    between atoms: C_14  and  C_17 
ROOT
ATOM      1  N   UNL d   1     -40.059  14.792  21.855  0.00  0.00    -0.227 NA
ATOM      2  N   UNL d   1     -39.978  14.792  20.520  0.00  0.00    -0.287 N 
ATOM      3  C   UNL d   1     -40.448  14.529  21.162  0.00  0.00     0.148 A 
ATOM      4  C   UNL d   1     -39.330  15.197  20.814  0.00  0.00     0.083 A 
ATOM      5  C   UNL d   1     -39.382  15.197  21.675  0.00  0.00     0.099 A 
ATOM      6  C   UNL d   1     -38.710  15.561  20.432  0.00  0.00     0.019 A 
ATOM      7  C   UNL d   1     -38.762  15.589  22.073  0.00  0.00     0.021 A 
ATOM      8  C   UNL d   1     -38.145  15.922  20.886  0.00  0.00     0.002 A 
ATOM      9  C   UNL d   1     -38.193  15.922  21.692  0.00  0.00     0.002 A 
ENDROOT
BRANCH   2  10
ATOM     10  C   UNL d   1     -40.268  14.589  19.803  0.00  0.00     0.108 C 
BRANCH  10  11
ATOM     11  C   UNL d   1     -39.785  14.443  19.159  0.00  0.00     0.142 C 
BRANCH  11  12
ATOM     12  O   UNL d   1     -40.071  14.225  18.426  0.00  0.00    -0.304 OA
BRANCH  12  13
ATOM     13  C   UNL d   1     -39.590  14.110  17.767  0.00  0.00     0.100 A 
ATOM     14  C   UNL d   1     -39.509  14.661  17.159  0.00  0.00     0.025 A 
ATOM     15  C   UNL d   1     -39.028  14.547  16.501  0.00  0.00     0.002 A 
ATOM     16  C   UNL d   1     -38.600  13.834  16.445  0.00  0.00     0.000 A 
ATOM     17  C   UNL d   1     -38.665  13.258  17.050  0.00  0.00     0.002 A 
ATOM     18  C   UNL d   1     -39.161  13.398  17.711  0.00  0.00     0.025 A 
ENDBRANCH  12  13
ENDBRANCH  11  12
ENDBRANCH  10  11
ENDBRANCH   2  10
BRANCH   3  19
ATOM     19  C   UNL d   1     -41.014  14.168  20.713  0.00  0.00     0.041 C 
BRANCH  19  20
ATOM     20  C   UNL d   1     -41.730  13.923  21.071  0.00  0.00     0.049 C 
BRANCH  20  21
ATOM     21  C   UNL d   1     -42.156  13.274  20.768  0.00  0.00     0.234 C 
ATOM     22  O   UNL d   1     -42.756  12.914  21.220  0.00  0.00    -0.283 OA
ENDBRANCH  20  21
ENDBRANCH  19  20
ENDBRANCH   3  19
TORSDOF 7
ENDMDL
