MODEL 1
REMARK VINA RESULT:      -3.2      0.000      0.000
REMARK  4 active torsions:
REMARK  status: ('A' for Active; 'I' for Inactive)
REMARK    1  A    between atoms: N_9  and  C_3 
REMARK    2  A    between atoms: C_12  and  C_5 
REMARK    3  A    between atoms: C_15  and  N_11 
REMARK    4  A    between atoms: C_19  and  C_15 
ROOT
ATOM      1  N   UNL d   1      32.956  21.084 -22.239  0.00  0.00    -0.196 N 
ATOM      2  C   UNL d   1      32.922  21.868 -21.985  0.00  0.00     0.167 A 
ATOM      3  C   UNL d   1      33.085  20.914 -23.034  0.00  0.00     0.152 A 
ATOM      4  N   UNL d   1      32.845  20.604 -21.586  0.00  0.00    -0.163 NA
ATOM      5  C   UNL d   1      32.790  21.870 -21.175  0.00  0.00     0.055 A 
ATOM      6  C   UNL d   1      32.742  21.091 -20.926  0.00  0.00     0.104 A 
ATOM      7  N   UNL d   1      33.017  22.481 -22.525  0.00  0.00    -0.227 NA
ATOM      8  C   UNL d   1      33.180  21.529 -23.582  0.00  0.00     0.057 A 
ATOM      9  C   UNL d   1      33.146  22.313 -23.327  0.00  0.00     0.086 A 
ATOM     10  C   UNL d   1      32.612  20.838 -20.152  0.00  0.00     0.023 C 
ATOM     11  C   UNL d   1      33.241  22.939 -23.867  0.00  0.00     0.021 C 
ENDROOT
BRANCH   3  12
ATOM     12  N   UNL d   1      33.118  20.130 -23.288  0.00  0.00    -0.286 N 
ATOM     13  C   UNL d   1      33.067  19.952 -24.083  0.00  0.00     0.101 A 
ATOM     14  C   UNL d   1      33.101  19.163 -24.335  0.00  0.00     0.100 A 
ATOM     15  N   UNL d   1      33.185  18.572 -23.800  0.00  0.00    -0.300 N 
ATOM     16  C   UNL d   1      33.238  18.750 -22.991  0.00  0.00     0.100 A 
ATOM     17  C   UNL d   1      33.205  19.522 -22.741  0.00  0.00     0.101 A 
BRANCH  15  18
ATOM     18  C   UNL d   1      33.217  17.787 -24.075  0.00  0.00     0.080 C 
BRANCH  18  19
ATOM     19  C   UNL d   1      32.525  17.338 -24.109  0.00  0.00     0.018 A 
ATOM     20  C   UNL d   1      32.346  16.806 -23.501  0.00  0.00     0.002 A 
ATOM     21  C   UNL d   1      31.648  16.361 -23.546  0.00  0.00     0.000 A 
ATOM     22  C   UNL d   1      31.151  16.451 -24.183  0.00  0.00     0.000 A 
ATOM     23  C   UNL d   1      31.332  16.973 -24.776  0.00  0.00     0.000 A 
ATOM     24  C   UNL d   1      32.024  17.423 -24.742  0.00  0.00     0.002 A 
ENDBRANCH  18  19
ENDBRANCH  15  18
ENDBRANCH   3  12
BRANCH   5  25
ATOM     25  C   UNL d   1      32.706  22.482 -20.625  0.00  0.00     0.004 A 
ATOM     26  C   UNL d   1      32.093  23.028 -20.702  0.00  0.00     0.000 A 
ATOM     27  C   UNL d   1      32.009  23.636 -20.156  0.00  0.00     0.000 A 
ATOM     28  C   UNL d   1      32.544  23.702 -19.523  0.00  0.00     0.000 A 
ATOM     29  C   UNL d   1      33.157  23.157 -19.446  0.00  0.00     0.000 A 
ATOM     30  C   UNL d   1      33.241  22.545 -19.995  0.00  0.00     0.000 A 
ENDBRANCH   5  25
TORSDOF 4
ENDMDL
MODEL 2
REMARK VINA RESULT:      -1.8      1.717      5.898
REMARK  4 active torsions:
REMARK  status: ('A' for Active; 'I' for Inactive)
REMARK    1  A    between atoms: N_9  and  C_3 
REMARK    2  A    between atoms: C_12  and  C_5 
REMARK    3  A    between atoms: C_15  and  N_11 
REMARK    4  A    between atoms: C_19  and  C_15 
ROOT
ATOM      1  N   UNL d   1      31.081  17.635 -23.702  0.00  0.00    -0.196 N 
ATOM      2  C   UNL d   1      30.746  16.938 -23.988  0.00  0.00     0.167 A 
ATOM      3  C   UNL d   1      31.898  17.726 -23.691  0.00  0.00     0.152 A 
ATOM      4  N   UNL d   1      30.471  18.129 -23.470  0.00  0.00    -0.163 NA
ATOM      5  C   UNL d   1      29.930  17.002 -23.933  0.00  0.00     0.055 A 
ATOM      6  C   UNL d   1      29.757  17.736 -23.613  0.00  0.00     0.104 A 
ATOM      7  N   UNL d   1      31.229  16.332 -24.264  0.00  0.00    -0.227 NA
ATOM      8  C   UNL d   1      32.389  17.117 -23.969  0.00  0.00     0.057 A 
ATOM      9  C   UNL d   1      32.054  16.419 -24.255  0.00  0.00     0.086 A 
ATOM     10  C   UNL d   1      29.002  18.032 -23.460  0.00  0.00     0.023 C 
ATOM     11  C   UNL d   1      32.536  15.801 -24.536  0.00  0.00     0.021 C 
ENDROOT
BRANCH   3  12
ATOM     12  N   UNL d   1      32.233  18.423 -23.405  0.00  0.00    -0.286 N 
ATOM     13  C   UNL d   1      32.497  18.467 -22.634  0.00  0.00     0.101 A 
ATOM     14  C   UNL d   1      32.833  19.169 -22.350  0.00  0.00     0.100 A 
ATOM     15  N   UNL d   1      32.900  19.808 -22.830  0.00  0.00    -0.300 N 
ATOM     16  C   UNL d   1      32.633  19.765 -23.614  0.00  0.00     0.100 A 
ATOM     17  C   UNL d   1      32.303  19.079 -23.896  0.00  0.00     0.101 A 
BRANCH  15  18
ATOM     18  C   UNL d   1      33.241  20.503 -22.524  0.00  0.00     0.080 C 
BRANCH  18  19
ATOM     19  C   UNL d   1      32.856  20.913 -21.919  0.00  0.00     0.018 A 
ATOM     20  C   UNL d   1      32.808  20.586 -21.161  0.00  0.00     0.002 A 
ATOM     21  C   UNL d   1      32.419  21.008 -20.563  0.00  0.00     0.000 A 
ATOM     22  C   UNL d   1      32.091  21.733 -20.727  0.00  0.00     0.000 A 
ATOM     23  C   UNL d   1      32.142  22.049 -21.471  0.00  0.00     0.000 A 
ATOM     24  C   UNL d   1      32.526  21.639 -22.076  0.00  0.00     0.002 A 
ENDBRANCH  18  19
ENDBRANCH  15  18
ENDBRANCH   3  12
BRANCH   5  25
ATOM     25  C   UNL d   1      29.315  16.487 -24.132  0.00  0.00     0.004 A 
ATOM     26  C   UNL d   1      29.011  16.480 -24.898  0.00  0.00     0.000 A 
ATOM     27  C   UNL d   1      28.399  15.968 -25.097  0.00  0.00     0.000 A 
ATOM     28  C   UNL d   1      28.085  15.454 -24.523  0.00  0.00     0.000 A 
ATOM     29  C   UNL d   1      28.389  15.461 -23.757  0.00  0.00     0.000 A 
ATOM     30  C   UNL d   1      29.003  15.976 -23.558  0.00  0.00     0.000 A 
ENDBRANCH   5  25
TORSDOF 4
ENDMDL
