MODEL 1
REMARK VINA RESULT:      -4.8      0.000      0.000
REMARK  6 active torsions:
REMARK  status: ('A' for Active; 'I' for Inactive)
REMARK    1  A    between atoms: C_9  and  N_2 
REMARK    2  A    between atoms: O_11  and  C_7 
REMARK    3  A    between atoms: C_8  and  O_10 
REMARK    4  A    between atoms: C_12  and  C_9 
REMARK    5  A    between atoms: O_10  and  C_15 
REMARK    6  A    between atoms: C_15  and  C_12 
ROOT
ATOM      1  C   UNL d   1     -41.855-122.249 -51.003  0.00  0.00     0.087 C 
ENDROOT
BRANCH   1   2
ATOM      2  N   UNL d   1     -42.314-122.413 -50.338  0.00  0.00    -0.251 N 
ATOM      3  C   UNL d   1     -43.122-122.261 -50.208  0.00  0.00     0.378 A 
ATOM      4  O   UNL d   1     -43.316-122.534 -49.448  0.00  0.00    -0.258 OA
ATOM      5  O   UNL d   1     -43.630-121.903 -50.745  0.00  0.00    -0.237 OA
ATOM      6  C   UNL d   1     -42.636-122.852 -49.110  0.00  0.00     0.121 A 
ATOM      7  C   UNL d   1     -42.486-123.204 -48.372  0.00  0.00     0.026 A 
ATOM      8  C   UNL d   1     -42.015-122.779 -49.658  0.00  0.00     0.092 A 
ATOM      9  C   UNL d   1     -41.735-123.475 -48.187  0.00  0.00     0.002 A 
ATOM     10  C   UNL d   1     -41.123-123.401 -48.732  0.00  0.00     0.002 A 
ATOM     11  C   UNL d   1     -41.258-123.054 -49.468  0.00  0.00     0.020 A 
ENDBRANCH   1   2
BRANCH   1  12
ATOM     12  C   UNL d   1     -41.621-122.856 -51.497  0.00  0.00     0.046 C 
BRANCH  12  13
ATOM     13  C   UNL d   1     -41.240-122.684 -52.208  0.00  0.00     0.124 C 
BRANCH  13  14
ATOM     14  O   UNL d   1     -41.673-122.394 -52.849  0.00  0.00    -0.303 OA
BRANCH  14  15
ATOM     15  C   UNL d   1     -41.591-122.740 -53.593  0.00  0.00     0.122 A 
ATOM     16  C   UNL d   1     -41.891-122.359 -54.261  0.00  0.00     0.117 A 
ATOM     17  C   UNL d   1     -41.811-122.700 -55.006  0.00  0.00     0.026 A 
ATOM     18  C   UNL d   1     -41.427-123.433 -55.083  0.00  0.00     0.002 A 
ATOM     19  C   UNL d   1     -41.127-123.816 -54.420  0.00  0.00     0.002 A 
ATOM     20  C   UNL d   1     -41.209-123.469 -53.676  0.00  0.00     0.027 A 
BRANCH  16  21
ATOM     21  O   UNL d   1     -42.273-121.629 -54.179  0.00  0.00    -0.326 OA
ATOM     22  C   UNL d   1     -42.714-121.326 -54.810  0.00  0.00     0.181 C 
ENDBRANCH  16  21
ENDBRANCH  14  15
ENDBRANCH  13  14
ENDBRANCH  12  13
ENDBRANCH   1  12
TORSDOF 6
ENDMDL
MODEL 2
REMARK VINA RESULT:      -4.8      1.110      4.920
REMARK  6 active torsions:
REMARK  status: ('A' for Active; 'I' for Inactive)
REMARK    1  A    between atoms: C_9  and  N_2 
REMARK    2  A    between atoms: O_11  and  C_7 
REMARK    3  A    between atoms: C_8  and  O_10 
REMARK    4  A    between atoms: C_12  and  C_9 
REMARK    5  A    between atoms: O_10  and  C_15 
REMARK    6  A    between atoms: C_15  and  C_12 
ROOT
ATOM      1  C   UNL d   1     -41.933-122.207 -52.672  0.00  0.00     0.087 C 
ENDROOT
BRANCH   1   2
ATOM      2  N   UNL d   1     -41.762-122.566 -53.394  0.00  0.00    -0.251 N 
ATOM      3  C   UNL d   1     -41.395-123.298 -53.542  0.00  0.00     0.378 A 
ATOM      4  O   UNL d   1     -41.352-123.404 -54.364  0.00  0.00    -0.258 OA
ATOM      5  O   UNL d   1     -41.124-123.817 -52.966  0.00  0.00    -0.237 OA
ATOM      6  C   UNL d   1     -41.691-122.744 -54.723  0.00  0.00     0.121 A 
ATOM      7  C   UNL d   1     -41.807-122.535 -55.520  0.00  0.00     0.026 A 
ATOM      8  C   UNL d   1     -41.944-122.225 -54.126  0.00  0.00     0.092 A 
ATOM      9  C   UNL d   1     -42.169-121.825 -55.714  0.00  0.00     0.002 A 
ATOM     10  C   UNL d   1     -42.418-121.314 -55.119  0.00  0.00     0.002 A 
ATOM     11  C   UNL d   1     -42.309-121.509 -54.325  0.00  0.00     0.020 A 
ENDBRANCH   1   2
BRANCH   1  12
ATOM     12  C   UNL d   1     -41.388-122.234 -52.064  0.00  0.00     0.046 C 
BRANCH  12  13
ATOM     13  C   UNL d   1     -41.624-122.065 -51.292  0.00  0.00     0.124 C 
BRANCH  13  14
ATOM     14  O   UNL d   1     -42.151-122.567 -50.901  0.00  0.00    -0.303 OA
BRANCH  14  15
ATOM     15  C   UNL d   1     -42.010-122.786 -50.119  0.00  0.00     0.122 A 
ATOM     16  C   UNL d   1     -42.611-123.135 -49.674  0.00  0.00     0.117 A 
ATOM     17  C   UNL d   1     -42.475-123.355 -48.892  0.00  0.00     0.026 A 
ATOM     18  C   UNL d   1     -41.728-123.224 -48.553  0.00  0.00     0.002 A 
ATOM     19  C   UNL d   1     -41.128-122.876 -48.993  0.00  0.00     0.002 A 
ATOM     20  C   UNL d   1     -41.269-122.658 -49.775  0.00  0.00     0.027 A 
BRANCH  16  21
ATOM     21  O   UNL d   1     -43.353-123.264 -50.017  0.00  0.00    -0.326 OA
ATOM     22  C   UNL d   1     -43.886-123.784 -49.655  0.00  0.00     0.181 C 
ENDBRANCH  16  21
ENDBRANCH  14  15
ENDBRANCH  13  14
ENDBRANCH  12  13
ENDBRANCH   1  12
TORSDOF 6
ENDMDL
