MODEL 1
REMARK VINA RESULT:      80.2      0.000      0.000
REMARK  6 active torsions:
REMARK  status: ('A' for Active; 'I' for Inactive)
REMARK    1  A    between atoms: N_15  and  C_1 
REMARK    2  A    between atoms: C_21  and  N_6 
REMARK    3  A    between atoms: C_16  and  C_8 
REMARK    4  A    between atoms: C_9  and  S_17 
REMARK       I    between atoms: C_20  and  N_15 
REMARK    5  A    between atoms: S_17  and  C_23 
REMARK    6  A    between atoms: C_23  and  C_20 
ROOT
ATOM      1  C   UNL d   1     -48.886  27.420  34.209  0.00  0.00     0.099 C 
ENDROOT
BRANCH   1   2
ATOM      2  S   UNL d   1     -49.464  27.330  33.544  0.00  0.00    -0.064 SA
BRANCH   2   3
ATOM      3  C   UNL d   1     -50.273  27.047  33.483  0.00  0.00     0.096 A 
ATOM      4  N   UNL d   1     -50.417  26.238  33.442  0.00  0.00    -0.285 N 
ATOM      5  C   UNL d   1     -51.210  25.960  33.382  0.00  0.00     0.150 A 
ATOM      6  C   UNL d   1     -49.946  24.871  33.415  0.00  0.00     0.084 A 
ATOM      7  N   UNL d   1     -51.364  25.141  33.339  0.00  0.00    -0.227 NA
ATOM      8  C   UNL d   1     -51.832  26.500  33.366  0.00  0.00     0.056 A 
ATOM      9  C   UNL d   1     -50.738  24.593  33.356  0.00  0.00     0.099 A 
ATOM     10  C   UNL d   1     -50.883  23.783  33.314  0.00  0.00     0.021 A 
ATOM     11  C   UNL d   1     -50.259  23.243  33.330  0.00  0.00     0.002 A 
ATOM     12  C   UNL d   1     -49.480  23.517  33.389  0.00  0.00     0.002 A 
ATOM     13  C   UNL d   1     -49.323  24.330  33.432  0.00  0.00     0.019 A 
ATOM     14  C   UNL d   1     -51.679  27.322  33.408  0.00  0.00     0.006 A 
ATOM     15  C   UNL d   1     -50.897  27.588  33.467  0.00  0.00     0.025 A 
ATOM     16  C   UNL d   1     -52.299  27.855  33.392  0.00  0.00     0.000 C 
BRANCH   8  17
ATOM     17  C   UNL d   1     -52.614  26.235  33.307  0.00  0.00     0.125 C 
ATOM     18  N   UNL d   1     -52.742  25.419  33.367  0.00  0.00    -0.146 N 
ENDBRANCH   8  17
ENDBRANCH   2   3
ENDBRANCH   1   2
BRANCH   1  19
ATOM     19  C   UNL d   1     -48.448  28.176  34.302  0.00  0.00     0.286 C 
ATOM     20  N   UNL d   1     -48.729  28.776  34.887  0.00  0.00    -0.201 NA
ATOM     21  O   UNL d   1     -47.730  28.343  33.817  0.00  0.00    -0.265 OA
BRANCH  20  22
ATOM     22  C   UNL d   1     -48.292  29.540  34.985  0.00  0.00     0.160 A 
ATOM     23  C   UNL d   1     -48.294  30.251  34.600  0.00  0.00     0.298 A 
ATOM     24  N   UNL d   1     -47.803  30.843  34.853  0.00  0.00    -0.209 N 
ATOM     25  O   UNL d   1     -48.779  30.366  33.974  0.00  0.00    -0.263 OA
ATOM     26  N   UNL d   1     -47.317  30.732  35.480  0.00  0.00    -0.238 N 
ATOM     27  C   UNL d   1     -47.317  30.018  35.864  0.00  0.00     0.104 A 
ATOM     28  C   UNL d   1     -46.831  31.319  35.730  0.00  0.00     0.120 C 
ATOM     29  C   UNL d   1     -46.880  29.686  36.551  0.00  0.00     0.022 C 
BRANCH  24  30
ATOM     30  C   UNL d   1     -47.806  31.555  34.467  0.00  0.00     0.085 A 
ATOM     31  C   UNL d   1     -47.109  31.925  34.314  0.00  0.00     0.019 A 
ATOM     32  C   UNL d   1     -47.112  32.636  33.928  0.00  0.00     0.002 A 
ATOM     33  C   UNL d   1     -47.817  32.964  33.703  0.00  0.00     0.000 A 
ATOM     34  C   UNL d   1     -48.502  32.580  33.864  0.00  0.00     0.002 A 
ATOM     35  C   UNL d   1     -48.495  31.876  34.247  0.00  0.00     0.019 A 
ENDBRANCH  24  30
ENDBRANCH  20  22
ENDBRANCH   1  19
TORSDOF 6
ENDMDL
MODEL 2
REMARK VINA RESULT:      82.0      1.072      2.231
REMARK  6 active torsions:
REMARK  status: ('A' for Active; 'I' for Inactive)
REMARK    1  A    between atoms: N_15  and  C_1 
REMARK    2  A    between atoms: C_21  and  N_6 
REMARK    3  A    between atoms: C_16  and  C_8 
REMARK    4  A    between atoms: C_9  and  S_17 
REMARK       I    between atoms: C_20  and  N_15 
REMARK    5  A    between atoms: S_17  and  C_23 
REMARK    6  A    between atoms: C_23  and  C_20 
ROOT
ATOM      1  C   UNL d   1     -50.299  27.519  33.932  0.00  0.00     0.099 C 
ENDROOT
BRANCH   1   2
ATOM      2  S   UNL d   1     -50.202  26.899  33.307  0.00  0.00    -0.064 SA
BRANCH   2   3
ATOM      3  C   UNL d   1     -50.140  26.042  33.313  0.00  0.00     0.096 A 
ATOM      4  N   UNL d   1     -50.826  25.586  33.325  0.00  0.00    -0.285 N 
ATOM      5  C   UNL d   1     -50.765  24.746  33.331  0.00  0.00     0.150 A 
ATOM      6  C   UNL d   1     -52.267  25.473  33.343  0.00  0.00     0.084 A 
ATOM      7  N   UNL d   1     -51.455  24.277  33.343  0.00  0.00    -0.227 NA
ATOM      8  C   UNL d   1     -50.022  24.390  33.325  0.00  0.00     0.056 A 
ATOM      9  C   UNL d   1     -52.207  24.634  33.349  0.00  0.00     0.099 A 
ATOM     10  C   UNL d   1     -52.893  24.178  33.361  0.00  0.00     0.021 A 
ATOM     11  C   UNL d   1     -53.637  24.535  33.367  0.00  0.00     0.002 A 
ATOM     12  C   UNL d   1     -53.695  25.361  33.361  0.00  0.00     0.002 A 
ATOM     13  C   UNL d   1     -53.011  25.830  33.349  0.00  0.00     0.019 A 
ATOM     14  C   UNL d   1     -49.329  24.859  33.313  0.00  0.00     0.006 A 
ATOM     15  C   UNL d   1     -49.396  25.684  33.307  0.00  0.00     0.025 A 
ATOM     16  C   UNL d   1     -48.594  24.502  33.307  0.00  0.00     0.000 C 
BRANCH   8  17
ATOM     17  C   UNL d   1     -49.954  23.565  33.330  0.00  0.00     0.125 C 
ATOM     18  N   UNL d   1     -49.287  23.244  33.703  0.00  0.00    -0.146 N 
ENDBRANCH   8  17
ENDBRANCH   2   3
ENDBRANCH   1   2
BRANCH   1  19
ATOM     19  C   UNL d   1     -49.601  27.986  34.190  0.00  0.00     0.286 C 
ATOM     20  N   UNL d   1     -49.626  28.868  34.150  0.00  0.00    -0.201 NA
ATOM     21  O   UNL d   1     -48.875  27.582  34.488  0.00  0.00    -0.265 OA
BRANCH  20  22
ATOM     22  C   UNL d   1     -48.925  29.344  34.409  0.00  0.00     0.160 A 
ATOM     23  C   UNL d   1     -48.716  30.124  34.359  0.00  0.00     0.298 A 
ATOM     24  N   UNL d   1     -48.008  30.368  34.667  0.00  0.00    -0.209 N 
ATOM     25  O   UNL d   1     -49.207  30.648  34.007  0.00  0.00    -0.263 OA
ATOM     26  N   UNL d   1     -47.514  29.846  35.020  0.00  0.00    -0.238 N 
ATOM     27  C   UNL d   1     -47.726  29.065  35.069  0.00  0.00     0.104 A 
ATOM     28  C   UNL d   1     -46.813  30.088  35.326  0.00  0.00     0.120 C 
ATOM     29  C   UNL d   1     -47.351  28.343  35.403  0.00  0.00     0.022 C 
BRANCH  24  30
ATOM     30  C   UNL d   1     -47.800  31.148  34.616  0.00  0.00     0.085 A 
ATOM     31  C   UNL d   1     -48.168  31.623  34.081  0.00  0.00     0.019 A 
ATOM     32  C   UNL d   1     -47.959  32.403  34.031  0.00  0.00     0.002 A 
ATOM     33  C   UNL d   1     -47.383  32.694  34.520  0.00  0.00     0.000 A 
ATOM     34  C   UNL d   1     -47.027  32.205  35.048  0.00  0.00     0.002 A 
ATOM     35  C   UNL d   1     -47.236  31.434  35.094  0.00  0.00     0.019 A 
ENDBRANCH  24  30
ENDBRANCH  20  22
ENDBRANCH   1  19
TORSDOF 6
ENDMDL
