MODEL 1
REMARK VINA RESULT:      27.1      0.000      0.000
REMARK  3 active torsions:
REMARK  status: ('A' for Active; 'I' for Inactive)
REMARK    1  A    between atoms: N_2  and  S_1 
REMARK    2  A    between atoms: C_3  and  S_1 
REMARK    3  A    between atoms: O_17  and  C_11 
ROOT
ATOM      1  S   UNL d   1      46.113 -17.253  43.886  0.00  0.00     0.274 S 
ATOM      2  O   UNL d   1      45.712 -17.171  43.146  0.00  0.00    -0.199 OA
ATOM      3  O   UNL d   1      46.510 -17.310  44.623  0.00  0.00    -0.199 OA
ENDROOT
BRANCH   1   4
ATOM      4  N   UNL d   1      46.063 -16.427  43.992  0.00  0.00    -0.212 N 
ATOM      5  C   UNL d   1      46.647 -15.905  43.767  0.00  0.00     0.193 A 
ATOM      6  N   UNL d   1      46.362 -15.123  43.980  0.00  0.00    -0.223 NA
ATOM      7  C   UNL d   1      45.625 -15.205  44.321  0.00  0.00     0.100 A 
ATOM      8  C   UNL d   1      45.430 -16.031  44.331  0.00  0.00     0.094 A 
ATOM      9  C   UNL d   1      45.090 -14.655  44.629  0.00  0.00     0.021 A 
ATOM     10  C   UNL d   1      44.709 -16.271  44.649  0.00  0.00     0.020 A 
ATOM     11  C   UNL d   1      44.182 -15.715  44.955  0.00  0.00     0.002 A 
ATOM     12  C   UNL d   1      44.357 -14.912  44.951  0.00  0.00     0.002 A 
ENDBRANCH   1   4
BRANCH   1  13
ATOM     13  C   UNL d   1      46.162 -18.110  43.768  0.00  0.00     0.127 A 
ATOM     14  C   UNL d   1      46.205 -18.591  44.420  0.00  0.00     0.026 A 
ATOM     15  C   UNL d   1      46.252 -19.422  44.280  0.00  0.00     0.059 A 
ATOM     16 CL   UNL d   1      46.298 -19.929  44.955  0.00  0.00    -0.082 Cl
ATOM     17  C   UNL d   1      46.253 -19.729  43.517  0.00  0.00     0.013 A 
ATOM     18  C   UNL d   1      46.206 -19.204  42.864  0.00  0.00     0.026 A 
ATOM     19  C   UNL d   1      46.161 -18.395  42.996  0.00  0.00     0.106 A 
BRANCH  19  20
ATOM     20  O   UNL d   1      46.115 -17.888  42.322  0.00  0.00    -0.327 OA
ATOM     21  C   UNL d   1      46.272 -18.148  41.570  0.00  0.00     0.181 C 
ENDBRANCH  19  20
ENDBRANCH   1  13
TORSDOF 3
ENDMDL
MODEL 2
REMARK VINA RESULT:      28.7      1.279      1.970
REMARK  3 active torsions:
REMARK  status: ('A' for Active; 'I' for Inactive)
REMARK    1  A    between atoms: N_2  and  S_1 
REMARK    2  A    between atoms: C_3  and  S_1 
REMARK    3  A    between atoms: O_17  and  C_11 
ROOT
ATOM      1  S   UNL d   1      45.848 -16.828  43.669  0.00  0.00     0.274 S 
ATOM      2  O   UNL d   1      46.247 -16.328  43.117  0.00  0.00    -0.199 OA
ATOM      3  O   UNL d   1      45.445 -17.306  44.230  0.00  0.00    -0.199 OA
ENDROOT
BRANCH   1   4
ATOM      4  N   UNL d   1      45.589 -16.151  44.080  0.00  0.00    -0.212 N 
ATOM      5  C   UNL d   1      45.070 -16.173  44.708  0.00  0.00     0.193 A 
ATOM      6  N   UNL d   1      44.960 -15.357  44.955  0.00  0.00    -0.223 NA
ATOM      7  C   UNL d   1      45.414 -14.881  44.470  0.00  0.00     0.100 A 
ATOM      8  C   UNL d   1      45.814 -15.381  43.913  0.00  0.00     0.094 A 
ATOM      9  C   UNL d   1      45.529 -14.064  44.443  0.00  0.00     0.021 A 
ATOM     10  C   UNL d   1      46.313 -15.039  43.353  0.00  0.00     0.020 A 
ATOM     11  C   UNL d   1      46.423 -14.222  43.334  0.00  0.00     0.002 A 
ATOM     12  C   UNL d   1      46.041 -13.727  43.867  0.00  0.00     0.002 A 
ENDBRANCH   1   4
BRANCH   1  13
ATOM     13  C   UNL d   1      46.122 -17.528  43.237  0.00  0.00     0.127 A 
ATOM     14  C   UNL d   1      46.121 -17.511  42.427  0.00  0.00     0.026 A 
ATOM     15  C   UNL d   1      46.392 -18.205  42.029  0.00  0.00     0.059 A 
ATOM     16 CL   UNL d   1      46.394 -18.193  41.184  0.00  0.00    -0.082 Cl
ATOM     17  C   UNL d   1      46.645 -18.867  42.446  0.00  0.00     0.013 A 
ATOM     18  C   UNL d   1      46.633 -18.852  43.284  0.00  0.00     0.026 A 
ATOM     19  C   UNL d   1      46.370 -18.179  43.675  0.00  0.00     0.106 A 
BRANCH  19  20
ATOM     20  O   UNL d   1      46.368 -18.191  44.520  0.00  0.00    -0.327 OA
ATOM     21  C   UNL d   1      46.468 -18.873  44.947  0.00  0.00     0.181 C 
ENDBRANCH  19  20
ENDBRANCH   1  13
TORSDOF 3
ENDMDL
