MODEL 1
REMARK VINA RESULT:      50.2      0.000      0.000
REMARK  4 active torsions:
REMARK  status: ('A' for Active; 'I' for Inactive)
REMARK       I    between atoms: C_6  and  N_7 
REMARK    1  A    between atoms: C_8  and  C_6 
REMARK    2  A    between atoms: N_7  and  C_14 
REMARK    3  A    between atoms: C_14  and  C_13 
REMARK    4  A    between atoms: O_17  and  C_15 
ROOT
ATOM      1  C   UNL d   1     -57.172 -99.746 -44.790  0.00  0.00     0.279 C 
ATOM      2  N   UNL d   1     -57.398 -98.970 -44.639  0.00  0.00    -0.206 NA
ATOM      3  O   UNL d   1     -57.747-100.317 -44.948  0.00  0.00    -0.265 OA
ENDROOT
BRANCH   2   4
ATOM      4  C   UNL d   1     -58.193 -98.757 -44.645  0.00  0.00     0.102 C 
BRANCH   4   5
ATOM      5  C   UNL d   1     -58.665 -98.897 -43.982  0.00  0.00     0.019 A 
ATOM      6  C   UNL d   1     -59.437 -99.173 -44.071  0.00  0.00     0.003 A 
ATOM      7  C   UNL d   1     -59.905 -99.311 -43.399  0.00  0.00     0.019 A 
ATOM      8  C   UNL d   1     -59.601 -99.172 -42.646  0.00  0.00     0.081 A 
ATOM      9  C   UNL d   1     -58.829 -98.896 -42.558  0.00  0.00     0.019 A 
ATOM     10  N   UNL d   1     -59.936 -99.260 -41.901  0.00  0.00    -0.246 NA
ATOM     11  C   UNL d   1     -58.361 -98.757 -43.221  0.00  0.00     0.003 A 
ATOM     12  C   UNL d   1     -58.686 -98.811 -41.749  0.00  0.00     0.021 A 
ATOM     13  C   UNL d   1     -59.367 -99.036 -41.345  0.00  0.00     0.082 A 
ATOM     14  C   UNL d   1     -59.467 -99.037 -40.525  0.00  0.00     0.021 C 
ENDBRANCH   4   5
ENDBRANCH   2   4
BRANCH   1  15
ATOM     15  C   UNL d   1     -56.375 -99.950 -44.783  0.00  0.00     0.060 A 
ATOM     16  C   UNL d   1     -56.146-100.716 -44.580  0.00  0.00     0.029 A 
ATOM     17  C   UNL d   1     -55.350-100.918 -44.573  0.00  0.00     0.094 A 
ATOM     18  C   UNL d   1     -54.772-100.346 -44.773  0.00  0.00     0.024 A 
ATOM     19  C   UNL d   1     -55.000 -99.580 -44.977  0.00  0.00     0.002 A 
ATOM     20  C   UNL d   1     -55.809 -99.377 -44.983  0.00  0.00     0.005 A 
BRANCH  17  21
ATOM     21  O   UNL d   1     -55.114-101.686 -44.369  0.00  0.00    -0.328 OA
ATOM     22  C   UNL d   1     -54.832-101.850 -43.609  0.00  0.00     0.181 C 
ENDBRANCH  17  21
ENDBRANCH   1  15
TORSDOF 4
ENDMDL
MODEL 2
REMARK VINA RESULT:      51.3      1.938      4.219
REMARK  4 active torsions:
REMARK  status: ('A' for Active; 'I' for Inactive)
REMARK       I    between atoms: C_6  and  N_7 
REMARK    1  A    between atoms: C_8  and  C_6 
REMARK    2  A    between atoms: N_7  and  C_14 
REMARK    3  A    between atoms: C_14  and  C_13 
REMARK    4  A    between atoms: O_17  and  C_15 
ROOT
ATOM      1  C   UNL d   1     -55.826 -99.940 -44.547  0.00  0.00     0.279 C 
ATOM      2  N   UNL d   1     -55.650-100.661 -44.902  0.00  0.00    -0.206 NA
ATOM      3  O   UNL d   1     -55.300 -99.612 -44.004  0.00  0.00    -0.265 OA
ENDROOT
BRANCH   2   4
ATOM      4  C   UNL d   1     -54.953-101.058 -44.719  0.00  0.00     0.102 C 
BRANCH   4   5
ATOM      5  C   UNL d   1     -54.890-101.484 -44.015  0.00  0.00     0.019 A 
ATOM      6  C   UNL d   1     -54.820-102.306 -44.031  0.00  0.00     0.003 A 
ATOM      7  C   UNL d   1     -54.757-102.728 -43.318  0.00  0.00     0.019 A 
ATOM      8  C   UNL d   1     -54.764-102.328 -42.598  0.00  0.00     0.081 A 
ATOM      9  C   UNL d   1     -54.833-101.506 -42.583  0.00  0.00     0.019 A 
ATOM     10  N   UNL d   1     -54.711-102.601 -41.824  0.00  0.00    -0.246 NA
ATOM     11  C   UNL d   1     -54.896-101.084 -43.287  0.00  0.00     0.003 A 
ATOM     12  C   UNL d   1     -54.824-101.269 -41.792  0.00  0.00     0.021 A 
ATOM     13  C   UNL d   1     -54.748-101.944 -41.325  0.00  0.00     0.082 A 
ATOM     14  C   UNL d   1     -54.716-101.961 -40.500  0.00  0.00     0.021 C 
ENDBRANCH   4   5
ENDBRANCH   2   4
BRANCH   1  15
ATOM     15  C   UNL d   1     -56.526 -99.549 -44.736  0.00  0.00     0.060 A 
ATOM     16  C   UNL d   1     -57.155 -99.548 -44.202  0.00  0.00     0.029 A 
ATOM     17  C   UNL d   1     -57.852 -99.158 -44.392  0.00  0.00     0.094 A 
ATOM     18  C   UNL d   1     -57.923 -98.762 -45.128  0.00  0.00     0.024 A 
ATOM     19  C   UNL d   1     -57.294 -98.763 -45.662  0.00  0.00     0.002 A 
ATOM     20  C   UNL d   1     -56.587 -99.160 -45.466  0.00  0.00     0.005 A 
BRANCH  17  21
ATOM     21  O   UNL d   1     -58.488 -99.152 -43.861  0.00  0.00    -0.328 OA
ATOM     22  C   UNL d   1     -59.257 -99.300 -44.126  0.00  0.00     0.181 C 
ENDBRANCH  17  21
ENDBRANCH   1  15
TORSDOF 4
ENDMDL
