MODEL 1
REMARK VINA RESULT:      -2.5      0.000      0.000
REMARK  9 active torsions:
REMARK  status: ('A' for Active; 'I' for Inactive)
REMARK    1  A    between atoms: C_21  and  N_1 
REMARK    2  A    between atoms: S_7  and  C_2 
REMARK       I    between atoms: C_6  and  N_18 
REMARK    3  A    between atoms: C_15  and  C_6 
REMARK    4  A    between atoms: C_19  and  S_7 
REMARK    5  A    between atoms: C_8  and  C_19 
REMARK       I    between atoms: N_11  and  C_8 
REMARK    6  A    between atoms: C_9  and  C_20 
REMARK    7  A    between atoms: C_20  and  N_11 
REMARK    8  A    between atoms: N_18  and  C_23 
REMARK    9  A    between atoms: C_23  and  C_21 
ROOT
ATOM      1  N   UNL d   1      33.155  19.649 -22.651  0.00  0.00    -0.302 N 
ATOM      2  C   UNL d   1      32.992  18.383 -23.057  0.00  0.00     0.049 A 
ATOM      3  C   UNL d   1      33.050  18.859 -22.391  0.00  0.00     0.087 A 
ATOM      4  C   UNL d   1      33.058  18.863 -23.732  0.00  0.00     0.024 A 
ATOM      5  C   UNL d   1      33.159  19.643 -23.478  0.00  0.00     0.065 A 
ATOM      6  C   UNL d   1      33.039  18.682 -24.534  0.00  0.00     0.002 A 
ATOM      7  C   UNL d   1      33.241  20.241 -24.034  0.00  0.00     0.018 A 
ATOM      8  C   UNL d   1      33.122  19.288 -25.089  0.00  0.00     0.000 A 
ATOM      9  C   UNL d   1      33.223  20.068 -24.843  0.00  0.00     0.002 A 
ENDROOT
BRANCH   1  10
ATOM     10  C   UNL d   1      33.240  20.315 -22.174  0.00  0.00     0.101 C 
BRANCH  10  11
ATOM     11  C   UNL d   1      32.763  20.410 -21.506  0.00  0.00     0.121 C 
BRANCH  11  12
ATOM     12  N   UNL d   1      32.865  21.074 -21.018  0.00  0.00    -0.205 NA
ATOM     13  C   UNL d   1      32.203  21.454 -20.694  0.00  0.00     0.279 C 
ATOM     14  O   UNL d   1      31.439  21.169 -20.860  0.00  0.00    -0.265 OA
BRANCH  13  15
ATOM     15  C   UNL d   1      32.305  22.113 -20.210  0.00  0.00     0.058 A 
ATOM     16  C   UNL d   1      32.350  22.855 -20.531  0.00  0.00     0.005 A 
ATOM     17  C   UNL d   1      32.452  23.526 -20.061  0.00  0.00     0.000 A 
ATOM     18  C   UNL d   1      32.510  23.442 -19.240  0.00  0.00     0.000 A 
ATOM     19  C   UNL d   1      32.465  22.682 -18.901  0.00  0.00     0.000 A 
ATOM     20  C   UNL d   1      32.363  22.019 -19.387  0.00  0.00     0.005 A 
ENDBRANCH  13  15
ENDBRANCH  11  12
ENDBRANCH  10  11
ENDBRANCH   1  10
BRANCH   2  21
ATOM     21  S   UNL d   1      32.884  17.562 -23.059  0.00  0.00    -0.080 SA
BRANCH  21  22
ATOM     22  C   UNL d   1      32.118  17.251 -23.059  0.00  0.00     0.098 C 
BRANCH  22  23
ATOM     23  C   UNL d   1      31.996  16.441 -23.016  0.00  0.00     0.286 C 
ATOM     24  N   UNL d   1      31.257  16.116 -23.164  0.00  0.00    -0.204 NA
ATOM     25  O   UNL d   1      32.628  15.946 -22.819  0.00  0.00    -0.265 OA
BRANCH  24  26
ATOM     26  C   UNL d   1      30.633  16.610 -23.359  0.00  0.00     0.127 C 
BRANCH  26  27
ATOM     27  C   UNL d   1      29.910  16.286 -23.592  0.00  0.00     0.119 A 
ATOM     28  O   UNL d   1      29.643  16.219 -24.363  0.00  0.00    -0.304 OA
ATOM     29  C   UNL d   1      28.901  15.866 -24.344  0.00  0.00     0.123 A 
ATOM     30  C   UNL d   1      28.711  15.716 -23.566  0.00  0.00     0.029 A 
ATOM     31  C   UNL d   1      29.333  15.974 -23.099  0.00  0.00     0.028 A 
ENDBRANCH  26  27
ENDBRANCH  24  26
ENDBRANCH  22  23
ENDBRANCH  21  22
ENDBRANCH   2  21
TORSDOF 9
ENDMDL
MODEL 2
REMARK VINA RESULT:       0.3      1.057      5.784
REMARK  9 active torsions:
REMARK  status: ('A' for Active; 'I' for Inactive)
REMARK    1  A    between atoms: C_21  and  N_1 
REMARK    2  A    between atoms: S_7  and  C_2 
REMARK       I    between atoms: C_6  and  N_18 
REMARK    3  A    between atoms: C_15  and  C_6 
REMARK    4  A    between atoms: C_19  and  S_7 
REMARK    5  A    between atoms: C_8  and  C_19 
REMARK       I    between atoms: N_11  and  C_8 
REMARK    6  A    between atoms: C_9  and  C_20 
REMARK    7  A    between atoms: C_20  and  N_11 
REMARK    8  A    between atoms: N_18  and  C_23 
REMARK    9  A    between atoms: C_23  and  C_21 
ROOT
ATOM      1  N   UNL d   1      32.655  17.992 -23.486  0.00  0.00    -0.302 N 
ATOM      2  C   UNL d   1      33.039  18.990 -22.680  0.00  0.00     0.049 A 
ATOM      3  C   UNL d   1      32.799  18.205 -22.689  0.00  0.00     0.087 A 
ATOM      4  C   UNL d   1      33.047  19.273 -23.462  0.00  0.00     0.024 A 
ATOM      5  C   UNL d   1      32.810  18.654 -23.956  0.00  0.00     0.065 A 
ATOM      6  C   UNL d   1      33.240  20.008 -23.774  0.00  0.00     0.002 A 
ATOM      7  C   UNL d   1      32.767  18.779 -24.766  0.00  0.00     0.018 A 
ATOM      8  C   UNL d   1      33.196  20.128 -24.591  0.00  0.00     0.000 A 
ATOM      9  C   UNL d   1      32.959  19.516 -25.089  0.00  0.00     0.002 A 
ENDROOT
BRANCH   1  10
ATOM     10  C   UNL d   1      32.403  17.256 -23.759  0.00  0.00     0.101 C 
BRANCH  10  11
ATOM     11  C   UNL d   1      31.845  16.825 -23.331  0.00  0.00     0.121 C 
BRANCH  11  12
ATOM     12  N   UNL d   1      31.147  16.570 -23.703  0.00  0.00    -0.205 NA
ATOM     13  C   UNL d   1      30.465  16.432 -23.252  0.00  0.00     0.279 C 
ATOM     14  O   UNL d   1      30.482  16.549 -22.428  0.00  0.00    -0.265 OA
BRANCH  13  15
ATOM     15  C   UNL d   1      29.774  16.180 -23.622  0.00  0.00     0.058 A 
ATOM     16  C   UNL d   1      29.197  15.800 -23.198  0.00  0.00     0.005 A 
ATOM     17  C   UNL d   1      28.498  15.540 -23.552  0.00  0.00     0.000 A 
ATOM     18  C   UNL d   1      28.379  15.670 -24.362  0.00  0.00     0.000 A 
ATOM     19  C   UNL d   1      28.967  16.059 -24.805  0.00  0.00     0.000 A 
ATOM     20  C   UNL d   1      29.663  16.314 -24.434  0.00  0.00     0.005 A 
ENDBRANCH  13  15
ENDBRANCH  11  12
ENDBRANCH  10  11
ENDBRANCH   1  10
BRANCH   2  21
ATOM     21  S   UNL d   1      33.240  19.430 -22.008  0.00  0.00    -0.080 SA
BRANCH  21  22
ATOM     22  C   UNL d   1      32.704  19.981 -21.706  0.00  0.00     0.098 C 
BRANCH  22  23
ATOM     23  C   UNL d   1      32.788  20.271 -20.943  0.00  0.00     0.286 C 
ATOM     24  N   UNL d   1      32.476  21.001 -20.732  0.00  0.00    -0.204 NA
ATOM     25  O   UNL d   1      33.192  19.820 -20.381  0.00  0.00    -0.265 OA
BRANCH  24  26
ATOM     26  C   UNL d   1      32.076  21.445 -21.292  0.00  0.00     0.127 C 
BRANCH  26  27
ATOM     27  C   UNL d   1      32.049  22.267 -21.221  0.00  0.00     0.119 A 
ATOM     28  O   UNL d   1      32.056  22.800 -21.842  0.00  0.00    -0.304 OA
ATOM     29  C   UNL d   1      32.021  23.558 -21.525  0.00  0.00     0.123 A 
ATOM     30  C   UNL d   1      31.993  23.493 -20.713  0.00  0.00     0.029 A 
ATOM     31  C   UNL d   1      32.010  22.695 -20.523  0.00  0.00     0.028 A 
ENDBRANCH  26  27
ENDBRANCH  24  26
ENDBRANCH  22  23
ENDBRANCH  21  22
ENDBRANCH   2  21
TORSDOF 9
ENDMDL
