MODEL 1
REMARK VINA RESULT:      -5.9      0.000      0.000
REMARK  3 active torsions:
REMARK  status: ('A' for Active; 'I' for Inactive)
REMARK    1  A    between atoms: C_3  and  C_1 
REMARK       I    between atoms: N_7  and  C_3 
REMARK    2  A    between atoms: C_11  and  N_7 
REMARK    3  A    between atoms: O_17  and  C_12 
ROOT
ATOM      1  C   UNL d   1     -41.529-122.560 -51.635  0.00  0.00     0.121 A 
ATOM      2  C   UNL d   1     -41.578-121.826 -51.962  0.00  0.00     0.305 A 
ATOM      3  C   UNL d   1     -41.408-123.221 -52.124  0.00  0.00     0.012 A 
ATOM      4  O   UNL d   1     -41.507-121.740 -52.783  0.00  0.00    -0.273 OA
ATOM      5  C   UNL d   1     -41.338-123.127 -52.937  0.00  0.00     0.023 A 
ATOM      6  C   UNL d   1     -41.387-122.393 -53.264  0.00  0.00     0.103 A 
ATOM      7  O   UNL d   1     -41.699-121.171 -51.475  0.00  0.00    -0.259 OA
ATOM      8  C   UNL d   1     -41.217-123.786 -53.422  0.00  0.00     0.002 A 
ATOM      9  C   UNL d   1     -41.316-122.305 -54.081  0.00  0.00     0.025 A 
ATOM     10  C   UNL d   1     -41.195-122.962 -54.571  0.00  0.00     0.002 A 
ATOM     11  C   UNL d   1     -41.146-123.696 -54.245  0.00  0.00     0.000 A 
ENDROOT
BRANCH   1  12
ATOM     12  C   UNL d   1     -41.600-122.652 -50.816  0.00  0.00     0.284 C 
ATOM     13  N   UNL d   1     -42.136-123.186 -50.490  0.00  0.00    -0.208 NA
ATOM     14  O   UNL d   1     -41.138-122.215 -50.289  0.00  0.00    -0.265 OA
BRANCH  13  15
ATOM     15  C   UNL d   1     -42.188-123.259 -49.696  0.00  0.00     0.085 A 
ATOM     16  C   UNL d   1     -41.647-123.720 -49.266  0.00  0.00     0.021 A 
ATOM     17  C   UNL d   1     -41.691-123.800 -48.460  0.00  0.00     0.026 A 
ATOM     18  C   UNL d   1     -42.317-123.395 -48.046  0.00  0.00     0.094 A 
ATOM     19  C   UNL d   1     -42.867-122.926 -48.484  0.00  0.00     0.026 A 
ATOM     20  C   UNL d   1     -42.784-122.874 -49.291  0.00  0.00     0.021 A 
BRANCH  18  21
ATOM     21  O   UNL d   1     -42.383-123.461 -47.226  0.00  0.00    -0.328 OA
ATOM     22  C   UNL d   1     -41.773-123.176 -46.749  0.00  0.00     0.181 C 
ENDBRANCH  18  21
ENDBRANCH  13  15
ENDBRANCH   1  12
TORSDOF 3
ENDMDL
MODEL 2
REMARK VINA RESULT:      -4.7      1.030      4.746
REMARK  3 active torsions:
REMARK  status: ('A' for Active; 'I' for Inactive)
REMARK    1  A    between atoms: C_3  and  C_1 
REMARK       I    between atoms: N_7  and  C_3 
REMARK    2  A    between atoms: C_11  and  N_7 
REMARK    3  A    between atoms: O_17  and  C_12 
ROOT
ATOM      1  C   UNL d   1     -41.948-122.599 -50.645  0.00  0.00     0.121 A 
ATOM      2  C   UNL d   1     -42.641-122.320 -50.347  0.00  0.00     0.305 A 
ATOM      3  C   UNL d   1     -41.435-123.035 -50.157  0.00  0.00     0.012 A 
ATOM      4  O   UNL d   1     -42.834-122.472 -49.555  0.00  0.00    -0.273 OA
ATOM      5  C   UNL d   1     -41.635-123.180 -49.374  0.00  0.00     0.023 A 
ATOM      6  C   UNL d   1     -42.328-122.901 -49.075  0.00  0.00     0.103 A 
ATOM      7  O   UNL d   1     -43.148-121.888 -50.833  0.00  0.00    -0.259 OA
ATOM      8  C   UNL d   1     -41.123-123.615 -48.889  0.00  0.00     0.002 A 
ATOM      9  C   UNL d   1     -42.522-123.051 -48.287  0.00  0.00     0.025 A 
ATOM     10  C   UNL d   1     -42.014-123.485 -47.798  0.00  0.00     0.002 A 
ATOM     11  C   UNL d   1     -41.320-123.764 -48.096  0.00  0.00     0.000 A 
ENDROOT
BRANCH   1  12
ATOM     12  C   UNL d   1     -41.749-122.451 -51.435  0.00  0.00     0.284 C 
ATOM     13  N   UNL d   1     -41.977-122.966 -52.037  0.00  0.00    -0.208 NA
ATOM     14  O   UNL d   1     -41.316-121.784 -51.655  0.00  0.00    -0.265 OA
BRANCH  13  15
ATOM     15  C   UNL d   1     -41.774-122.803 -52.793  0.00  0.00     0.085 A 
ATOM     16  C   UNL d   1     -41.356-123.350 -53.257  0.00  0.00     0.021 A 
ATOM     17  C   UNL d   1     -41.146-123.195 -54.025  0.00  0.00     0.026 A 
ATOM     18  C   UNL d   1     -41.365-122.442 -54.361  0.00  0.00     0.094 A 
ATOM     19  C   UNL d   1     -41.791-121.886 -53.888  0.00  0.00     0.026 A 
ATOM     20  C   UNL d   1     -41.980-122.085 -53.123  0.00  0.00     0.021 A 
BRANCH  18  21
ATOM     21  O   UNL d   1     -41.163-122.260 -55.141  0.00  0.00    -0.328 OA
ATOM     22  C   UNL d   1     -41.763-122.154 -55.697  0.00  0.00     0.181 C 
ENDBRANCH  18  21
ENDBRANCH  13  15
ENDBRANCH   1  12
TORSDOF 3
ENDMDL
