MODEL 1
REMARK VINA RESULT:     -10.1      0.000      0.000
REMARK  5 active torsions:
REMARK  status: ('A' for Active; 'I' for Inactive)
REMARK    1  A    between atoms: C_11  and  C_3 
REMARK    2  A    between atoms: C_13  and  N_5 
REMARK    3  A    between atoms: C_12  and  C_7 
REMARK    4  A    between atoms: O_21  and  C_11 
REMARK    5  A    between atoms: C_20  and  C_13 
ROOT
ATOM      1  C   UNL d   1      52.992  32.297  53.386  0.00  0.00     0.080 A 
ATOM      2  C   UNL d   1      53.494  31.685  53.633  0.00  0.00     0.267 A 
ATOM      3  C   UNL d   1      52.637  33.673  53.380  0.00  0.00     0.106 A 
ATOM      4  C   UNL d   1      52.348  32.125  52.900  0.00  0.00     0.108 A 
ATOM      5  N   UNL d   1      53.342  30.902  53.387  0.00  0.00    -0.271 N 
ATOM      6  C   UNL d   1      51.988  33.503  52.890  0.00  0.00     0.208 A 
ATOM      7  C   UNL d   1      53.134  33.067  53.624  0.00  0.00     0.015 A 
ATOM      8  O   UNL d   1      51.843  32.729  52.651  0.00  0.00    -0.288 OA
ATOM      9  C   UNL d   1      52.191  31.354  52.653  0.00  0.00     0.043 A 
ATOM     10  C   UNL d   1      52.690  30.745  52.898  0.00  0.00     0.069 A 
ATOM     11  O   UNL d   1      54.143  31.843  54.120  0.00  0.00    -0.267 OA
ATOM     12  N   UNL d   1      51.488  34.112  52.645  0.00  0.00    -0.121 N 
ATOM     13  C   UNL d   1      52.541  29.955  52.652  0.00  0.00     0.019 C 
ENDROOT
BRANCH   7  14
ATOM     14  C   UNL d   1      53.778  33.233  54.108  0.00  0.00     0.001 A 
ATOM     15  C   UNL d   1      54.513  33.398  53.765  0.00  0.00     0.001 A 
ATOM     16  C   UNL d   1      55.157  33.563  54.251  0.00  0.00     0.011 A 
ATOM     17  C   UNL d   1      55.072  33.565  55.071  0.00  0.00     0.058 A 
ATOM     18  C   UNL d   1      54.333  33.399  55.413  0.00  0.00     0.011 A 
ATOM     19 CL   UNL d   1      55.716  33.730  55.556  0.00  0.00    -0.082 Cl
ATOM     20  C   UNL d   1      53.689  33.233  54.929  0.00  0.00     0.001 A 
ENDBRANCH   7  14
BRANCH   3  21
ATOM     21  C   UNL d   1      52.781  34.448  53.619  0.00  0.00     0.299 C 
ATOM     22  O   UNL d   1      53.298  34.926  53.188  0.00  0.00    -0.259 OA
BRANCH  21  23
ATOM     23  O   UNL d   1      52.410  34.749  54.291  0.00  0.00    -0.296 OA
ATOM     24  C   UNL d   1      52.319  35.564  54.386  0.00  0.00     0.185 C 
ENDBRANCH  21  23
ENDBRANCH   3  21
BRANCH   5  25
ATOM     25  C   UNL d   1      53.842  30.293  53.632  0.00  0.00     0.108 C 
BRANCH  25  26
ATOM     26  C   UNL d   1      53.604  29.780  54.229  0.00  0.00     0.118 A 
ATOM     27  O   UNL d   1      53.297  29.998  54.969  0.00  0.00    -0.304 OA
ATOM     28  C   UNL d   1      53.131  29.309  55.395  0.00  0.00     0.123 A 
ATOM     29  C   UNL d   1      53.334  28.662  54.925  0.00  0.00     0.029 A 
ATOM     30  C   UNL d   1      53.625  28.949  54.207  0.00  0.00     0.028 A 
ENDBRANCH  25  26
ENDBRANCH   5  25
TORSDOF 5
ENDMDL
MODEL 2
REMARK VINA RESULT:      -8.4      1.686      2.612
REMARK  5 active torsions:
REMARK  status: ('A' for Active; 'I' for Inactive)
REMARK    1  A    between atoms: C_11  and  C_3 
REMARK    2  A    between atoms: C_13  and  N_5 
REMARK    3  A    between atoms: C_12  and  C_7 
REMARK    4  A    between atoms: O_21  and  C_11 
REMARK    5  A    between atoms: C_20  and  C_13 
ROOT
ATOM      1  C   UNL d   1      53.308  32.980  53.597  0.00  0.00     0.080 A 
ATOM      2  C   UNL d   1      52.939  32.377  53.164  0.00  0.00     0.267 A 
ATOM      3  C   UNL d   1      53.319  34.314  54.091  0.00  0.00     0.106 A 
ATOM      4  C   UNL d   1      54.033  32.836  53.962  0.00  0.00     0.108 A 
ATOM      5  N   UNL d   1      53.306  31.630  53.102  0.00  0.00    -0.271 N 
ATOM      6  C   UNL d   1      54.050  34.170  54.459  0.00  0.00     0.208 A 
ATOM      7  C   UNL d   1      52.954  33.716  53.662  0.00  0.00     0.015 A 
ATOM      8  O   UNL d   1      54.406  33.431  54.395  0.00  0.00    -0.288 OA
ATOM      9  C   UNL d   1      54.403  32.101  53.906  0.00  0.00     0.043 A 
ATOM     10  C   UNL d   1      54.036  31.500  53.475  0.00  0.00     0.069 A 
ATOM     11  O   UNL d   1      52.212  32.509  52.794  0.00  0.00    -0.267 OA
ATOM     12  N   UNL d   1      54.417  34.771  54.890  0.00  0.00    -0.121 N 
ATOM     13  C   UNL d   1      54.402  30.746  53.411  0.00  0.00     0.019 C 
ENDROOT
BRANCH   7  14
ATOM     14  C   UNL d   1      52.230  33.855  53.296  0.00  0.00     0.001 A 
ATOM     15  C   UNL d   1      52.216  34.150  52.523  0.00  0.00     0.001 A 
ATOM     16  C   UNL d   1      51.492  34.288  52.157  0.00  0.00     0.011 A 
ATOM     17  C   UNL d   1      50.786  34.135  52.556  0.00  0.00     0.058 A 
ATOM     18  C   UNL d   1      50.803  33.839  53.332  0.00  0.00     0.011 A 
ATOM     19 CL   UNL d   1      50.063  34.274  52.190  0.00  0.00    -0.082 Cl
ATOM     20  C   UNL d   1      51.527  33.700  53.699  0.00  0.00     0.001 A 
ENDBRANCH   7  14
BRANCH   3  21
ATOM     21  C   UNL d   1      52.963  35.053  54.156  0.00  0.00     0.299 C 
ATOM     22  O   UNL d   1      52.999  35.587  53.528  0.00  0.00    -0.259 OA
BRANCH  21  23
ATOM     23  O   UNL d   1      52.567  35.262  54.849  0.00  0.00    -0.296 OA
ATOM     24  C   UNL d   1      52.533  36.052  55.086  0.00  0.00     0.185 C 
ENDBRANCH  21  23
ENDBRANCH   3  21
BRANCH   5  25
ATOM     25  C   UNL d   1      52.939  31.030  52.672  0.00  0.00     0.108 C 
BRANCH  25  26
ATOM     26  C   UNL d   1      52.550  30.420  53.064  0.00  0.00     0.118 A 
ATOM     27  O   UNL d   1      51.788  30.454  53.389  0.00  0.00    -0.304 OA
ATOM     28  C   UNL d   1      51.617  29.720  53.729  0.00  0.00     0.123 A 
ATOM     29  C   UNL d   1      52.270  29.228  53.618  0.00  0.00     0.029 A 
ATOM     30  C   UNL d   1      52.846  29.657  53.209  0.00  0.00     0.028 A 
ENDBRANCH  25  26
ENDBRANCH   5  25
TORSDOF 5
ENDMDL
