MODEL 1
REMARK VINA RESULT:     -10.7      0.000      0.000
REMARK  1 active torsions:
REMARK  status: ('A' for Active; 'I' for Inactive)
REMARK    1  A    between atoms: C_15  and  C_6 
ROOT
ATOM      1  C   UNL d   1      53.072  32.504  53.568  0.00  0.00     0.087 A 
ATOM      2  C   UNL d   1      53.524  33.517  54.475  0.00  0.00     0.111 A 
ATOM      3  C   UNL d   1      53.558  31.952  53.946  0.00  0.00     0.109 A 
ATOM      4  C   UNL d   1      52.602  32.281  52.928  0.00  0.00     0.302 A 
ATOM      5  C   UNL d   1      54.010  32.957  54.850  0.00  0.00     0.213 A 
ATOM      6  C   UNL d   1      53.048  33.288  53.824  0.00  0.00     0.020 A 
ATOM      7  O   UNL d   1      54.022  32.181  54.583  0.00  0.00    -0.287 OA
ATOM      8  C   UNL d   1      53.576  31.174  53.686  0.00  0.00     0.050 A 
ATOM      9  O   UNL d   1      52.622  31.488  52.663  0.00  0.00    -0.273 OA
ATOM     10  C   UNL d   1      53.504  34.298  54.734  0.00  0.00     0.105 C 
ATOM     11  C   UNL d   1      53.105  30.939  53.039  0.00  0.00     0.105 A 
ATOM     12  N   UNL d   1      53.491  35.082  55.004  0.00  0.00    -0.191 NA
ATOM     13  O   UNL d   1      52.117  32.833  52.550  0.00  0.00    -0.259 OA
ATOM     14  N   UNL d   1      54.477  33.192  55.492  0.00  0.00    -0.120 N 
ATOM     15  C   UNL d   1      53.121  30.154  52.774  0.00  0.00     0.027 C 
ENDROOT
BRANCH   6  16
ATOM     16  C   UNL d   1      52.570  33.831  53.452  0.00  0.00     0.001 C 
ATOM     17  C   UNL d   1      52.868  34.308  52.847  0.00  0.00     0.000 C 
ATOM     18  C   UNL d   1      51.785  33.910  53.676  0.00  0.00     0.000 C 
ENDBRANCH   6  16
TORSDOF 1
ENDMDL
MODEL 2
REMARK VINA RESULT:     -10.2      0.925      1.917
REMARK  1 active torsions:
REMARK  status: ('A' for Active; 'I' for Inactive)
REMARK    1  A    between atoms: C_15  and  C_6 
ROOT
ATOM      1  C   UNL d   1      53.291  32.655  53.736  0.00  0.00     0.087 A 
ATOM      2  C   UNL d   1      52.954  34.047  53.795  0.00  0.00     0.111 A 
ATOM      3  C   UNL d   1      52.682  32.533  53.190  0.00  0.00     0.109 A 
ATOM      4  C   UNL d   1      53.766  32.028  53.983  0.00  0.00     0.302 A 
ATOM      5  C   UNL d   1      52.344  33.917  53.246  0.00  0.00     0.213 A 
ATOM      6  C   UNL d   1      53.434  33.407  54.044  0.00  0.00     0.020 A 
ATOM      7  O   UNL d   1      52.214  33.163  52.949  0.00  0.00    -0.287 OA
ATOM      8  C   UNL d   1      52.546  31.783  52.888  0.00  0.00     0.050 A 
ATOM      9  O   UNL d   1      53.626  31.263  53.674  0.00  0.00    -0.273 OA
ATOM     10  C   UNL d   1      53.093  34.799  54.100  0.00  0.00     0.105 C 
ATOM     11  C   UNL d   1      53.021  31.142  53.131  0.00  0.00     0.105 A 
ATOM     12  N   UNL d   1      53.225  35.560  54.401  0.00  0.00    -0.191 NA
ATOM     13  O   UNL d   1      54.374  32.150  54.529  0.00  0.00    -0.259 OA
ATOM     14  N   UNL d   1      51.873  34.554  53.006  0.00  0.00    -0.120 N 
ATOM     15  C   UNL d   1      52.885  30.383  52.828  0.00  0.00     0.027 C 
ENDROOT
BRANCH   6  16
ATOM     16  C   UNL d   1      54.034  33.527  54.582  0.00  0.00     0.001 C 
ATOM     17  C   UNL d   1      54.799  33.700  54.326  0.00  0.00     0.000 C 
ATOM     18  C   UNL d   1      53.880  33.477  55.386  0.00  0.00     0.000 C 
ENDBRANCH   6  16
TORSDOF 1
ENDMDL
MODEL 3
REMARK VINA RESULT:      -9.8      1.040      2.392
REMARK  1 active torsions:
REMARK  status: ('A' for Active; 'I' for Inactive)
REMARK    1  A    between atoms: C_15  and  C_6 
ROOT
ATOM      1  C   UNL d   1      52.840  33.552  53.443  0.00  0.00     0.087 A 
ATOM      2  C   UNL d   1      53.689  33.919  54.538  0.00  0.00     0.111 A 
ATOM      3  C   UNL d   1      52.403  34.246  53.552  0.00  0.00     0.109 A 
ATOM      4  C   UNL d   1      52.640  33.020  52.845  0.00  0.00     0.302 A 
ATOM      5  C   UNL d   1      53.245  34.614  54.642  0.00  0.00     0.213 A 
ATOM      6  C   UNL d   1      53.483  33.380  53.929  0.00  0.00     0.020 A 
ATOM      7  O   UNL d   1      52.607  34.771  54.149  0.00  0.00    -0.287 OA
ATOM      8  C   UNL d   1      51.764  34.411  53.065  0.00  0.00     0.050 A 
ATOM      9  O   UNL d   1      51.989  33.189  52.348  0.00  0.00    -0.273 OA
ATOM     10  C   UNL d   1      54.330  33.751  55.026  0.00  0.00     0.105 C 
ATOM     11  C   UNL d   1      51.555  33.879  52.457  0.00  0.00     0.105 A 
ATOM     12  N   UNL d   1      54.974  33.592  55.523  0.00  0.00    -0.191 NA
ATOM     13  O   UNL d   1      53.076  32.328  52.735  0.00  0.00    -0.259 OA
ATOM     14  N   UNL d   1      53.455  35.141  55.245  0.00  0.00    -0.120 N 
ATOM     15  C   UNL d   1      50.910  34.042  51.963  0.00  0.00     0.027 C 
ENDROOT
BRANCH   6  16
ATOM     16  C   UNL d   1      53.913  32.697  53.821  0.00  0.00     0.001 C 
ATOM     17  C   UNL d   1      53.683  31.994  54.188  0.00  0.00     0.000 C 
ATOM     18  C   UNL d   1      54.581  32.703  53.345  0.00  0.00     0.000 C 
ENDBRANCH   6  16
TORSDOF 1
ENDMDL
MODEL 4
REMARK VINA RESULT:      -9.3      1.719      3.438
REMARK  1 active torsions:
REMARK  status: ('A' for Active; 'I' for Inactive)
REMARK    1  A    between atoms: C_15  and  C_6 
ROOT
ATOM      1  C   UNL d   1      53.230  33.815  54.000  0.00  0.00     0.087 A 
ATOM      2  C   UNL d   1      52.711  32.734  53.216  0.00  0.00     0.111 A 
ATOM      3  C   UNL d   1      52.608  34.296  53.745  0.00  0.00     0.109 A 
ATOM      4  C   UNL d   1      53.802  34.107  54.518  0.00  0.00     0.302 A 
ATOM      5  C   UNL d   1      52.088  33.224  52.964  0.00  0.00     0.213 A 
ATOM      6  C   UNL d   1      53.290  33.034  53.742  0.00  0.00     0.020 A 
ATOM      7  O   UNL d   1      52.043  33.999  53.230  0.00  0.00    -0.287 OA
ATOM      8  C   UNL d   1      52.555  35.072  54.006  0.00  0.00     0.050 A 
ATOM      9  O   UNL d   1      53.747  34.898  54.783  0.00  0.00    -0.273 OA
ATOM     10  C   UNL d   1      52.767  31.955  52.955  0.00  0.00     0.105 C 
ATOM     11  C   UNL d   1      53.128  35.377  54.529  0.00  0.00     0.105 A 
ATOM     12  N   UNL d   1      52.813  31.172  52.687  0.00  0.00    -0.191 NA
ATOM     13  O   UNL d   1      54.424  33.627  54.773  0.00  0.00    -0.259 OA
ATOM     14  N   UNL d   1      51.520  32.920  52.444  0.00  0.00    -0.120 N 
ATOM     15  C   UNL d   1      53.078  36.160  54.795  0.00  0.00     0.027 C 
ENDROOT
BRANCH   6  16
ATOM     16  C   UNL d   1      53.903  32.560  53.993  0.00  0.00     0.001 C 
ATOM     17  C   UNL d   1      53.828  32.106  54.678  0.00  0.00     0.000 C 
ATOM     18  C   UNL d   1      54.602  32.531  53.565  0.00  0.00     0.000 C 
ENDBRANCH   6  16
TORSDOF 1
ENDMDL
MODEL 5
REMARK VINA RESULT:      -9.0      1.621      3.006
REMARK  1 active torsions:
REMARK  status: ('A' for Active; 'I' for Inactive)
REMARK    1  A    between atoms: C_15  and  C_6 
ROOT
ATOM      1  C   UNL d   1      52.821  32.990  53.441  0.00  0.00     0.087 A 
ATOM      2  C   UNL d   1      53.253  31.626  53.374  0.00  0.00     0.111 A 
ATOM      3  C   UNL d   1      52.151  32.798  52.996  0.00  0.00     0.109 A 
ATOM      4  C   UNL d   1      52.945  33.764  53.699  0.00  0.00     0.302 A 
ATOM      5  C   UNL d   1      52.578  31.440  52.927  0.00  0.00     0.213 A 
ATOM      6  C   UNL d   1      53.377  32.412  53.635  0.00  0.00     0.020 A 
ATOM      7  O   UNL d   1      52.034  32.026  52.742  0.00  0.00    -0.287 OA
ATOM      8  C   UNL d   1      51.603  33.377  52.806  0.00  0.00     0.050 A 
ATOM      9  O   UNL d   1      52.385  34.354  53.506  0.00  0.00    -0.273 OA
ATOM     10  C   UNL d   1      53.805  31.046  53.566  0.00  0.00     0.105 C 
ATOM     11  C   UNL d   1      51.720  34.162  53.063  0.00  0.00     0.105 A 
ATOM     12  N   UNL d   1      54.355  30.454  53.753  0.00  0.00    -0.191 NA
ATOM     13  O   UNL d   1      53.614  33.956  54.144  0.00  0.00    -0.259 OA
ATOM     14  N   UNL d   1      52.463  30.660  52.674  0.00  0.00    -0.120 N 
ATOM     15  C   UNL d   1      51.168  34.751  52.873  0.00  0.00     0.027 C 
ENDROOT
BRANCH   6  16
ATOM     16  C   UNL d   1      54.036  32.602  54.074  0.00  0.00     0.001 C 
ATOM     17  C   UNL d   1      54.736  32.830  53.701  0.00  0.00     0.000 C 
ATOM     18  C   UNL d   1      54.008  32.568  54.893  0.00  0.00     0.000 C 
ENDBRANCH   6  16
TORSDOF 1
ENDMDL
MODEL 6
REMARK VINA RESULT:      -8.7      1.715      2.736
REMARK  1 active torsions:
REMARK  status: ('A' for Active; 'I' for Inactive)
REMARK    1  A    between atoms: C_15  and  C_6 
ROOT
ATOM      1  C   UNL d   1      53.415  33.754  54.117  0.00  0.00     0.087 A 
ATOM      2  C   UNL d   1      52.549  33.103  53.178  0.00  0.00     0.111 A 
ATOM      3  C   UNL d   1      53.805  33.038  54.250  0.00  0.00     0.109 A 
ATOM      4  C   UNL d   1      53.646  34.439  54.514  0.00  0.00     0.302 A 
ATOM      5  C   UNL d   1      52.947  32.387  53.317  0.00  0.00     0.213 A 
ATOM      6  C   UNL d   1      52.787  33.797  53.583  0.00  0.00     0.020 A 
ATOM      7  O   UNL d   1      53.570  32.361  53.851  0.00  0.00    -0.287 OA
ATOM      8  C   UNL d   1      54.429  33.003  54.782  0.00  0.00     0.050 A 
ATOM      9  O   UNL d   1      54.282  34.402  55.056  0.00  0.00    -0.273 OA
ATOM     10  C   UNL d   1      51.923  33.142  52.645  0.00  0.00     0.105 C 
ATOM     11  C   UNL d   1      54.670  33.690  55.189  0.00  0.00     0.105 A 
ATOM     12  N   UNL d   1      51.294  33.169  52.106  0.00  0.00    -0.191 NA
ATOM     13  O   UNL d   1      53.256  35.155  54.381  0.00  0.00    -0.259 OA
ATOM     14  N   UNL d   1      52.706  31.706  52.912  0.00  0.00    -0.120 N 
ATOM     15  C   UNL d   1      55.300  33.658  55.726  0.00  0.00     0.027 C 
ENDROOT
BRANCH   6  16
ATOM     16  C   UNL d   1      52.402  34.503  53.452  0.00  0.00     0.001 C 
ATOM     17  C   UNL d   1      51.739  34.709  53.899  0.00  0.00     0.000 C 
ATOM     18  C   UNL d   1      52.672  35.016  52.872  0.00  0.00     0.000 C 
ENDBRANCH   6  16
TORSDOF 1
ENDMDL
MODEL 7
REMARK VINA RESULT:      -8.4      1.634      3.007
REMARK  1 active torsions:
REMARK  status: ('A' for Active; 'I' for Inactive)
REMARK    1  A    between atoms: C_15  and  C_6 
ROOT
ATOM      1  C   UNL d   1      52.625  34.076  53.697  0.00  0.00     0.087 A 
ATOM      2  C   UNL d   1      52.929  32.718  53.353  0.00  0.00     0.111 A 
ATOM      3  C   UNL d   1      53.339  34.127  54.112  0.00  0.00     0.109 A 
ATOM      4  C   UNL d   1      52.115  34.722  53.657  0.00  0.00     0.302 A 
ATOM      5  C   UNL d   1      53.644  32.777  53.772  0.00  0.00     0.213 A 
ATOM      6  C   UNL d   1      52.412  33.376  53.314  0.00  0.00     0.020 A 
ATOM      7  O   UNL d   1      53.842  33.480  54.147  0.00  0.00    -0.287 OA
ATOM      8  C   UNL d   1      53.544  34.826  54.490  0.00  0.00     0.050 A 
ATOM      9  O   UNL d   1      52.325  35.433  54.043  0.00  0.00    -0.273 OA
ATOM     10  C   UNL d   1      52.720  32.018  52.973  0.00  0.00     0.105 C 
ATOM     11  C   UNL d   1      53.034  35.485  54.456  0.00  0.00     0.105 A 
ATOM     12  N   UNL d   1      52.519  31.309  52.593  0.00  0.00    -0.191 NA
ATOM     13  O   UNL d   1      51.402  34.670  53.242  0.00  0.00    -0.259 OA
ATOM     14  N   UNL d   1      54.149  32.122  53.805  0.00  0.00    -0.120 N 
ATOM     15  C   UNL d   1      53.239  36.192  54.836  0.00  0.00     0.027 C 
ENDROOT
BRANCH   6  16
ATOM     16  C   UNL d   1      51.710  33.326  52.905  0.00  0.00     0.001 C 
ATOM     17  C   UNL d   1      51.032  33.025  53.269  0.00  0.00     0.000 C 
ATOM     18  C   UNL d   1      51.670  33.574  52.124  0.00  0.00     0.000 C 
ENDBRANCH   6  16
TORSDOF 1
ENDMDL
