MODEL 1
REMARK VINA RESULT:      43.7      0.000      0.000
REMARK  2 active torsions:
REMARK  status: ('A' for Active; 'I' for Inactive)
REMARK    1  A    between atoms: C_10  and  N_1 
REMARK    2  A    between atoms: C_6  and  C_7 
ROOT
ATOM      1  N   UNL d   1     -54.931-100.973 -43.849  0.00  0.00    -0.288 N 
ATOM      2  C   UNL d   1     -54.804-101.691 -44.244  0.00  0.00     0.183 A 
ATOM      3  N   UNL d   1     -54.725-102.291 -43.671  0.00  0.00    -0.224 NA
ATOM      4  C   UNL d   1     -54.931-101.127 -43.035  0.00  0.00     0.083 A 
ATOM      5  C   UNL d   1     -54.805-101.936 -42.926  0.00  0.00     0.099 A 
ATOM      6  C   UNL d   1     -54.878-101.756 -41.510  0.00  0.00     0.066 A 
ATOM      7  C   UNL d   1     -54.779-102.249 -42.161  0.00  0.00     0.027 A 
ATOM      8  C   UNL d   1     -55.031-100.633 -42.379  0.00  0.00     0.019 A 
ATOM      9  C   UNL d   1     -55.004-100.948 -41.619  0.00  0.00     0.008 A 
ENDROOT
BRANCH   1  10
ATOM     10  C   UNL d   1     -55.037-100.241 -44.200  0.00  0.00     0.066 A 
ATOM     11  C   UNL d   1     -55.471-100.177 -44.900  0.00  0.00     0.018 A 
ATOM     12  C   UNL d   1     -55.580 -99.450 -45.254  0.00  0.00     0.002 A 
ATOM     13  C   UNL d   1     -55.256 -98.763 -44.914  0.00  0.00     0.000 A 
ATOM     14  C   UNL d   1     -54.824 -98.827 -44.217  0.00  0.00     0.002 A 
ATOM     15  C   UNL d   1     -54.714 -99.566 -43.857  0.00  0.00     0.018 A 
ENDBRANCH   1  10
BRANCH   6  16
ATOM     16  C   UNL d   1     -54.851-102.070 -40.750  0.00  0.00     0.211 C 
ATOM     17  O   UNL d   1     -54.964-102.879 -40.633  0.00  0.00    -0.644 OA
ATOM     18  O   UNL d   1     -54.711-101.575 -40.098  0.00  0.00    -0.644 OA
ENDBRANCH   6  16
TORSDOF 2
ENDMDL
