MODEL 1
REMARK VINA RESULT:      -7.7      0.000      0.000
REMARK  4 active torsions:
REMARK  status: ('A' for Active; 'I' for Inactive)
REMARK    1  A    between atoms: C_2  and  C_1 
REMARK    2  A    between atoms: C_4  and  C_3 
REMARK       I    between atoms: N_6  and  C_4 
REMARK    3  A    between atoms: C_5  and  C_10 
REMARK       I    between atoms: N_9  and  C_5 
REMARK    4  A    between atoms: C_10  and  N_6 
ROOT
ATOM      1  C   UNL d   1     -47.867  12.491  22.815  0.00  0.00     0.076 A 
ATOM      2  C   UNL d   1     -47.830  13.199  22.381  0.00  0.00     0.062 A 
ATOM      3  C   UNL d   1     -47.277  12.311  23.354  0.00  0.00     0.004 A 
ATOM      4  C   UNL d   1     -47.193  13.718  22.501  0.00  0.00     0.005 A 
ATOM      5  C   UNL d   1     -46.595  13.526  23.053  0.00  0.00     0.000 A 
ATOM      6  C   UNL d   1     -46.647  12.824  23.471  0.00  0.00    -0.000 A 
ENDROOT
BRANCH   2   7
ATOM      7  C   UNL d   1     -48.420  13.388  21.837  0.00  0.00     0.279 C 
ATOM      8  N   UNL d   1     -48.915  14.035  21.973  0.00  0.00    -0.201 NA
ATOM      9  O   UNL d   1     -48.510  12.925  21.158  0.00  0.00    -0.265 OA
BRANCH   8  10
ATOM     10  C   UNL d   1     -48.822  14.495  22.653  0.00  0.00     0.166 C 
BRANCH  10  11
ATOM     11  C   UNL d   1     -49.326  15.131  22.792  0.00  0.00     0.318 C 
ATOM     12  O   UNL d   1     -49.561  15.607  22.166  0.00  0.00    -0.262 OA
ATOM     13  N   UNL d   1     -49.593  15.286  23.559  0.00  0.00    -0.083 NA
ATOM     14  N   UNL d   1     -50.096  15.922  23.697  0.00  0.00    -0.019 N 
ENDBRANCH  10  11
ENDBRANCH   8  10
ENDBRANCH   2   7
BRANCH   1  15
ATOM     15  C   UNL d   1     -48.504  11.972  22.696  0.00  0.00     0.419 C 
ATOM     16  F   UNL d   1     -49.086  11.498  22.587  0.00  0.00    -0.166 F 
ATOM     17  F   UNL d   1     -49.237  11.904  23.155  0.00  0.00    -0.166 F 
ATOM     18  F   UNL d   1     -48.608  11.374  22.097  0.00  0.00    -0.166 F 
ENDBRANCH   1  15
TORSDOF 4
ENDMDL
MODEL 2
REMARK VINA RESULT:      -7.7      2.203      3.271
REMARK  4 active torsions:
REMARK  status: ('A' for Active; 'I' for Inactive)
REMARK    1  A    between atoms: C_2  and  C_1 
REMARK    2  A    between atoms: C_4  and  C_3 
REMARK       I    between atoms: N_6  and  C_4 
REMARK    3  A    between atoms: C_5  and  C_10 
REMARK       I    between atoms: N_9  and  C_5 
REMARK    4  A    between atoms: C_10  and  N_6 
ROOT
ATOM      1  C   UNL d   1     -49.170  12.674  22.186  0.00  0.00     0.076 A 
ATOM      2  C   UNL d   1     -48.793  12.906  22.890  0.00  0.00     0.062 A 
ATOM      3  C   UNL d   1     -49.803  12.156  22.214  0.00  0.00     0.004 A 
ATOM      4  C   UNL d   1     -49.065  12.608  23.616  0.00  0.00     0.005 A 
ATOM      5  C   UNL d   1     -49.712  12.079  23.634  0.00  0.00     0.000 A 
ATOM      6  C   UNL d   1     -50.072  11.861  22.932  0.00  0.00    -0.000 A 
ENDROOT
BRANCH   2   7
ATOM      7  C   UNL d   1     -48.154  13.428  22.871  0.00  0.00     0.279 C 
ATOM      8  N   UNL d   1     -47.405  13.171  23.104  0.00  0.00    -0.201 NA
ATOM      9  O   UNL d   1     -48.272  14.205  22.617  0.00  0.00    -0.265 OA
BRANCH   8  10
ATOM     10  C   UNL d   1     -47.291  12.393  23.357  0.00  0.00     0.166 C 
BRANCH  10  11
ATOM     11  C   UNL d   1     -46.533  12.122  23.528  0.00  0.00     0.318 C 
ATOM     12  O   UNL d   1     -45.937  12.661  23.698  0.00  0.00    -0.262 OA
ATOM     13  N   UNL d   1     -46.374  11.310  23.527  0.00  0.00    -0.083 NA
ATOM     14  N   UNL d   1     -45.617  11.040  23.698  0.00  0.00    -0.019 N 
ENDBRANCH  10  11
ENDBRANCH   8  10
ENDBRANCH   2   7
BRANCH   1  15
ATOM     15  C   UNL d   1     -48.898  12.973  21.460  0.00  0.00     0.419 C 
ATOM     16  F   UNL d   1     -48.650  13.245  20.798  0.00  0.00    -0.166 F 
ATOM     17  F   UNL d   1     -48.369  12.594  20.886  0.00  0.00    -0.166 F 
ATOM     18  F   UNL d   1     -49.063  13.722  21.090  0.00  0.00    -0.166 F 
ENDBRANCH   1  15
TORSDOF 4
ENDMDL
MODEL 3
REMARK VINA RESULT:      -7.3      1.844      2.930
REMARK  4 active torsions:
REMARK  status: ('A' for Active; 'I' for Inactive)
REMARK    1  A    between atoms: C_2  and  C_1 
REMARK    2  A    between atoms: C_4  and  C_3 
REMARK       I    between atoms: N_6  and  C_4 
REMARK    3  A    between atoms: C_5  and  C_10 
REMARK       I    between atoms: N_9  and  C_5 
REMARK    4  A    between atoms: C_10  and  N_6 
ROOT
ATOM      1  C   UNL d   1     -49.445  13.551  22.179  0.00  0.00     0.076 A 
ATOM      2  C   UNL d   1     -48.977  13.556  22.866  0.00  0.00     0.062 A 
ATOM      3  C   UNL d   1     -49.789  14.245  21.914  0.00  0.00     0.004 A 
ATOM      4  C   UNL d   1     -48.864  14.270  23.277  0.00  0.00     0.005 A 
ATOM      5  C   UNL d   1     -49.220  14.973  22.998  0.00  0.00     0.000 A 
ATOM      6  C   UNL d   1     -49.677  14.950  22.320  0.00  0.00    -0.000 A 
ENDROOT
BRANCH   2   7
ATOM      7  C   UNL d   1     -48.627  12.862  23.140  0.00  0.00     0.279 C 
ATOM      8  N   UNL d   1     -47.804  12.795  23.159  0.00  0.00    -0.201 NA
ATOM      9  O   UNL d   1     -49.105  12.239  23.394  0.00  0.00    -0.265 OA
BRANCH   8  10
ATOM     10  C   UNL d   1     -47.329  13.421  22.904  0.00  0.00     0.166 C 
BRANCH  10  11
ATOM     11  C   UNL d   1     -46.509  13.345  22.909  0.00  0.00     0.318 C 
ATOM     12  O   UNL d   1     -46.117  13.218  23.620  0.00  0.00    -0.262 OA
ATOM     13  N   UNL d   1     -46.085  13.396  22.201  0.00  0.00    -0.083 NA
ATOM     14  N   UNL d   1     -45.266  13.319  22.207  0.00  0.00    -0.019 N 
ENDBRANCH  10  11
ENDBRANCH   8  10
ENDBRANCH   2   7
BRANCH   1  15
ATOM     15  C   UNL d   1     -49.558  12.838  21.768  0.00  0.00     0.419 C 
ATOM     16  F   UNL d   1     -49.661  12.187  21.393  0.00  0.00    -0.166 F 
ATOM     17  F   UNL d   1     -49.118  12.534  21.084  0.00  0.00    -0.166 F 
ATOM     18  F   UNL d   1     -50.129  12.221  21.906  0.00  0.00    -0.166 F 
ENDBRANCH   1  15
TORSDOF 4
ENDMDL
MODEL 4
REMARK VINA RESULT:      -7.2      2.150      2.685
REMARK  4 active torsions:
REMARK  status: ('A' for Active; 'I' for Inactive)
REMARK    1  A    between atoms: C_2  and  C_1 
REMARK    2  A    between atoms: C_4  and  C_3 
REMARK       I    between atoms: N_6  and  C_4 
REMARK    3  A    between atoms: C_5  and  C_10 
REMARK       I    between atoms: N_9  and  C_5 
REMARK    4  A    between atoms: C_10  and  N_6 
ROOT
ATOM      1  C   UNL d   1     -46.376  12.702  22.903  0.00  0.00     0.076 A 
ATOM      2  C   UNL d   1     -47.171  12.844  23.097  0.00  0.00     0.062 A 
ATOM      3  C   UNL d   1     -46.028  11.988  23.103  0.00  0.00     0.004 A 
ATOM      4  C   UNL d   1     -47.605  12.256  23.493  0.00  0.00     0.005 A 
ATOM      5  C   UNL d   1     -47.241  11.531  23.694  0.00  0.00     0.000 A 
ATOM      6  C   UNL d   1     -46.457  11.408  23.495  0.00  0.00    -0.000 A 
ENDROOT
BRANCH   2   7
ATOM      7  C   UNL d   1     -47.530  13.560  22.899  0.00  0.00     0.279 C 
ATOM      8  N   UNL d   1     -48.182  13.568  22.392  0.00  0.00    -0.201 NA
ATOM      9  O   UNL d   1     -47.231  14.263  23.211  0.00  0.00    -0.265 OA
BRANCH   8  10
ATOM     10  C   UNL d   1     -48.478  12.862  22.082  0.00  0.00     0.166 C 
BRANCH  10  11
ATOM     11  C   UNL d   1     -49.106  12.877  21.551  0.00  0.00     0.318 C 
ATOM     12  O   UNL d   1     -48.967  13.054  20.761  0.00  0.00    -0.262 OA
ATOM     13  N   UNL d   1     -49.873  12.714  21.814  0.00  0.00    -0.083 NA
ATOM     14  N   UNL d   1     -50.501  12.729  21.283  0.00  0.00    -0.019 N 
ENDBRANCH  10  11
ENDBRANCH   8  10
ENDBRANCH   2   7
BRANCH   1  15
ATOM     15  C   UNL d   1     -45.942  13.289  22.506  0.00  0.00     0.419 C 
ATOM     16  F   UNL d   1     -45.546  13.824  22.144  0.00  0.00    -0.166 F 
ATOM     17  F   UNL d   1     -45.764  13.348  21.659  0.00  0.00    -0.166 F 
ATOM     18  F   UNL d   1     -45.559  13.982  22.821  0.00  0.00    -0.166 F 
ENDBRANCH   1  15
TORSDOF 4
ENDMDL
MODEL 5
REMARK VINA RESULT:      -7.1      1.930      2.621
REMARK  4 active torsions:
REMARK  status: ('A' for Active; 'I' for Inactive)
REMARK    1  A    between atoms: C_2  and  C_1 
REMARK    2  A    between atoms: C_4  and  C_3 
REMARK       I    between atoms: N_6  and  C_4 
REMARK    3  A    between atoms: C_5  and  C_10 
REMARK       I    between atoms: N_9  and  C_5 
REMARK    4  A    between atoms: C_10  and  N_6 
ROOT
ATOM      1  C   UNL d   1     -50.063  12.477  22.457  0.00  0.00     0.076 A 
ATOM      2  C   UNL d   1     -49.258  12.272  22.414  0.00  0.00     0.062 A 
ATOM      3  C   UNL d   1     -50.513  12.231  23.095  0.00  0.00     0.004 A 
ATOM      4  C   UNL d   1     -48.920  11.820  23.023  0.00  0.00     0.005 A 
ATOM      5  C   UNL d   1     -49.387  11.574  23.671  0.00  0.00     0.000 A 
ATOM      6  C   UNL d   1     -50.178  11.784  23.697  0.00  0.00    -0.000 A 
ENDROOT
BRANCH   2   7
ATOM      7  C   UNL d   1     -48.798  12.515  21.775  0.00  0.00     0.279 C 
ATOM      8  N   UNL d   1     -48.174  13.044  21.893  0.00  0.00    -0.201 NA
ATOM      9  O   UNL d   1     -48.966  12.225  21.020  0.00  0.00    -0.265 OA
BRANCH   8  10
ATOM     10  C   UNL d   1     -48.010  13.331  22.650  0.00  0.00     0.166 C 
BRANCH  10  11
ATOM     11  C   UNL d   1     -47.422  13.897  22.756  0.00  0.00     0.318 C 
ATOM     12  O   UNL d   1     -47.573  14.681  22.564  0.00  0.00    -0.262 OA
ATOM     13  N   UNL d   1     -46.683  13.675  23.054  0.00  0.00    -0.083 NA
ATOM     14  N   UNL d   1     -46.096  14.241  23.160  0.00  0.00    -0.019 N 
ENDBRANCH  10  11
ENDBRANCH   8  10
ENDBRANCH   2   7
BRANCH   1  15
ATOM     15  C   UNL d   1     -50.402  12.929  21.848  0.00  0.00     0.419 C 
ATOM     16  F   UNL d   1     -50.711  13.342  21.292  0.00  0.00    -0.166 F 
ATOM     17  F   UNL d   1     -50.524  13.788  21.819  0.00  0.00    -0.166 F 
ATOM     18  F   UNL d   1     -50.716  12.674  21.098  0.00  0.00    -0.166 F 
ENDBRANCH   1  15
TORSDOF 4
ENDMDL
MODEL 6
REMARK VINA RESULT:      -6.1      2.734      3.805
REMARK  4 active torsions:
REMARK  status: ('A' for Active; 'I' for Inactive)
REMARK    1  A    between atoms: C_2  and  C_1 
REMARK    2  A    between atoms: C_4  and  C_3 
REMARK       I    between atoms: N_6  and  C_4 
REMARK    3  A    between atoms: C_5  and  C_10 
REMARK       I    between atoms: N_9  and  C_5 
REMARK    4  A    between atoms: C_10  and  N_6 
ROOT
ATOM      1  C   UNL d   1     -47.670  12.670  22.667  0.00  0.00     0.076 A 
ATOM      2  C   UNL d   1     -46.978  12.665  23.127  0.00  0.00     0.062 A 
ATOM      3  C   UNL d   1     -48.203  12.051  22.726  0.00  0.00     0.004 A 
ATOM      4  C   UNL d   1     -46.835  12.030  23.643  0.00  0.00     0.005 A 
ATOM      5  C   UNL d   1     -47.385  11.403  23.696  0.00  0.00     0.000 A 
ATOM      6  C   UNL d   1     -48.062  11.423  23.236  0.00  0.00    -0.000 A 
ENDROOT
BRANCH   2   7
ATOM      7  C   UNL d   1     -46.436  13.285  23.074  0.00  0.00     0.279 C 
ATOM      8  N   UNL d   1     -45.664  13.136  22.821  0.00  0.00    -0.201 NA
ATOM      9  O   UNL d   1     -46.673  14.050  23.275  0.00  0.00    -0.265 OA
BRANCH   8  10
ATOM     10  C   UNL d   1     -45.432  12.369  22.621  0.00  0.00     0.166 C 
BRANCH  10  11
ATOM     11  C   UNL d   1     -44.648  12.216  22.419  0.00  0.00     0.318 C 
ATOM     12  O   UNL d   1     -44.280  12.672  21.843  0.00  0.00    -0.262 OA
ATOM     13  N   UNL d   1     -44.236  11.606  22.795  0.00  0.00    -0.083 NA
ATOM     14  N   UNL d   1     -43.454  11.453  22.593  0.00  0.00    -0.019 N 
ENDBRANCH  10  11
ENDBRANCH   8  10
ENDBRANCH   2   7
BRANCH   1  15
ATOM     15  C   UNL d   1     -47.814  13.305  22.151  0.00  0.00     0.419 C 
ATOM     16  F   UNL d   1     -47.944  13.885  21.680  0.00  0.00    -0.166 F 
ATOM     17  F   UNL d   1     -47.801  13.308  21.284  0.00  0.00    -0.166 F 
ATOM     18  F   UNL d   1     -48.009  14.114  22.334  0.00  0.00    -0.166 F 
ENDBRANCH   1  15
TORSDOF 4
ENDMDL
MODEL 7
REMARK VINA RESULT:      -5.8      9.402     10.211
REMARK  4 active torsions:
REMARK  status: ('A' for Active; 'I' for Inactive)
REMARK    1  A    between atoms: C_2  and  C_1 
REMARK    2  A    between atoms: C_4  and  C_3 
REMARK       I    between atoms: N_6  and  C_4 
REMARK    3  A    between atoms: C_5  and  C_10 
REMARK       I    between atoms: N_9  and  C_5 
REMARK    4  A    between atoms: C_10  and  N_6 
ROOT
ATOM      1  C   UNL d   1     -39.689  14.521  17.102  0.00  0.00     0.076 A 
ATOM      2  C   UNL d   1     -39.719  14.055  17.789  0.00  0.00     0.062 A 
ATOM      3  C   UNL d   1     -39.077  14.420  16.567  0.00  0.00     0.004 A 
ATOM      4  C   UNL d   1     -39.126  13.490  17.925  0.00  0.00     0.005 A 
ATOM      5  C   UNL d   1     -38.505  13.394  17.374  0.00  0.00     0.000 A 
ATOM      6  C   UNL d   1     -38.491  13.861  16.702  0.00  0.00    -0.000 A 
ENDROOT
BRANCH   2   7
ATOM      7  C   UNL d   1     -40.332  14.150  18.333  0.00  0.00     0.279 C 
ATOM      8  N   UNL d   1     -40.169  14.432  19.092  0.00  0.00    -0.201 NA
ATOM      9  O   UNL d   1     -41.105  13.961  18.111  0.00  0.00    -0.265 OA
BRANCH   8  10
ATOM     10  C   UNL d   1     -39.395  14.620  19.310  0.00  0.00     0.166 C 
BRANCH  10  11
ATOM     11  C   UNL d   1     -39.238  14.914  20.062  0.00  0.00     0.318 C 
ATOM     12  O   UNL d   1     -39.490  14.497  20.723  0.00  0.00    -0.262 OA
ATOM     13  N   UNL d   1     -38.829  15.628  20.150  0.00  0.00    -0.083 NA
ATOM     14  N   UNL d   1     -38.673  15.922  20.902  0.00  0.00    -0.019 N 
ENDBRANCH  10  11
ENDBRANCH   8  10
ENDBRANCH   2   7
BRANCH   1  15
ATOM     15  C   UNL d   1     -40.282  15.087  16.966  0.00  0.00     0.419 C 
ATOM     16  F   UNL d   1     -40.823  15.603  16.841  0.00  0.00    -0.166 F 
ATOM     17  F   UNL d   1     -41.051  14.979  16.578  0.00  0.00    -0.166 F 
ATOM     18  F   UNL d   1     -40.295  15.914  17.168  0.00  0.00    -0.166 F 
ENDBRANCH   1  15
TORSDOF 4
ENDMDL
