MODEL 1
REMARK VINA RESULT:      68.4      0.000      0.000
REMARK  7 active torsions:
REMARK  status: ('A' for Active; 'I' for Inactive)
REMARK    1  A    between atoms: N_2  and  S_1 
REMARK    2  A    between atoms: C_3  and  S_1 
REMARK    3  A    between atoms: C_9  and  N_2 
REMARK    4  A    between atoms: C_6  and  O_7 
REMARK    5  A    between atoms: O_7  and  C_14 
REMARK    6  A    between atoms: C_13  and  C_9 
REMARK    7  A    between atoms: O_17  and  C_10 
ROOT
ATOM      1  C   UNL d   1      60.158  48.921  50.416  0.00  0.00     0.105 A 
ATOM      2  C   UNL d   1      59.816  49.063  51.145  0.00  0.00     0.015 A 
ATOM      3  C   UNL d   1      59.721  49.041  49.722  0.00  0.00     0.015 A 
ATOM      4  C   UNL d   1      58.605  49.443  50.495  0.00  0.00     0.100 A 
ATOM      5  C   UNL d   1      59.042  49.323  51.188  0.00  0.00     0.025 A 
ATOM      6  C   UNL d   1      58.948  49.301  49.766  0.00  0.00     0.025 A 
ENDROOT
BRANCH   1   7
ATOM      7  S   UNL d   1      60.942  48.658  50.380  0.00  0.00     0.285 S 
ATOM      8  O   UNL d   1      61.435  48.910  49.768  0.00  0.00    -0.198 OA
ATOM      9  O   UNL d   1      61.228  48.144  50.957  0.00  0.00    -0.198 OA
BRANCH   7  10
ATOM     10  N   UNL d   1      61.672  48.291  50.519  0.00  0.00    -0.155 NA
BRANCH  10  11
ATOM     11  C   UNL d   1      61.693  47.507  50.813  0.00  0.00     0.131 C 
BRANCH  11  12
ATOM     12  C   UNL d   1      61.693  46.871  50.277  0.00  0.00     0.101 A 
ATOM     13  N   UNL d   1      62.341  46.760  49.776  0.00  0.00    -0.242 NA
ATOM     14  C   UNL d   1      62.350  46.132  49.242  0.00  0.00     0.099 A 
ATOM     15  C   UNL d   1      61.703  45.606  49.207  0.00  0.00     0.021 A 
ATOM     16  C   UNL d   1      61.051  45.726  49.719  0.00  0.00     0.003 A 
ATOM     17  C   UNL d   1      61.049  46.356  50.250  0.00  0.00     0.021 A 
ENDBRANCH  11  12
ENDBRANCH  10  11
ENDBRANCH   7  10
ENDBRANCH   1   7
BRANCH   4  18
ATOM     18  O   UNL d   1      57.819  49.708  50.542  0.00  0.00    -0.305 OA
BRANCH  18  19
ATOM     19  C   UNL d   1      57.233  49.367  50.066  0.00  0.00     0.122 A 
ATOM     20  C   UNL d   1      56.836  48.694  50.325  0.00  0.00     0.117 A 
ATOM     21  C   UNL d   1      56.253  48.356  49.850  0.00  0.00     0.026 A 
ATOM     22  C   UNL d   1      56.070  48.690  49.123  0.00  0.00     0.002 A 
ATOM     23  C   UNL d   1      56.469  49.365  48.865  0.00  0.00     0.002 A 
ATOM     24  C   UNL d   1      57.053  49.703  49.340  0.00  0.00     0.027 A 
BRANCH  20  25
ATOM     25  O   UNL d   1      57.025  48.368  51.052  0.00  0.00    -0.326 OA
ATOM     26  C   UNL d   1      56.474  47.939  51.468  0.00  0.00     0.181 C 
ENDBRANCH  20  25
ENDBRANCH  18  19
ENDBRANCH   4  18
TORSDOF 7
ENDMDL
