MODEL 1
REMARK VINA RESULT:       3.0      0.000      0.000
REMARK  5 active torsions:
REMARK  status: ('A' for Active; 'I' for Inactive)
REMARK    1  A    between atoms: C_10  and  C_3 
REMARK    2  A    between atoms: N_13  and  C_4 
REMARK    3  A    between atoms: N_12  and  C_17 
REMARK    4  A    between atoms: C_16  and  N_13 
REMARK    5  A    between atoms: C_17  and  C_16 
ROOT
ATOM      1  C   UNL d   1     -41.444-122.055 -52.974  0.00  0.00     0.150 A 
ATOM      2  N   UNL d   1     -41.332-122.426 -52.242  0.00  0.00    -0.275 N 
ATOM      3  C   UNL d   1     -41.550-122.509 -53.654  0.00  0.00     0.056 A 
ATOM      4  C   UNL d   1     -41.325-123.254 -52.184  0.00  0.00     0.149 A 
ATOM      5  N   UNL d   1     -41.450-121.228 -53.020  0.00  0.00    -0.227 NA
ATOM      6  C   UNL d   1     -41.545-123.333 -53.606  0.00  0.00     0.007 A 
ATOM      7  C   UNL d   1     -41.433-123.704 -52.873  0.00  0.00     0.038 A 
ATOM      8  C   UNL d   1     -41.231-121.136 -51.603  0.00  0.00     0.084 A 
ATOM      9  C   UNL d   1     -41.343-120.765 -52.336  0.00  0.00     0.099 A 
ATOM     10  C   UNL d   1     -41.651-123.796 -54.291  0.00  0.00     0.000 C 
ATOM     11  C   UNL d   1     -41.123-120.686 -50.914  0.00  0.00     0.019 A 
ATOM     12  C   UNL d   1     -41.348-119.941 -52.384  0.00  0.00     0.021 A 
ATOM     13  C   UNL d   1     -41.130-119.858 -50.971  0.00  0.00     0.002 A 
ATOM     14  C   UNL d   1     -41.242-119.487 -51.704  0.00  0.00     0.002 A 
ENDROOT
BRANCH   4  15
ATOM     15  N   UNL d   1     -41.214-123.623 -51.456  0.00  0.00    -0.225 NA
BRANCH  15  16
ATOM     16  C   UNL d   1     -41.833-123.658 -50.912  0.00  0.00     0.120 C 
BRANCH  16  17
ATOM     17  C   UNL d   1     -41.677-123.809 -50.126  0.00  0.00     0.101 C 
BRANCH  17  18
ATOM     18  N   UNL d   1     -42.276-123.764 -49.572  0.00  0.00    -0.298 N 
ATOM     19  C   UNL d   1     -43.062-123.817 -49.813  0.00  0.00     0.107 A 
ATOM     20  C   UNL d   1     -43.670-123.772 -49.256  0.00  0.00     0.142 A 
ATOM     21  O   UNL d   1     -43.499-123.673 -48.455  0.00  0.00    -0.300 OA
ATOM     22  C   UNL d   1     -42.702-123.619 -48.216  0.00  0.00     0.142 A 
ATOM     23  C   UNL d   1     -42.096-123.664 -48.773  0.00  0.00     0.107 A 
ENDBRANCH  17  18
ENDBRANCH  16  17
ENDBRANCH  15  16
ENDBRANCH   4  15
BRANCH   3  24
ATOM     24  C   UNL d   1     -41.662-122.139 -54.383  0.00  0.00     0.125 C 
ATOM     25  N   UNL d   1     -41.223-122.337 -55.001  0.00  0.00    -0.146 N 
ENDBRANCH   3  24
TORSDOF 5
ENDMDL
