MODEL 1
REMARK VINA RESULT:      24.4      0.000      0.000
REMARK  3 active torsions:
REMARK  status: ('A' for Active; 'I' for Inactive)
REMARK    1  A    between atoms: S_4  and  C_1 
REMARK    2  A    between atoms: C_8  and  S_4 
REMARK    3  A    between atoms: C_9  and  C_8 
ROOT
ATOM      1  C   UNL d   1     -57.741 -98.758 -44.670  0.00  0.00     0.114 A 
ATOM      2  C   UNL d   1     -58.357 -98.763 -44.122  0.00  0.00     0.042 A 
ATOM      3  N   UNL d   1     -57.912 -98.756 -45.475  0.00  0.00    -0.217 NA
ATOM      4  N   UNL d   1     -59.313 -98.764 -45.182  0.00  0.00    -0.224 NA
ATOM      5  C   UNL d   1     -58.701 -98.759 -45.732  0.00  0.00     0.200 A 
ATOM      6  C   UNL d   1     -59.141 -98.766 -44.377  0.00  0.00     0.085 A 
ATOM      7  C   UNL d   1     -58.186 -98.766 -43.318  0.00  0.00     0.004 A 
ATOM      8  C   UNL d   1     -59.755 -98.771 -43.823  0.00  0.00     0.019 A 
ATOM      9  C   UNL d   1     -58.798 -98.771 -42.754  0.00  0.00     0.000 A 
ATOM     10  C   UNL d   1     -59.584 -98.773 -43.019  0.00  0.00     0.002 A 
ENDROOT
BRANCH   1  11
ATOM     11  S   UNL d   1     -56.949 -98.755 -44.412  0.00  0.00    -0.067 SA
BRANCH  11  12
ATOM     12  C   UNL d   1     -56.359 -99.062 -44.891  0.00  0.00     0.037 C 
BRANCH  12  13
ATOM     13  C   UNL d   1     -55.911 -99.705 -44.631  0.00  0.00     0.006 A 
ATOM     14  C   UNL d   1     -55.157 -99.574 -44.293  0.00  0.00     0.001 A 
ATOM     15  C   UNL d   1     -54.866 -98.805 -44.222  0.00  0.00     0.000 C 
ATOM     16  C   UNL d   1     -54.712-100.226 -44.034  0.00  0.00     0.000 A 
ATOM     17  C   UNL d   1     -55.006-100.983 -44.108  0.00  0.00     0.000 A 
ATOM     18  C   UNL d   1     -55.749-101.106 -44.441  0.00  0.00     0.000 A 
ATOM     19  C   UNL d   1     -56.208-100.470 -44.706  0.00  0.00     0.001 A 
ENDBRANCH  12  13
ENDBRANCH  11  12
ENDBRANCH   1  11
TORSDOF 3
ENDMDL
MODEL 2
REMARK VINA RESULT:      26.4      7.098      7.956
REMARK  3 active torsions:
REMARK  status: ('A' for Active; 'I' for Inactive)
REMARK    1  A    between atoms: S_4  and  C_1 
REMARK    2  A    between atoms: C_8  and  S_4 
REMARK    3  A    between atoms: C_9  and  C_8 
ROOT
ATOM      1  C   UNL d   1     -54.776-101.752 -36.878  0.00  0.00     0.114 A 
ATOM      2  C   UNL d   1     -54.775-100.927 -36.876  0.00  0.00     0.042 A 
ATOM      3  N   UNL d   1     -54.838-102.160 -36.166  0.00  0.00    -0.217 NA
ATOM      4  N   UNL d   1     -54.900-100.920 -35.455  0.00  0.00    -0.224 NA
ATOM      5  C   UNL d   1     -54.901-101.743 -35.452  0.00  0.00     0.200 A 
ATOM      6  C   UNL d   1     -54.838-100.512 -36.166  0.00  0.00     0.085 A 
ATOM      7  C   UNL d   1     -54.713-100.519 -37.588  0.00  0.00     0.004 A 
ATOM      8  C   UNL d   1     -54.837 -99.685 -36.171  0.00  0.00     0.019 A 
ATOM      9  C   UNL d   1     -54.711 -99.687 -37.600  0.00  0.00     0.000 A 
ATOM     10  C   UNL d   1     -54.774 -99.277 -36.882  0.00  0.00     0.002 A 
ENDROOT
BRANCH   1  11
ATOM     11  S   UNL d   1     -54.713-102.171 -37.595  0.00  0.00    -0.067 SA
BRANCH  11  12
ATOM     12  C   UNL d   1     -55.334-102.638 -37.855  0.00  0.00     0.037 C 
BRANCH  12  13
ATOM     13  C   UNL d   1     -55.479-102.715 -38.664  0.00  0.00     0.006 A 
ATOM     14  C   UNL d   1     -56.266-102.802 -38.936  0.00  0.00     0.001 A 
ATOM     15  C   UNL d   1     -56.889-102.811 -38.395  0.00  0.00     0.000 C 
ATOM     16  C   UNL d   1     -56.405-102.880 -39.751  0.00  0.00     0.000 A 
ATOM     17  C   UNL d   1     -55.783-102.870 -40.279  0.00  0.00     0.000 A 
ATOM     18  C   UNL d   1     -55.012-102.784 -40.006  0.00  0.00     0.000 A 
ATOM     19  C   UNL d   1     -54.851-102.706 -39.198  0.00  0.00     0.001 A 
ENDBRANCH  12  13
ENDBRANCH  11  12
ENDBRANCH   1  11
TORSDOF 3
ENDMDL
