MODEL 1
REMARK VINA RESULT:      24.1      0.000      0.000
REMARK  1 active torsions:
REMARK  status: ('A' for Active; 'I' for Inactive)
REMARK    1  A    between atoms: C_7  and  C_1 
ROOT
ATOM      1  C   UNL d   1      45.346 -14.459  44.385  0.00  0.00     0.062 A 
ATOM      2  C   UNL d   1      45.947 -14.972  44.194  0.00  0.00     0.199 A 
ATOM      3  C   UNL d   1      44.661 -14.721  44.758  0.00  0.00     0.103 A 
ATOM      4  C   UNL d   1      45.880 -15.791  44.376  0.00  0.00     0.062 A 
ATOM      5  C   UNL d   1      45.213 -16.072  44.743  0.00  0.00     0.106 A 
ATOM      6  O   UNL d   1      44.594 -15.539  44.939  0.00  0.00    -0.307 OA
ATOM      7  C   UNL d   1      45.147 -16.875  44.922  0.00  0.00     0.067 A 
ATOM      8  C   UNL d   1      46.512 -16.306  44.171  0.00  0.00     0.009 A 
ATOM      9  O   UNL d   1      46.647 -14.657  43.805  0.00  0.00    -0.286 OA
ATOM     10  C   UNL d   1      45.749 -17.384  44.730  0.00  0.00     0.198 A 
ATOM     11  C   UNL d   1      46.445 -17.124  44.353  0.00  0.00     0.042 A 
ATOM     12  C   UNL d   1      44.038 -14.188  44.955  0.00  0.00     0.027 C 
ATOM     13  O   UNL d   1      45.682 -18.199  44.911  0.00  0.00    -0.286 OA
ENDROOT
BRANCH   1  14
ATOM     14  C   UNL d   1      45.429 -13.667  44.201  0.00  0.00     0.005 A 
ATOM     15  C   UNL d   1      44.951 -13.313  43.628  0.00  0.00     0.000 A 
ATOM     16  C   UNL d   1      44.370 -13.768  43.227  0.00  0.00     0.000 C 
ATOM     17  C   UNL d   1      45.038 -12.513  43.445  0.00  0.00     0.000 A 
ATOM     18  C   UNL d   1      45.599 -12.080  43.834  0.00  0.00     0.000 A 
ATOM     19  C   UNL d   1      46.081 -12.399  44.399  0.00  0.00     0.000 A 
ATOM     20  C   UNL d   1      45.996 -13.210  44.587  0.00  0.00     0.000 A 
ENDBRANCH   1  14
TORSDOF 1
ENDMDL
MODEL 2
REMARK VINA RESULT:      25.8      2.003      4.730
REMARK  1 active torsions:
REMARK  status: ('A' for Active; 'I' for Inactive)
REMARK    1  A    between atoms: C_7  and  C_1 
ROOT
ATOM      1  C   UNL d   1      46.199 -18.210  43.668  0.00  0.00     0.062 A 
ATOM      2  C   UNL d   1      45.920 -17.551  43.283  0.00  0.00     0.199 A 
ATOM      3  C   UNL d   1      46.354 -18.200  44.476  0.00  0.00     0.103 A 
ATOM      4  C   UNL d   1      45.782 -16.837  43.707  0.00  0.00     0.062 A 
ATOM      5  C   UNL d   1      45.928 -16.804  44.504  0.00  0.00     0.106 A 
ATOM      6  O   UNL d   1      46.216 -17.487  44.900  0.00  0.00    -0.307 OA
ATOM      7  C   UNL d   1      45.792 -16.104  44.920  0.00  0.00     0.067 A 
ATOM      8  C   UNL d   1      45.493 -16.166  43.291  0.00  0.00     0.009 A 
ATOM      9  O   UNL d   1      45.770 -17.603  42.437  0.00  0.00    -0.286 OA
ATOM     10  C   UNL d   1      45.514 -15.449  44.532  0.00  0.00     0.198 A 
ATOM     11  C   UNL d   1      45.355 -15.453  43.715  0.00  0.00     0.042 A 
ATOM     12  C   UNL d   1      46.643 -18.884  44.875  0.00  0.00     0.027 C 
ATOM     13  O   UNL d   1      45.377 -14.739  44.954  0.00  0.00    -0.286 OA
ENDROOT
BRANCH   1  14
ATOM     14  C   UNL d   1      46.327 -18.894  43.239  0.00  0.00     0.005 A 
ATOM     15  C   UNL d   1      46.288 -19.634  43.602  0.00  0.00     0.000 A 
ATOM     16  C   UNL d   1      46.115 -19.692  44.422  0.00  0.00     0.000 C 
ATOM     17  C   UNL d   1      46.417 -20.323  43.166  0.00  0.00     0.000 A 
ATOM     18  C   UNL d   1      46.583 -20.262  42.377  0.00  0.00     0.000 A 
ATOM     19  C   UNL d   1      46.628 -19.550  41.995  0.00  0.00     0.000 A 
ATOM     20  C   UNL d   1      46.497 -18.851  42.434  0.00  0.00     0.000 A 
ENDBRANCH   1  14
TORSDOF 1
ENDMDL
MODEL 3
REMARK VINA RESULT:      26.1      0.648      1.614
REMARK  1 active torsions:
REMARK  status: ('A' for Active; 'I' for Inactive)
REMARK    1  A    between atoms: C_7  and  C_1 
ROOT
ATOM      1  C   UNL d   1      45.603 -14.414  44.021  0.00  0.00     0.062 A 
ATOM      2  C   UNL d   1      45.214 -14.964  44.476  0.00  0.00     0.199 A 
ATOM      3  C   UNL d   1      46.245 -14.623  43.551  0.00  0.00     0.103 A 
ATOM      4  C   UNL d   1      45.463 -15.768  44.477  0.00  0.00     0.062 A 
ATOM      5  C   UNL d   1      46.094 -15.997  44.022  0.00  0.00     0.106 A 
ATOM      6  O   UNL d   1      46.494 -15.426  43.552  0.00  0.00    -0.307 OA
ATOM      7  C   UNL d   1      46.339 -16.785  44.022  0.00  0.00     0.067 A 
ATOM      8  C   UNL d   1      45.049 -16.321  44.954  0.00  0.00     0.009 A 
ATOM      9  O   UNL d   1      44.546 -14.703  44.953  0.00  0.00    -0.286 OA
ATOM     10  C   UNL d   1      45.949 -17.331  44.478  0.00  0.00     0.198 A 
ATOM     11  C   UNL d   1      45.298 -17.124  44.955  0.00  0.00     0.042 A 
ATOM     12  C   UNL d   1      46.647 -14.053  43.080  0.00  0.00     0.027 C 
ATOM     13  O   UNL d   1      46.197 -18.131  44.478  0.00  0.00    -0.286 OA
ENDROOT
BRANCH   1  14
ATOM     14  C   UNL d   1      45.346 -13.638  44.033  0.00  0.00     0.005 A 
ATOM     15  C   UNL d   1      45.736 -13.070  44.489  0.00  0.00     0.000 A 
ATOM     16  C   UNL d   1      46.406 -13.287  44.946  0.00  0.00     0.000 C 
ATOM     17  C   UNL d   1      45.474 -12.288  44.498  0.00  0.00     0.000 A 
ATOM     18  C   UNL d   1      44.829 -12.085  44.056  0.00  0.00     0.000 A 
ATOM     19  C   UNL d   1      44.427 -12.619  43.601  0.00  0.00     0.000 A 
ATOM     20  C   UNL d   1      44.690 -13.412  43.588  0.00  0.00     0.000 A 
ENDBRANCH   1  14
TORSDOF 1
ENDMDL
MODEL 4
REMARK VINA RESULT:      26.4      7.098      8.128
REMARK  1 active torsions:
REMARK  status: ('A' for Active; 'I' for Inactive)
REMARK    1  A    between atoms: C_7  and  C_1 
ROOT
ATOM      1  C   UNL d   1      44.492 -15.433  36.735  0.00  0.00     0.062 A 
ATOM      2  C   UNL d   1      43.806 -15.017  36.868  0.00  0.00     0.199 A 
ATOM      3  C   UNL d   1      44.477 -16.210  36.467  0.00  0.00     0.103 A 
ATOM      4  C   UNL d   1      43.058 -15.379  36.731  0.00  0.00     0.062 A 
ATOM      5  C   UNL d   1      43.019 -16.144  36.467  0.00  0.00     0.106 A 
ATOM      6  O   UNL d   1      43.730 -16.571  36.331  0.00  0.00    -0.307 OA
ATOM      7  C   UNL d   1      42.286 -16.499  36.333  0.00  0.00     0.067 A 
ATOM      8  C   UNL d   1      42.359 -14.933  36.874  0.00  0.00     0.009 A 
ATOM      9  O   UNL d   1      43.865 -14.206  37.148  0.00  0.00    -0.286 OA
ATOM     10  C   UNL d   1      41.603 -16.081  36.466  0.00  0.00     0.198 A 
ATOM     11  C   UNL d   1      41.612 -15.294  36.738  0.00  0.00     0.042 A 
ATOM     12  C   UNL d   1      45.189 -16.640  36.331  0.00  0.00     0.027 C 
ATOM     13  O   UNL d   1      40.859 -16.441  36.331  0.00  0.00    -0.286 OA
ENDROOT
BRANCH   1  14
ATOM     14  C   UNL d   1      45.209 -15.065  36.873  0.00  0.00     0.005 A 
ATOM     15  C   UNL d   1      45.660 -15.254  37.538  0.00  0.00     0.000 A 
ATOM     16  C   UNL d   1      45.384 -15.830  38.084  0.00  0.00     0.000 C 
ATOM     17  C   UNL d   1      46.384 -14.881  37.674  0.00  0.00     0.000 A 
ATOM     18  C   UNL d   1      46.645 -14.327  37.146  0.00  0.00     0.000 A 
ATOM     19  C   UNL d   1      46.225 -14.122  36.486  0.00  0.00     0.000 A 
ATOM     20  C   UNL d   1      45.491 -14.498  36.346  0.00  0.00     0.000 A 
ENDBRANCH   1  14
TORSDOF 1
ENDMDL
