MODEL 1
REMARK VINA RESULT:      42.7      0.000      0.000
REMARK  5 active torsions:
REMARK  status: ('A' for Active; 'I' for Inactive)
REMARK    1  A    between atoms: N_5  and  C_1 
REMARK       I    between atoms: C_9  and  N_5 
REMARK    2  A    between atoms: C_17  and  C_9 
REMARK    3  A    between atoms: C_12  and  C_10 
REMARK    4  A    between atoms: C_11  and  S_13 
REMARK    5  A    between atoms: S_13  and  C_17 
ROOT
ATOM      1  N   UNL d   1     -50.425  25.332  33.307  0.00  0.00    -0.148 NA
ATOM      2  N   UNL d   1     -50.016  26.049  33.307  0.00  0.00    -0.141 NA
ATOM      3  C   UNL d   1     -51.254  25.327  33.307  0.00  0.00     0.104 A 
ATOM      4  C   UNL d   1     -50.422  26.760  33.307  0.00  0.00     0.133 A 
ATOM      5  C   UNL d   1     -51.666  26.044  33.306  0.00  0.00     0.023 A 
ATOM      6  C   UNL d   1     -51.255  26.757  33.306  0.00  0.00     0.029 A 
ENDROOT
BRANCH   4   7
ATOM      7  S   UNL d   1     -50.013  27.477  33.307  0.00  0.00    -0.061 SA
BRANCH   7   8
ATOM      8  C   UNL d   1     -49.951  27.920  33.995  0.00  0.00     0.099 C 
BRANCH   8   9
ATOM      9  C   UNL d   1     -49.204  28.093  34.303  0.00  0.00     0.288 C 
ATOM     10  N   UNL d   1     -49.076  28.811  34.685  0.00  0.00    -0.181 NA
ATOM     11  O   UNL d   1     -48.591  27.552  34.229  0.00  0.00    -0.265 OA
BRANCH  10  12
ATOM     12  C   UNL d   1     -48.338  28.986  34.992  0.00  0.00     0.219 A 
ATOM     13  S   UNL d   1     -48.167  29.578  35.546  0.00  0.00    -0.026 SA
ATOM     14  C   UNL d   1     -47.366  29.559  35.695  0.00  0.00     0.135 A 
ATOM     15  C   UNL d   1     -46.956  30.055  36.215  0.00  0.00     0.030 C 
ATOM     16  N   UNL d   1     -47.034  28.959  35.239  0.00  0.00    -0.139 NA
ATOM     17  N   UNL d   1     -47.634  28.604  34.803  0.00  0.00    -0.121 NA
ENDBRANCH  10  12
ENDBRANCH   8   9
ENDBRANCH   7   8
ENDBRANCH   4   7
BRANCH   3  18
ATOM     18  C   UNL d   1     -51.663  24.611  33.307  0.00  0.00     0.039 A 
ATOM     19  C   UNL d   1     -51.249  23.910  33.306  0.00  0.00     0.101 A 
ATOM     20  N   UNL d   1     -51.650  23.197  33.306  0.00  0.00    -0.242 NA
ATOM     21  C   UNL d   1     -52.482  23.191  33.307  0.00  0.00     0.099 A 
ATOM     22  C   UNL d   1     -52.894  23.897  33.308  0.00  0.00     0.021 A 
ATOM     23  C   UNL d   1     -52.493  24.620  33.308  0.00  0.00     0.005 A 
ENDBRANCH   3  18
TORSDOF 5
ENDMDL
