MODEL 1
REMARK VINA RESULT:      -3.4      0.000      0.000
REMARK  5 active torsions:
REMARK  status: ('A' for Active; 'I' for Inactive)
REMARK    1  A    between atoms: C_3  and  C_1 
REMARK    2  A    between atoms: S_2  and  C_3 
REMARK    3  A    between atoms: C_8  and  S_2 
REMARK    4  A    between atoms: C_9  and  C_3 
REMARK    5  A    between atoms: N_7  and  C_4 
ROOT
ATOM      1  C   UNL d   1     -48.105  13.292  22.229  0.00  0.00     0.128 A 
ATOM      2  C   UNL d   1     -47.769  12.784  22.780  0.00  0.00     0.166 A 
ATOM      3  N   UNL d   1     -47.717  13.986  22.013  0.00  0.00    -0.240 NA
ATOM      4  N   UNL d   1     -47.043  12.965  23.119  0.00  0.00    -0.225 NA
ATOM      5  C   UNL d   1     -46.993  14.163  22.355  0.00  0.00     0.099 A 
ATOM      6  C   UNL d   1     -46.650  13.660  22.906  0.00  0.00     0.101 A 
ATOM      7  C   UNL d   1     -45.927  13.846  23.240  0.00  0.00     0.021 A 
ATOM      8  C   UNL d   1     -46.601  14.860  22.140  0.00  0.00     0.021 A 
ATOM      9  C   UNL d   1     -45.540  14.533  23.030  0.00  0.00     0.002 A 
ATOM     10  C   UNL d   1     -45.878  15.039  22.479  0.00  0.00     0.002 A 
ENDROOT
BRANCH   1  11
ATOM     11  C   UNL d   1     -48.829  13.115  21.888  0.00  0.00     0.129 C 
BRANCH  11  12
ATOM     12  S   UNL d   1     -49.448  13.753  21.867  0.00  0.00     0.213 S 
ATOM     13  O   UNL d   1     -49.656  14.096  21.075  0.00  0.00    -0.217 OA
ATOM     14  O   UNL d   1     -49.211  13.639  21.079  0.00  0.00    -0.217 OA
BRANCH  12  15
ATOM     15  C   UNL d   1     -49.903  14.124  22.457  0.00  0.00     0.088 A 
ATOM     16  C   UNL d   1     -49.642  14.845  22.782  0.00  0.00     0.011 A 
ATOM     17  C   UNL d   1     -50.098  15.209  23.368  0.00  0.00     0.001 A 
ATOM     18  C   UNL d   1     -49.849  15.919  23.695  0.00  0.00     0.000 C 
ATOM     19  C   UNL d   1     -50.805  14.863  23.628  0.00  0.00     0.000 A 
ATOM     20  C   UNL d   1     -51.057  14.141  23.296  0.00  0.00     0.001 A 
ATOM     21  C   UNL d   1     -50.598  13.782  22.712  0.00  0.00     0.011 A 
ENDBRANCH  12  15
ENDBRANCH  11  12
BRANCH  11  22
ATOM     22  C   UNL d   1     -49.109  12.380  21.526  0.00  0.00     0.135 C 
ATOM     23  N   UNL d   1     -49.353  12.240  20.687  0.00  0.00    -0.146 N 
ENDBRANCH  11  22
ENDBRANCH   1  11
BRANCH   2  24
ATOM     24  N   UNL d   1     -48.165  12.087  22.992  0.00  0.00    -0.284 N 
ATOM     25  C   UNL d   1     -48.836  12.128  23.489  0.00  0.00     0.108 A 
ATOM     26  C   UNL d   1     -49.228  11.419  23.697  0.00  0.00     0.142 A 
ATOM     27  O   UNL d   1     -48.954  10.684  23.415  0.00  0.00    -0.300 OA
ATOM     28  C   UNL d   1     -48.288  10.658  22.924  0.00  0.00     0.142 A 
ATOM     29  C   UNL d   1     -47.890  11.352  22.710  0.00  0.00     0.108 A 
ENDBRANCH   2  24
TORSDOF 5
ENDMDL
MODEL 2
REMARK VINA RESULT:      -2.5      7.569      9.783
REMARK  5 active torsions:
REMARK  status: ('A' for Active; 'I' for Inactive)
REMARK    1  A    between atoms: C_3  and  C_1 
REMARK    2  A    between atoms: S_2  and  C_3 
REMARK    3  A    between atoms: C_8  and  S_2 
REMARK    4  A    between atoms: C_9  and  C_3 
REMARK    5  A    between atoms: N_7  and  C_4 
ROOT
ATOM      1  C   UNL d   1     -39.610  15.196  20.846  0.00  0.00     0.128 A 
ATOM      2  C   UNL d   1     -40.146  14.855  21.366  0.00  0.00     0.166 A 
ATOM      3  N   UNL d   1     -38.922  15.549  21.130  0.00  0.00    -0.240 NA
ATOM      4  N   UNL d   1     -39.999  14.865  22.174  0.00  0.00    -0.225 NA
ATOM      5  C   UNL d   1     -38.780  15.556  21.938  0.00  0.00     0.099 A 
ATOM      6  C   UNL d   1     -39.311  15.218  22.465  0.00  0.00     0.101 A 
ATOM      7  C   UNL d   1     -39.159  15.232  23.268  0.00  0.00     0.021 A 
ATOM      8  C   UNL d   1     -38.089  15.911  22.225  0.00  0.00     0.021 A 
ATOM      9  C   UNL d   1     -38.479  15.581  23.554  0.00  0.00     0.002 A 
ATOM     10  C   UNL d   1     -37.945  15.920  23.031  0.00  0.00     0.002 A 
ENDROOT
BRANCH   1  11
ATOM     11  C   UNL d   1     -39.752  15.188  20.038  0.00  0.00     0.129 C 
BRANCH  11  12
ATOM     12  S   UNL d   1     -39.078  14.980  19.497  0.00  0.00     0.213 S 
ATOM     13  O   UNL d   1     -38.587  15.648  19.180  0.00  0.00    -0.217 OA
ATOM     14  O   UNL d   1     -39.068  15.808  19.566  0.00  0.00    -0.217 OA
BRANCH  12  15
ATOM     15  C   UNL d   1     -38.785  14.257  19.205  0.00  0.00     0.088 A 
ATOM     16  C   UNL d   1     -38.952  14.038  18.419  0.00  0.00     0.011 A 
ATOM     17  C   UNL d   1     -38.658  13.319  18.133  0.00  0.00     0.001 A 
ATOM     18  C   UNL d   1     -38.817  13.094  17.360  0.00  0.00     0.000 C 
ATOM     19  C   UNL d   1     -38.206  12.824  18.620  0.00  0.00     0.000 A 
ATOM     20  C   UNL d   1     -38.046  13.054  19.405  0.00  0.00     0.001 A 
ATOM     21  C   UNL d   1     -38.340  13.772  19.686  0.00  0.00     0.011 A 
ENDBRANCH  12  15
ENDBRANCH  11  12
BRANCH  11  22
ATOM     22  C   UNL d   1     -40.479  15.356  19.600  0.00  0.00     0.135 C 
ATOM     23  N   UNL d   1     -40.585  15.876  18.891  0.00  0.00    -0.146 N 
ENDBRANCH  11  22
ENDBRANCH   1  11
BRANCH   2  24
ATOM     24  N   UNL d   1     -40.836  14.501  21.073  0.00  0.00    -0.284 N 
ATOM     25  C   UNL d   1     -41.514  14.970  20.935  0.00  0.00     0.108 A 
ATOM     26  C   UNL d   1     -42.205  14.604  20.639  0.00  0.00     0.142 A 
ATOM     27  O   UNL d   1     -42.218  13.784  20.486  0.00  0.00    -0.300 OA
ATOM     28  C   UNL d   1     -41.539  13.332  20.628  0.00  0.00     0.142 A 
ATOM     29  C   UNL d   1     -40.849  13.682  20.920  0.00  0.00     0.108 A 
ENDBRANCH   2  24
TORSDOF 5
ENDMDL
MODEL 3
REMARK VINA RESULT:      -2.1      1.315      3.867
REMARK  5 active torsions:
REMARK  status: ('A' for Active; 'I' for Inactive)
REMARK    1  A    between atoms: C_3  and  C_1 
REMARK    2  A    between atoms: S_2  and  C_3 
REMARK    3  A    between atoms: C_8  and  S_2 
REMARK    4  A    between atoms: C_9  and  C_3 
REMARK    5  A    between atoms: N_7  and  C_4 
ROOT
ATOM      1  C   UNL d   1     -49.293  13.238  22.469  0.00  0.00     0.128 A 
ATOM      2  C   UNL d   1     -49.943  13.495  22.899  0.00  0.00     0.166 A 
ATOM      3  N   UNL d   1     -49.100  12.437  22.446  0.00  0.00    -0.240 NA
ATOM      4  N   UNL d   1     -50.405  12.955  23.310  0.00  0.00    -0.225 NA
ATOM      5  C   UNL d   1     -49.565  11.902  22.858  0.00  0.00     0.099 A 
ATOM      6  C   UNL d   1     -50.217  12.151  23.291  0.00  0.00     0.101 A 
ATOM      7  C   UNL d   1     -50.673  11.608  23.698  0.00  0.00     0.021 A 
ATOM      8  C   UNL d   1     -49.374  11.096  22.837  0.00  0.00     0.021 A 
ATOM      9  C   UNL d   1     -50.486  10.814  23.678  0.00  0.00     0.002 A 
ATOM     10  C   UNL d   1     -49.836  10.560  23.247  0.00  0.00     0.002 A 
ENDROOT
BRANCH   1  11
ATOM     11  C   UNL d   1     -48.828  13.773  22.057  0.00  0.00     0.129 C 
BRANCH  11  12
ATOM     12  S   UNL d   1     -47.971  13.572  21.932  0.00  0.00     0.213 S 
ATOM     13  O   UNL d   1     -47.744  13.211  21.153  0.00  0.00    -0.217 OA
ATOM     14  O   UNL d   1     -48.361  13.351  21.233  0.00  0.00    -0.217 OA
BRANCH  12  15
ATOM     15  C   UNL d   1     -47.293  13.651  22.409  0.00  0.00     0.088 A 
ATOM     16  C   UNL d   1     -46.878  12.969  22.644  0.00  0.00     0.011 A 
ATOM     17  C   UNL d   1     -46.205  13.053  23.118  0.00  0.00     0.001 A 
ATOM     18  C   UNL d   1     -45.789  12.386  23.356  0.00  0.00     0.000 C 
ATOM     19  C   UNL d   1     -45.946  13.803  23.354  0.00  0.00     0.000 A 
ATOM     20  C   UNL d   1     -46.369  14.480  23.112  0.00  0.00     0.001 A 
ATOM     21  C   UNL d   1     -47.040  14.391  22.640  0.00  0.00     0.011 A 
ENDBRANCH  12  15
ENDBRANCH  11  12
BRANCH  11  22
ATOM     22  C   UNL d   1     -49.037  14.536  21.705  0.00  0.00     0.135 C 
ATOM     23  N   UNL d   1     -49.166  14.729  20.851  0.00  0.00    -0.146 N 
ENDBRANCH  11  22
ENDBRANCH   1  11
BRANCH   2  24
ATOM     24  N   UNL d   1     -50.131  14.302  22.918  0.00  0.00    -0.284 N 
ATOM     25  C   UNL d   1     -49.818  14.786  23.524  0.00  0.00     0.108 A 
ATOM     26  C   UNL d   1     -50.013  15.599  23.533  0.00  0.00     0.142 A 
ATOM     27  O   UNL d   1     -50.512  15.922  22.948  0.00  0.00    -0.300 OA
ATOM     28  C   UNL d   1     -50.815  15.432  22.354  0.00  0.00     0.142 A 
ATOM     29  C   UNL d   1     -50.630  14.625  22.333  0.00  0.00     0.108 A 
ENDBRANCH   2  24
TORSDOF 5
ENDMDL
MODEL 4
REMARK VINA RESULT:      -1.7      1.519      3.036
REMARK  5 active torsions:
REMARK  status: ('A' for Active; 'I' for Inactive)
REMARK    1  A    between atoms: C_3  and  C_1 
REMARK    2  A    between atoms: S_2  and  C_3 
REMARK    3  A    between atoms: C_8  and  S_2 
REMARK    4  A    between atoms: C_9  and  C_3 
REMARK    5  A    between atoms: N_7  and  C_4 
ROOT
ATOM      1  C   UNL d   1     -48.297  13.035  23.140  0.00  0.00     0.128 A 
ATOM      2  C   UNL d   1     -47.566  13.311  22.888  0.00  0.00     0.166 A 
ATOM      3  N   UNL d   1     -48.381  12.258  23.401  0.00  0.00    -0.240 NA
ATOM      4  N   UNL d   1     -46.912  12.813  22.896  0.00  0.00    -0.225 NA
ATOM      5  C   UNL d   1     -47.725  11.765  23.407  0.00  0.00     0.099 A 
ATOM      6  C   UNL d   1     -46.991  12.033  23.157  0.00  0.00     0.101 A 
ATOM      7  C   UNL d   1     -46.344  11.532  23.168  0.00  0.00     0.021 A 
ATOM      8  C   UNL d   1     -47.807  10.984  23.670  0.00  0.00     0.021 A 
ATOM      9  C   UNL d   1     -46.423  10.762  23.426  0.00  0.00     0.002 A 
ATOM     10  C   UNL d   1     -47.155  10.489  23.677  0.00  0.00     0.002 A 
ENDROOT
BRANCH   1  11
ATOM     11  C   UNL d   1     -48.952  13.528  23.133  0.00  0.00     0.129 C 
BRANCH  11  12
ATOM     12  S   UNL d   1     -49.730  13.186  22.870  0.00  0.00     0.213 S 
ATOM     13  O   UNL d   1     -50.271  12.870  23.498  0.00  0.00    -0.217 OA
ATOM     14  O   UNL d   1     -49.717  13.113  23.697  0.00  0.00    -0.217 OA
BRANCH  12  15
ATOM     15  C   UNL d   1     -50.085  13.090  22.123  0.00  0.00     0.088 A 
ATOM     16  C   UNL d   1     -50.399  13.754  21.732  0.00  0.00     0.011 A 
ATOM     17  C   UNL d   1     -50.752  13.653  20.991  0.00  0.00     0.001 A 
ATOM     18  C   UNL d   1     -51.064  14.302  20.597  0.00  0.00     0.000 C 
ATOM     19  C   UNL d   1     -50.792  12.903  20.641  0.00  0.00     0.000 A 
ATOM     20  C   UNL d   1     -50.474  12.245  21.043  0.00  0.00     0.001 A 
ATOM     21  C   UNL d   1     -50.124  12.350  21.782  0.00  0.00     0.011 A 
ENDBRANCH  12  15
ENDBRANCH  11  12
BRANCH  11  22
ATOM     22  C   UNL d   1     -49.022  14.363  23.350  0.00  0.00     0.135 C 
ATOM     23  N   UNL d   1     -49.722  14.786  23.688  0.00  0.00    -0.146 N 
ENDBRANCH  11  22
ENDBRANCH   1  11
BRANCH   2  24
ATOM     24  N   UNL d   1     -47.489  14.093  22.626  0.00  0.00    -0.284 N 
ATOM     25  C   UNL d   1     -47.397  14.709  23.184  0.00  0.00     0.108 A 
ATOM     26  C   UNL d   1     -47.320  15.495  22.910  0.00  0.00     0.142 A 
ATOM     27  O   UNL d   1     -47.335  15.662  22.093  0.00  0.00    -0.300 OA
ATOM     28  C   UNL d   1     -47.426  15.043  21.551  0.00  0.00     0.142 A 
ATOM     29  C   UNL d   1     -47.503  14.260  21.809  0.00  0.00     0.108 A 
ENDBRANCH   2  24
TORSDOF 5
ENDMDL
MODEL 5
REMARK VINA RESULT:      -1.2      7.373      9.645
REMARK  5 active torsions:
REMARK  status: ('A' for Active; 'I' for Inactive)
REMARK    1  A    between atoms: C_3  and  C_1 
REMARK    2  A    between atoms: S_2  and  C_3 
REMARK    3  A    between atoms: C_8  and  S_2 
REMARK    4  A    between atoms: C_9  and  C_3 
REMARK    5  A    between atoms: N_7  and  C_4 
ROOT
ATOM      1  C   UNL d   1     -40.075  14.336  21.192  0.00  0.00     0.128 A 
ATOM      2  C   UNL d   1     -40.057  13.701  21.712  0.00  0.00     0.166 A 
ATOM      3  N   UNL d   1     -40.771  14.528  20.795  0.00  0.00    -0.240 NA
ATOM      4  N   UNL d   1     -40.734  13.253  21.840  0.00  0.00    -0.225 NA
ATOM      5  C   UNL d   1     -41.444  14.078  20.926  0.00  0.00     0.099 A 
ATOM      6  C   UNL d   1     -41.435  13.442  21.444  0.00  0.00     0.101 A 
ATOM      7  C   UNL d   1     -42.112  13.000  21.566  0.00  0.00     0.021 A 
ATOM      8  C   UNL d   1     -42.144  14.270  20.527  0.00  0.00     0.021 A 
ATOM      9  C   UNL d   1     -42.803  13.187  21.175  0.00  0.00     0.002 A 
ATOM     10  C   UNL d   1     -42.818  13.823  20.656  0.00  0.00     0.002 A 
ENDROOT
BRANCH   1  11
ATOM     11  C   UNL d   1     -39.402  14.786  21.061  0.00  0.00     0.129 C 
BRANCH  11  12
ATOM     12  S   UNL d   1     -39.213  15.021  20.225  0.00  0.00     0.213 S 
ATOM     13  O   UNL d   1     -39.295  15.880  20.014  0.00  0.00    -0.217 OA
ATOM     14  O   UNL d   1     -39.432  15.721  20.616  0.00  0.00    -0.217 OA
BRANCH  12  15
ATOM     15  C   UNL d   1     -38.962  14.594  19.556  0.00  0.00     0.088 A 
ATOM     16  C   UNL d   1     -39.491  14.479  18.924  0.00  0.00     0.011 A 
ATOM     17  C   UNL d   1     -39.236  14.054  18.262  0.00  0.00     0.001 A 
ATOM     18  C   UNL d   1     -39.750  13.935  17.633  0.00  0.00     0.000 C 
ATOM     19  C   UNL d   1     -38.468  13.747  18.226  0.00  0.00     0.000 A 
ATOM     20  C   UNL d   1     -37.947  13.869  18.866  0.00  0.00     0.001 A 
ATOM     21  C   UNL d   1     -38.205  14.293  19.525  0.00  0.00     0.011 A 
ENDBRANCH  12  15
ENDBRANCH  11  12
BRANCH  11  22
ATOM     22  C   UNL d   1     -38.816  15.086  21.624  0.00  0.00     0.135 C 
ATOM     23  N   UNL d   1     -38.678  15.922  21.878  0.00  0.00    -0.146 N 
ENDBRANCH  11  22
ENDBRANCH   1  11
BRANCH   2  24
ATOM     24  N   UNL d   1     -39.354  13.513  22.108  0.00  0.00    -0.284 N 
ATOM     25  C   UNL d   1     -39.199  13.850  22.858  0.00  0.00     0.108 A 
ATOM     26  C   UNL d   1     -38.487  13.654  23.249  0.00  0.00     0.142 A 
ATOM     27  O   UNL d   1     -37.940  13.131  22.898  0.00  0.00    -0.300 OA
ATOM     28  C   UNL d   1     -38.106  12.804  22.156  0.00  0.00     0.142 A 
ATOM     29  C   UNL d   1     -38.807  12.990  21.757  0.00  0.00     0.108 A 
ENDBRANCH   2  24
TORSDOF 5
ENDMDL
MODEL 6
REMARK VINA RESULT:      -1.2      8.309      9.848
REMARK  5 active torsions:
REMARK  status: ('A' for Active; 'I' for Inactive)
REMARK    1  A    between atoms: C_3  and  C_1 
REMARK    2  A    between atoms: S_2  and  C_3 
REMARK    3  A    between atoms: C_8  and  S_2 
REMARK    4  A    between atoms: C_9  and  C_3 
REMARK    5  A    between atoms: N_7  and  C_4 
ROOT
ATOM      1  C   UNL d   1     -39.940  14.709  18.359  0.00  0.00     0.128 A 
ATOM      2  C   UNL d   1     -39.845  14.117  17.798  0.00  0.00     0.166 A 
ATOM      3  N   UNL d   1     -40.497  15.305  18.246  0.00  0.00    -0.240 NA
ATOM      4  N   UNL d   1     -40.306  14.117  17.118  0.00  0.00    -0.225 NA
ATOM      5  C   UNL d   1     -40.955  15.300  17.565  0.00  0.00     0.099 A 
ATOM      6  C   UNL d   1     -40.866  14.713  16.998  0.00  0.00     0.101 A 
ATOM      7  C   UNL d   1     -41.329  14.718  16.324  0.00  0.00     0.021 A 
ATOM      8  C   UNL d   1     -41.516  15.898  17.448  0.00  0.00     0.021 A 
ATOM      9  C   UNL d   1     -41.882  15.307  16.207  0.00  0.00     0.002 A 
ATOM     10  C   UNL d   1     -41.974  15.896  16.770  0.00  0.00     0.002 A 
ENDROOT
BRANCH   1  11
ATOM     11  C   UNL d   1     -39.483  14.714  19.040  0.00  0.00     0.129 C 
BRANCH  11  12
ATOM     12  S   UNL d   1     -39.873  14.943  19.805  0.00  0.00     0.213 S 
ATOM     13  O   UNL d   1     -39.955  15.810  19.977  0.00  0.00    -0.217 OA
ATOM     14  O   UNL d   1     -39.674  15.656  19.427  0.00  0.00    -0.217 OA
BRANCH  12  15
ATOM     15  C   UNL d   1     -40.199  14.504  20.432  0.00  0.00     0.088 A 
ATOM     16  C   UNL d   1     -39.787  14.456  21.154  0.00  0.00     0.011 A 
ATOM     17  C   UNL d   1     -40.115  14.018  21.774  0.00  0.00     0.001 A 
ATOM     18  C   UNL d   1     -39.717  13.965  22.490  0.00  0.00     0.000 C 
ATOM     19  C   UNL d   1     -40.842  13.632  21.680  0.00  0.00     0.000 A 
ATOM     20  C   UNL d   1     -41.246  13.687  20.953  0.00  0.00     0.001 A 
ATOM     21  C   UNL d   1     -40.915  14.125  20.337  0.00  0.00     0.011 A 
ENDBRANCH  12  15
ENDBRANCH  11  12
BRANCH  11  22
ATOM     22  C   UNL d   1     -38.644  14.524  19.148  0.00  0.00     0.135 C 
ATOM     23  N   UNL d   1     -37.970  15.081  19.280  0.00  0.00    -0.146 N 
ENDBRANCH  11  22
ENDBRANCH   1  11
BRANCH   2  24
ATOM     24  N   UNL d   1     -39.283  13.521  17.919  0.00  0.00    -0.284 N 
ATOM     25  C   UNL d   1     -38.508  13.616  17.619  0.00  0.00     0.108 A 
ATOM     26  C   UNL d   1     -37.948  13.008  17.746  0.00  0.00     0.142 A 
ATOM     27  O   UNL d   1     -38.159  12.319  18.166  0.00  0.00    -0.300 OA
ATOM     28  C   UNL d   1     -38.929  12.238  18.457  0.00  0.00     0.142 A 
ATOM     29  C   UNL d   1     -39.494  12.831  18.338  0.00  0.00     0.108 A 
ENDBRANCH   2  24
TORSDOF 5
ENDMDL
MODEL 7
REMARK VINA RESULT:      -1.0      1.453      3.411
REMARK  5 active torsions:
REMARK  status: ('A' for Active; 'I' for Inactive)
REMARK    1  A    between atoms: C_3  and  C_1 
REMARK    2  A    between atoms: S_2  and  C_3 
REMARK    3  A    between atoms: C_8  and  S_2 
REMARK    4  A    between atoms: C_9  and  C_3 
REMARK    5  A    between atoms: N_7  and  C_4 
ROOT
ATOM      1  C   UNL d   1     -48.589  13.535  23.282  0.00  0.00     0.128 A 
ATOM      2  C   UNL d   1     -48.108  14.185  23.140  0.00  0.00     0.166 A 
ATOM      3  N   UNL d   1     -49.387  13.638  23.456  0.00  0.00    -0.240 NA
ATOM      4  N   UNL d   1     -48.422  14.944  23.171  0.00  0.00    -0.225 NA
ATOM      5  C   UNL d   1     -49.696  14.398  23.485  0.00  0.00     0.099 A 
ATOM      6  C   UNL d   1     -49.222  15.053  23.344  0.00  0.00     0.101 A 
ATOM      7  C   UNL d   1     -49.541  15.806  23.376  0.00  0.00     0.021 A 
ATOM      8  C   UNL d   1     -50.498  14.504  23.659  0.00  0.00     0.021 A 
ATOM      9  C   UNL d   1     -50.331  15.913  23.548  0.00  0.00     0.002 A 
ATOM     10  C   UNL d   1     -50.809  15.260  23.689  0.00  0.00     0.002 A 
ENDROOT
BRANCH   1  11
ATOM     11  C   UNL d   1     -48.280  12.776  23.253  0.00  0.00     0.129 C 
BRANCH  11  12
ATOM     12  S   UNL d   1     -48.765  12.143  22.859  0.00  0.00     0.213 S 
ATOM     13  O   UNL d   1     -48.990  11.437  23.349  0.00  0.00    -0.217 OA
ATOM     14  O   UNL d   1     -48.643  11.885  23.640  0.00  0.00    -0.217 OA
BRANCH  12  15
ATOM     15  C   UNL d   1     -49.074  12.057  22.091  0.00  0.00     0.088 A 
ATOM     16  C   UNL d   1     -49.892  12.147  21.968  0.00  0.00     0.011 A 
ATOM     17  C   UNL d   1     -50.193  12.061  21.202  0.00  0.00     0.001 A 
ATOM     18  C   UNL d   1     -50.999  12.148  21.070  0.00  0.00     0.000 C 
ATOM     19  C   UNL d   1     -49.691  11.888  20.567  0.00  0.00     0.000 A 
ATOM     20  C   UNL d   1     -48.872  11.800  20.703  0.00  0.00     0.001 A 
ATOM     21  C   UNL d   1     -48.576  11.887  21.468  0.00  0.00     0.011 A 
ENDBRANCH  12  15
ENDBRANCH  11  12
BRANCH  11  22
ATOM     22  C   UNL d   1     -47.528  12.469  23.553  0.00  0.00     0.135 C 
ATOM     23  N   UNL d   1     -47.296  11.626  23.690  0.00  0.00    -0.146 N 
ENDBRANCH  11  22
ENDBRANCH   1  11
BRANCH   2  24
ATOM     24  N   UNL d   1     -47.305  14.074  22.966  0.00  0.00    -0.284 N 
ATOM     25  C   UNL d   1     -46.776  13.860  23.576  0.00  0.00     0.108 A 
ATOM     26  C   UNL d   1     -45.968  13.750  23.390  0.00  0.00     0.142 A 
ATOM     27  O   UNL d   1     -45.695  13.853  22.609  0.00  0.00    -0.300 OA
ATOM     28  C   UNL d   1     -46.231  14.065  22.014  0.00  0.00     0.142 A 
ATOM     29  C   UNL d   1     -47.033  14.177  22.184  0.00  0.00     0.108 A 
ENDBRANCH   2  24
TORSDOF 5
ENDMDL
MODEL 8
REMARK VINA RESULT:      -0.7      7.773      9.667
REMARK  5 active torsions:
REMARK  status: ('A' for Active; 'I' for Inactive)
REMARK    1  A    between atoms: C_3  and  C_1 
REMARK    2  A    between atoms: S_2  and  C_3 
REMARK    3  A    between atoms: C_8  and  S_2 
REMARK    4  A    between atoms: C_9  and  C_3 
REMARK    5  A    between atoms: N_7  and  C_4 
ROOT
ATOM      1  C   UNL d   1     -39.163  14.775  19.730  0.00  0.00     0.128 A 
ATOM      2  C   UNL d   1     -38.579  14.200  19.775  0.00  0.00     0.166 A 
ATOM      3  N   UNL d   1     -39.343  15.131  19.010  0.00  0.00    -0.240 NA
ATOM      4  N   UNL d   1     -38.169  13.976  19.098  0.00  0.00    -0.225 NA
ATOM      5  C   UNL d   1     -38.932  14.903  18.337  0.00  0.00     0.099 A 
ATOM      6  C   UNL d   1     -38.346  14.329  18.373  0.00  0.00     0.101 A 
ATOM      7  C   UNL d   1     -37.942  14.111  17.696  0.00  0.00     0.021 A 
ATOM      8  C   UNL d   1     -39.111  15.260  17.612  0.00  0.00     0.021 A 
ATOM      9  C   UNL d   1     -38.117  14.461  16.979  0.00  0.00     0.002 A 
ATOM     10  C   UNL d   1     -38.702  15.035  16.939  0.00  0.00     0.002 A 
ENDROOT
BRANCH   1  11
ATOM     11  C   UNL d   1     -39.575  15.002  20.403  0.00  0.00     0.129 C 
BRANCH  11  12
ATOM     12  S   UNL d   1     -40.461  15.048  20.354  0.00  0.00     0.213 S 
ATOM     13  O   UNL d   1     -40.825  15.855  20.278  0.00  0.00    -0.217 OA
ATOM     14  O   UNL d   1     -40.189  15.832  20.312  0.00  0.00    -0.217 OA
BRANCH  12  15
ATOM     15  C   UNL d   1     -41.063  14.473  20.363  0.00  0.00     0.088 A 
ATOM     16  C   UNL d   1     -41.272  14.114  21.084  0.00  0.00     0.011 A 
ATOM     17  C   UNL d   1     -41.871  13.543  21.088  0.00  0.00     0.001 A 
ATOM     18  C   UNL d   1     -42.085  13.183  21.794  0.00  0.00     0.000 C 
ATOM     19  C   UNL d   1     -42.257  13.331  20.386  0.00  0.00     0.000 A 
ATOM     20  C   UNL d   1     -42.039  13.698  19.670  0.00  0.00     0.001 A 
ATOM     21  C   UNL d   1     -41.441  14.267  19.671  0.00  0.00     0.011 A 
ENDBRANCH  12  15
ENDBRANCH  11  12
BRANCH  11  22
ATOM     22  C   UNL d   1     -39.282  15.214  21.189  0.00  0.00     0.135 C 
ATOM     23  N   UNL d   1     -39.489  15.922  21.678  0.00  0.00    -0.146 N 
ENDBRANCH  11  22
ENDBRANCH   1  11
BRANCH   2  24
ATOM     24  N   UNL d   1     -38.403  13.846  20.503  0.00  0.00    -0.284 N 
ATOM     25  C   UNL d   1     -38.114  14.315  21.131  0.00  0.00     0.108 A 
ATOM     26  C   UNL d   1     -37.940  13.949  21.862  0.00  0.00     0.142 A 
ATOM     27  O   UNL d   1     -38.052  13.129  21.963  0.00  0.00    -0.300 OA
ATOM     28  C   UNL d   1     -38.340  12.676  21.332  0.00  0.00     0.142 A 
ATOM     29  C   UNL d   1     -38.516  13.026  20.604  0.00  0.00     0.108 A 
ENDBRANCH   2  24
TORSDOF 5
ENDMDL
