MODEL 1
REMARK VINA RESULT:      15.5      0.000      0.000
REMARK  9 active torsions:
REMARK  status: ('A' for Active; 'I' for Inactive)
REMARK    1  A    between atoms: N_9  and  C_3 
REMARK    2  A    between atoms: S_14  and  C_6 
REMARK       I    between atoms: C_11  and  N_9 
REMARK    3  A    between atoms: C_18  and  C_11 
REMARK    4  A    between atoms: C_12  and  C_15 
REMARK    5  A    between atoms: O_25  and  C_12 
REMARK    6  A    between atoms: C_13  and  C_23 
REMARK       I    between atoms: N_16  and  C_13 
REMARK    7  A    between atoms: C_23  and  S_14 
REMARK    8  A    between atoms: C_24  and  N_16 
REMARK    9  A    between atoms: C_32  and  O_25 
ROOT
ATOM      1  C   UNL d   1     -43.193-122.460 -50.574  0.00  0.00     0.079 A 
ATOM      2  C   UNL d   1     -43.194-122.247 -51.381  0.00  0.00     0.187 A 
ATOM      3  C   UNL d   1     -42.557-122.869 -50.267  0.00  0.00     0.171 A 
ATOM      4  N   UNL d   1     -42.559-122.448 -51.866  0.00  0.00    -0.197 NA
ATOM      5  N   UNL d   1     -41.914-123.078 -50.738  0.00  0.00    -0.202 NA
ATOM      6  C   UNL d   1     -41.915-122.865 -51.546  0.00  0.00     0.198 A 
ATOM      7  C   UNL d   1     -43.896-122.184 -50.243  0.00  0.00     0.029 A 
ATOM      8  O   UNL d   1     -43.901-121.839 -51.541  0.00  0.00    -0.289 OA
ATOM      9  C   UNL d   1     -44.334-121.802 -50.831  0.00  0.00     0.102 A 
ATOM     10  C   UNL d   1     -44.126-122.272 -49.453  0.00  0.00     0.002 C 
ATOM     11  C   UNL d   1     -45.071-121.446 -50.737  0.00  0.00     0.027 C 
ENDROOT
BRANCH   6  12
ATOM     12  S   UNL d   1     -41.272-123.070 -52.032  0.00  0.00    -0.043 SA
BRANCH  12  13
ATOM     13  C   UNL d   1     -41.375-123.601 -52.648  0.00  0.00     0.101 C 
BRANCH  13  14
ATOM     14  C   UNL d   1     -41.455-123.324 -53.422  0.00  0.00     0.286 C 
ATOM     15  N   UNL d   1     -41.717-122.559 -53.556  0.00  0.00    -0.208 NA
ATOM     16  O   UNL d   1     -41.271-123.815 -54.060  0.00  0.00    -0.265 OA
BRANCH  15  17
ATOM     17  C   UNL d   1     -41.800-122.273 -54.326  0.00  0.00     0.085 A 
ATOM     18  C   UNL d   1     -41.489-121.543 -54.530  0.00  0.00     0.019 A 
ATOM     19  C   UNL d   1     -41.577-121.266 -55.302  0.00  0.00     0.007 A 
ATOM     20  C   UNL d   1     -41.976-121.720 -55.863  0.00  0.00     0.064 A 
ATOM     21  C   UNL d   1     -42.290-122.460 -55.651  0.00  0.00     0.007 A 
ATOM     22  C   UNL d   1     -42.203-122.736 -54.885  0.00  0.00     0.019 A 
BRANCH  20  23
ATOM     23  C   UNL d   1     -42.064-121.440 -56.640  0.00  0.00     0.300 C 
ATOM     24  O   UNL d   1     -42.613-121.790 -57.148  0.00  0.00    -0.259 OA
BRANCH  23  25
ATOM     25  O   UNL d   1     -41.601-120.810 -56.904  0.00  0.00    -0.271 OA
BRANCH  25  26
ATOM     26  C   UNL d   1     -41.560-120.630 -57.706  0.00  0.00     0.126 C 
ATOM     27  C   UNL d   1     -41.585-119.849 -57.954  0.00  0.00     0.029 C 
ENDBRANCH  25  26
ENDBRANCH  23  25
ENDBRANCH  20  23
ENDBRANCH  15  17
ENDBRANCH  13  14
ENDBRANCH  12  13
ENDBRANCH   6  12
BRANCH   3  28
ATOM     28  N   UNL d   1     -42.557-123.080 -49.469  0.00  0.00    -0.189 NA
ATOM     29  C   UNL d   1     -41.836-123.184 -49.070  0.00  0.00     0.281 C 
ATOM     30  O   UNL d   1     -41.123-123.078 -49.470  0.00  0.00    -0.265 OA
BRANCH  29  31
ATOM     31  C   UNL d   1     -41.840-123.395 -48.273  0.00  0.00     0.058 A 
ATOM     32  C   UNL d   1     -42.553-123.543 -47.894  0.00  0.00     0.005 A 
ATOM     33  C   UNL d   1     -42.562-123.752 -47.101  0.00  0.00     0.000 A 
ATOM     34  C   UNL d   1     -41.859-123.816 -46.677  0.00  0.00     0.000 A 
ATOM     35  C   UNL d   1     -41.140-123.667 -47.062  0.00  0.00     0.000 A 
ATOM     36  C   UNL d   1     -41.131-123.455 -47.864  0.00  0.00     0.005 A 
ENDBRANCH  29  31
ENDBRANCH   3  28
TORSDOF 9
ENDMDL
MODEL 2
REMARK VINA RESULT:      17.9      0.978      2.823
REMARK  9 active torsions:
REMARK  status: ('A' for Active; 'I' for Inactive)
REMARK    1  A    between atoms: N_9  and  C_3 
REMARK    2  A    between atoms: S_14  and  C_6 
REMARK       I    between atoms: C_11  and  N_9 
REMARK    3  A    between atoms: C_18  and  C_11 
REMARK    4  A    between atoms: C_12  and  C_15 
REMARK    5  A    between atoms: O_25  and  C_12 
REMARK    6  A    between atoms: C_13  and  C_23 
REMARK       I    between atoms: N_16  and  C_13 
REMARK    7  A    between atoms: C_23  and  S_14 
REMARK    8  A    between atoms: C_24  and  N_16 
REMARK    9  A    between atoms: C_32  and  O_25 
ROOT
ATOM      1  C   UNL d   1     -42.274-123.201 -48.721  0.00  0.00     0.079 A 
ATOM      2  C   UNL d   1     -41.564-123.629 -48.820  0.00  0.00     0.187 A 
ATOM      3  C   UNL d   1     -42.699-122.969 -49.378  0.00  0.00     0.171 A 
ATOM      4  N   UNL d   1     -41.292-123.817 -49.574  0.00  0.00    -0.197 NA
ATOM      5  N   UNL d   1     -42.441-123.149 -50.140  0.00  0.00    -0.202 NA
ATOM      6  C   UNL d   1     -41.731-123.578 -50.239  0.00  0.00     0.198 A 
ATOM      7  C   UNL d   1     -42.394-123.101 -47.911  0.00  0.00     0.029 A 
ATOM      8  O   UNL d   1     -41.252-123.790 -48.065  0.00  0.00    -0.289 OA
ATOM      9  C   UNL d   1     -41.770-123.461 -47.505  0.00  0.00     0.102 A 
ATOM     10  C   UNL d   1     -43.032-122.707 -47.561  0.00  0.00     0.002 C 
ATOM     11  C   UNL d   1     -41.674-123.490 -46.686  0.00  0.00     0.027 C 
ENDROOT
BRANCH   6  12
ATOM     12  S   UNL d   1     -41.460-123.766 -51.002  0.00  0.00    -0.043 SA
BRANCH  12  13
ATOM     13  C   UNL d   1     -41.123-123.186 -51.474  0.00  0.00     0.101 C 
BRANCH  13  14
ATOM     14  C   UNL d   1     -41.377-123.088 -52.253  0.00  0.00     0.286 C 
ATOM     15  N   UNL d   1     -41.265-122.368 -52.631  0.00  0.00    -0.208 NA
ATOM     16  O   UNL d   1     -41.742-123.711 -52.653  0.00  0.00    -0.265 OA
BRANCH  15  17
ATOM     17  C   UNL d   1     -41.515-122.260 -53.410  0.00  0.00     0.085 A 
ATOM     18  C   UNL d   1     -42.126-121.741 -53.577  0.00  0.00     0.019 A 
ATOM     19  C   UNL d   1     -42.369-121.639 -54.360  0.00  0.00     0.007 A 
ATOM     20  C   UNL d   1     -41.999-122.058 -54.967  0.00  0.00     0.064 A 
ATOM     21  C   UNL d   1     -41.380-122.584 -54.790  0.00  0.00     0.007 A 
ATOM     22  C   UNL d   1     -41.138-122.685 -54.015  0.00  0.00     0.019 A 
BRANCH  20  23
ATOM     23  C   UNL d   1     -42.245-121.955 -55.753  0.00  0.00     0.300 C 
ATOM     24  O   UNL d   1     -42.929-122.329 -56.026  0.00  0.00    -0.259 OA
BRANCH  23  25
ATOM     25  O   UNL d   1     -41.804-121.478 -56.262  0.00  0.00    -0.271 OA
BRANCH  25  26
ATOM     26  C   UNL d   1     -41.927-121.510 -57.075  0.00  0.00     0.126 C 
ATOM     27  C   UNL d   1     -42.325-120.902 -57.455  0.00  0.00     0.029 C 
ENDBRANCH  25  26
ENDBRANCH  23  25
ENDBRANCH  20  23
ENDBRANCH  15  17
ENDBRANCH  13  14
ENDBRANCH  12  13
ENDBRANCH   6  12
BRANCH   3  28
ATOM     28  N   UNL d   1     -43.400-122.546 -49.281  0.00  0.00    -0.189 NA
ATOM     29  C   UNL d   1     -43.693-122.082 -49.904  0.00  0.00     0.281 C 
ATOM     30  O   UNL d   1     -43.284-122.045 -50.619  0.00  0.00    -0.265 OA
BRANCH  29  31
ATOM     31  C   UNL d   1     -44.395-121.661 -49.802  0.00  0.00     0.058 A 
ATOM     32  C   UNL d   1     -44.976-121.689 -50.381  0.00  0.00     0.005 A 
ATOM     33  C   UNL d   1     -45.675-121.272 -50.284  0.00  0.00     0.000 A 
ATOM     34  C   UNL d   1     -45.802-120.821 -49.606  0.00  0.00     0.000 A 
ATOM     35  C   UNL d   1     -45.214-120.794 -49.023  0.00  0.00     0.000 A 
ATOM     36  C   UNL d   1     -44.507-121.216 -49.121  0.00  0.00     0.005 A 
ENDBRANCH  29  31
ENDBRANCH   3  28
TORSDOF 9
ENDMDL
