MODEL 1
REMARK VINA RESULT:      55.3      0.000      0.000
REMARK  5 active torsions:
REMARK  status: ('A' for Active; 'I' for Inactive)
REMARK    1  A    between atoms: N_2  and  S_1 
REMARK    2  A    between atoms: C_3  and  S_1 
REMARK    3  A    between atoms: C_6  and  O_7 
REMARK    4  A    between atoms: O_7  and  C_11 
REMARK    5  A    between atoms: O_16  and  C_8 
ROOT
ATOM      1  C   UNL d   1     -48.782  28.458  34.794  0.00  0.00     0.104 A 
ATOM      2  C   UNL d   1     -48.974  28.759  34.059  0.00  0.00     0.015 A 
ATOM      3  C   UNL d   1     -49.103  27.730  35.042  0.00  0.00     0.015 A 
ATOM      4  C   UNL d   1     -49.799  27.619  33.814  0.00  0.00     0.100 A 
ATOM      5  C   UNL d   1     -49.609  27.315  34.550  0.00  0.00     0.025 A 
ATOM      6  C   UNL d   1     -49.479  28.347  33.566  0.00  0.00     0.025 A 
ENDROOT
BRANCH   4   7
ATOM      7  O   UNL d   1     -50.314  27.203  33.307  0.00  0.00    -0.305 OA
BRANCH   7   8
ATOM      8  C   UNL d   1     -50.339  26.373  33.307  0.00  0.00     0.122 A 
ATOM      9  C   UNL d   1     -51.063  25.983  33.307  0.00  0.00     0.117 A 
ATOM     10  C   UNL d   1     -51.082  25.155  33.307  0.00  0.00     0.026 A 
ATOM     11  C   UNL d   1     -50.378  24.731  33.308  0.00  0.00     0.002 A 
ATOM     12  C   UNL d   1     -49.653  25.124  33.308  0.00  0.00     0.002 A 
ATOM     13  C   UNL d   1     -49.635  25.949  33.307  0.00  0.00     0.027 A 
BRANCH   9  14
ATOM     14  O   UNL d   1     -51.761  26.417  33.307  0.00  0.00    -0.326 OA
ATOM     15  C   UNL d   1     -52.478  26.031  33.315  0.00  0.00     0.181 C 
ENDBRANCH   9  14
ENDBRANCH   7   8
ENDBRANCH   4   7
BRANCH   1  16
ATOM     16  S   UNL d   1     -48.271  28.880  35.287  0.00  0.00     0.271 S 
ATOM     17  O   UNL d   1     -48.209  28.683  36.094  0.00  0.00    -0.200 OA
ATOM     18  O   UNL d   1     -47.818  29.499  34.983  0.00  0.00    -0.200 OA
BRANCH  16  19
ATOM     19  N   UNL d   1     -47.719  29.408  35.601  0.00  0.00    -0.229 N 
ATOM     20  C   UNL d   1     -47.392  30.067  35.212  0.00  0.00     0.092 A 
ATOM     21  C   UNL d   1     -46.863  30.446  35.723  0.00  0.00     0.021 A 
ATOM     22  C   UNL d   1     -46.855  30.028  36.433  0.00  0.00     0.021 A 
ATOM     23  C   UNL d   1     -47.380  29.386  36.366  0.00  0.00     0.092 A 
ENDBRANCH  16  19
ENDBRANCH   1  16
TORSDOF 5
ENDMDL
