MODEL 1
REMARK VINA RESULT:       2.1      0.000      0.000
REMARK  5 active torsions:
REMARK  status: ('A' for Active; 'I' for Inactive)
REMARK    1  A    between atoms: N_10  and  C_4 
REMARK    2  A    between atoms: C_11  and  N_5 
REMARK    3  A    between atoms: C_14  and  N_10 
REMARK    4  A    between atoms: C_15  and  C_11 
REMARK    5  A    between atoms: C_18  and  C_14 
ROOT
ATOM      1  C   UNL d   1      33.092  19.986 -22.106  0.00  0.00     0.191 A 
ATOM      2  C   UNL d   1      33.127  19.217 -22.254  0.00  0.00     0.174 A 
ATOM      3  N   UNL d   1      33.019  20.519 -22.693  0.00  0.00    -0.042 NA
ATOM      4  C   UNL d   1      32.983  20.262 -23.433  0.00  0.00     0.722 A 
ATOM      5  N   UNL d   1      33.019  19.470 -23.597  0.00  0.00    -0.132 N 
ATOM      6  N   UNL d   1      33.128  20.252 -21.349  0.00  0.00    -0.239 N 
ATOM      7  C   UNL d   1      33.200  19.744 -20.748  0.00  0.00     0.358 A 
ATOM      8  N   UNL d   1      33.236  18.962 -20.898  0.00  0.00    -0.152 NA
ATOM      9  C   UNL d   1      33.200  18.697 -21.647  0.00  0.00     0.303 A 
ATOM     10  O   UNL d   1      33.237  20.010 -19.990  0.00  0.00    -0.244 OA
ATOM     11  O   UNL d   1      33.237  17.896 -21.801  0.00  0.00    -0.263 OA
ATOM     12  C   UNL d   1      33.092  21.043 -21.197  0.00  0.00     0.105 C 
ENDROOT
BRANCH   4  13
ATOM     13  N   UNL d   1      32.911  20.779 -24.031  0.00  0.00    -0.137 N 
ATOM     14  C   UNL d   1      33.238  20.847 -24.785  0.00  0.00     0.118 C 
BRANCH  13  15
ATOM     15  C   UNL d   1      32.411  21.427 -23.957  0.00  0.00     0.098 C 
BRANCH  15  16
ATOM     16  C   UNL d   1      32.686  22.187 -24.139  0.00  0.00     0.018 A 
ATOM     17  C   UNL d   1      32.718  22.764 -23.542  0.00  0.00     0.002 A 
ATOM     18  C   UNL d   1      32.994  23.524 -23.724  0.00  0.00     0.000 A 
ATOM     19  C   UNL d   1      33.235  23.702 -24.496  0.00  0.00     0.000 A 
ATOM     20  C   UNL d   1      33.200  23.119 -25.088  0.00  0.00     0.000 A 
ATOM     21  C   UNL d   1      32.924  22.359 -24.906  0.00  0.00     0.002 A 
ENDBRANCH  15  16
ENDBRANCH  13  15
ENDBRANCH   4  13
BRANCH   5  22
ATOM     22  C   UNL d   1      33.019  18.847 -24.138  0.00  0.00     0.098 C 
BRANCH  22  23
ATOM     23  C   UNL d   1      32.323  18.428 -24.289  0.00  0.00     0.018 A 
ATOM     24  C   UNL d   1      32.268  17.651 -24.039  0.00  0.00     0.002 A 
ATOM     25  C   UNL d   1      31.572  17.232 -24.190  0.00  0.00     0.000 A 
ATOM     26  C   UNL d   1      31.306  16.467 -24.034  0.00  0.00     0.000 C 
ATOM     27  C   UNL d   1      30.941  17.597 -24.589  0.00  0.00     0.000 A 
ATOM     28  C   UNL d   1      31.018  18.383 -24.833  0.00  0.00     0.000 A 
ATOM     29  C   UNL d   1      31.707  18.798 -24.683  0.00  0.00     0.002 A 
ENDBRANCH  22  23
ENDBRANCH   5  22
TORSDOF 5
ENDMDL
MODEL 2
REMARK VINA RESULT:       4.6      1.410      4.087
REMARK  5 active torsions:
REMARK  status: ('A' for Active; 'I' for Inactive)
REMARK    1  A    between atoms: N_10  and  C_4 
REMARK    2  A    between atoms: C_11  and  N_5 
REMARK    3  A    between atoms: C_14  and  N_10 
REMARK    4  A    between atoms: C_15  and  C_11 
REMARK    5  A    between atoms: C_18  and  C_14 
ROOT
ATOM      1  C   UNL d   1      32.529  21.361 -21.959  0.00  0.00     0.191 A 
ATOM      2  C   UNL d   1      32.779  22.023 -22.297  0.00  0.00     0.174 A 
ATOM      3  N   UNL d   1      32.487  20.678 -22.365  0.00  0.00    -0.042 NA
ATOM      4  C   UNL d   1      32.701  20.674 -23.120  0.00  0.00     0.722 A 
ATOM      5  N   UNL d   1      32.960  21.352 -23.479  0.00  0.00    -0.132 N 
ATOM      6  N   UNL d   1      32.310  21.362 -21.186  0.00  0.00    -0.239 N 
ATOM      7  C   UNL d   1      32.342  22.027 -20.761  0.00  0.00     0.358 A 
ATOM      8  N   UNL d   1      32.596  22.700 -21.104  0.00  0.00    -0.152 NA
ATOM      9  C   UNL d   1      32.813  22.700 -21.869  0.00  0.00     0.303 A 
ATOM     10  O   UNL d   1      32.123  22.028 -19.987  0.00  0.00    -0.244 OA
ATOM     11  O   UNL d   1      33.073  23.390 -22.221  0.00  0.00    -0.263 OA
ATOM     12  C   UNL d   1      32.054  20.681 -20.839  0.00  0.00     0.105 C 
ENDROOT
BRANCH   4  13
ATOM     13  N   UNL d   1      32.665  20.002 -23.540  0.00  0.00    -0.137 N 
ATOM     14  C   UNL d   1      33.093  19.685 -24.171  0.00  0.00     0.118 C 
BRANCH  13  15
ATOM     15  C   UNL d   1      32.094  19.437 -23.366  0.00  0.00     0.098 C 
BRANCH  15  16
ATOM     16  C   UNL d   1      32.221  18.643 -23.568  0.00  0.00     0.018 A 
ATOM     17  C   UNL d   1      31.834  18.323 -24.230  0.00  0.00     0.002 A 
ATOM     18  C   UNL d   1      31.960  17.529 -24.432  0.00  0.00     0.000 A 
ATOM     19  C   UNL d   1      32.469  17.063 -23.974  0.00  0.00     0.000 A 
ATOM     20  C   UNL d   1      32.852  17.390 -23.313  0.00  0.00     0.000 A 
ATOM     21  C   UNL d   1      32.726  18.184 -23.111  0.00  0.00     0.002 A 
ENDBRANCH  15  16
ENDBRANCH  13  15
ENDBRANCH   4  13
BRANCH   5  22
ATOM     22  C   UNL d   1      33.241  21.751 -24.144  0.00  0.00     0.098 C 
BRANCH  22  23
ATOM     23  C   UNL d   1      32.814  22.383 -24.461  0.00  0.00     0.018 A 
ATOM     24  C   UNL d   1      32.008  22.297 -24.574  0.00  0.00     0.002 A 
ATOM     25  C   UNL d   1      31.580  22.929 -24.891  0.00  0.00     0.000 A 
ATOM     26  C   UNL d   1      30.790  23.060 -25.084  0.00  0.00     0.000 C 
ATOM     27  C   UNL d   1      31.966  23.637 -25.090  0.00  0.00     0.000 A 
ATOM     28  C   UNL d   1      32.781  23.702 -24.967  0.00  0.00     0.000 A 
ATOM     29  C   UNL d   1      33.204  23.076 -24.653  0.00  0.00     0.002 A 
ENDBRANCH  22  23
ENDBRANCH   5  22
TORSDOF 5
ENDMDL
