MODEL 1
REMARK VINA RESULT:      -5.5      0.000      0.000
REMARK  10 active torsions:
REMARK  status: ('A' for Active; 'I' for Inactive)
REMARK    1  A    between atoms: C_9  and  C_1 
REMARK    2  A    between atoms: C_11  and  C_2 
REMARK    3  A    between atoms: S_12  and  C_3 
REMARK    4  A    between atoms: C_16  and  C_4 
REMARK    5  A    between atoms: C_7  and  N_8 
REMARK       I    between atoms: N_8  and  C_15 
REMARK    6  A    between atoms: O_26  and  C_9 
REMARK    7  A    between atoms: C_21  and  S_12 
REMARK    8  A    between atoms: C_15  and  C_21 
REMARK    9  A    between atoms: C_24  and  C_32 
REMARK   10  A    between atoms: C_32  and  O_26 
ROOT
ATOM      1  C   UNL d   1     -48.221  14.006  22.452  0.00  0.00     0.081 A 
ATOM      2  C   UNL d   1     -47.459  12.842  22.809  0.00  0.00     0.045 A 
ATOM      3  C   UNL d   1     -46.729  13.299  22.678  0.00  0.00     0.112 A 
ATOM      4  C   UNL d   1     -48.177  13.209  22.692  0.00  0.00     0.010 A 
ATOM      5  C   UNL d   1     -47.532  14.437  22.328  0.00  0.00     0.087 A 
ATOM      6  N   UNL d   1     -46.796  14.072  22.444  0.00  0.00    -0.239 NA
ATOM      7  C   UNL d   1     -47.567  15.247  22.084  0.00  0.00     0.021 C 
ENDROOT
BRANCH   3   8
ATOM      8  S   UNL d   1     -45.935  12.971  22.783  0.00  0.00    -0.062 SA
BRANCH   8   9
ATOM      9  C   UNL d   1     -45.497  12.761  22.121  0.00  0.00     0.099 C 
BRANCH   9  10
ATOM     10  C   UNL d   1     -44.735  12.992  22.067  0.00  0.00     0.288 C 
ATOM     11  N   UNL d   1     -44.266  12.690  21.464  0.00  0.00    -0.182 NA
ATOM     12  O   UNL d   1     -44.411  13.515  22.591  0.00  0.00    -0.265 OA
BRANCH  11  13
ATOM     13  C   UNL d   1     -43.500  12.915  21.401  0.00  0.00     0.197 A 
ATOM     14  N   UNL d   1     -42.917  12.418  21.654  0.00  0.00    -0.219 NA
ATOM     15  C   UNL d   1     -42.191  12.801  21.519  0.00  0.00     0.108 A 
ATOM     16  C   UNL d   1     -42.339  13.528  21.185  0.00  0.00     0.059 A 
ATOM     17  S   UNL d   1     -43.156  13.606  21.108  0.00  0.00    -0.046 SA
ENDBRANCH  11  13
ENDBRANCH   9  10
ENDBRANCH   8   9
ENDBRANCH   3   8
BRANCH   2  18
ATOM     18  C   UNL d   1     -47.440  12.030  23.054  0.00  0.00     0.124 C 
ATOM     19  N   UNL d   1     -46.777  11.715  23.421  0.00  0.00    -0.146 N 
ENDBRANCH   2  18
BRANCH   4  20
ATOM     20  C   UNL d   1     -48.854  12.786  22.814  0.00  0.00     0.000 A 
ATOM     21  C   UNL d   1     -49.168  12.714  23.575  0.00  0.00     0.001 A 
ATOM     22  C   UNL d   1     -49.845  12.291  23.697  0.00  0.00     0.011 A 
ATOM     23  C   UNL d   1     -50.228  11.927  23.061  0.00  0.00     0.058 A 
ATOM     24  C   UNL d   1     -49.914  11.997  22.293  0.00  0.00     0.011 A 
ATOM     25 CL   UNL d   1     -50.925  11.491  23.187  0.00  0.00    -0.082 Cl
ATOM     26  C   UNL d   1     -49.224  12.429  22.169  0.00  0.00     0.001 A 
ENDBRANCH   4  20
BRANCH   1  27
ATOM     27  C   UNL d   1     -48.988  14.359  22.339  0.00  0.00     0.302 C 
ATOM     28  O   UNL d   1     -49.411  14.244  21.643  0.00  0.00    -0.259 OA
BRANCH  27  29
ATOM     29  O   UNL d   1     -49.303  14.824  22.945  0.00  0.00    -0.271 OA
BRANCH  29  30
ATOM     30  C   UNL d   1     -49.870  15.376  22.781  0.00  0.00     0.126 C 
BRANCH  30  31
ATOM     31  C   UNL d   1     -50.101  15.921  23.367  0.00  0.00     0.027 C 
ATOM     32  C   UNL d   1     -50.838  15.872  23.696  0.00  0.00     0.002 C 
ENDBRANCH  30  31
ENDBRANCH  29  30
ENDBRANCH  27  29
ENDBRANCH   1  27
TORSDOF 10
ENDMDL
MODEL 2
REMARK VINA RESULT:      -4.0      1.196      1.653
REMARK  10 active torsions:
REMARK  status: ('A' for Active; 'I' for Inactive)
REMARK    1  A    between atoms: C_9  and  C_1 
REMARK    2  A    between atoms: C_11  and  C_2 
REMARK    3  A    between atoms: S_12  and  C_3 
REMARK    4  A    between atoms: C_16  and  C_4 
REMARK    5  A    between atoms: C_7  and  N_8 
REMARK       I    between atoms: N_8  and  C_15 
REMARK    6  A    between atoms: O_26  and  C_9 
REMARK    7  A    between atoms: C_21  and  S_12 
REMARK    8  A    between atoms: C_15  and  C_21 
REMARK    9  A    between atoms: C_24  and  C_32 
REMARK   10  A    between atoms: C_32  and  O_26 
ROOT
ATOM      1  C   UNL d   1     -46.899  13.833  22.735  0.00  0.00     0.081 A 
ATOM      2  C   UNL d   1     -46.100  12.664  22.494  0.00  0.00     0.045 A 
ATOM      3  C   UNL d   1     -45.411  13.180  22.361  0.00  0.00     0.112 A 
ATOM      4  C   UNL d   1     -46.817  13.005  22.675  0.00  0.00     0.010 A 
ATOM      5  C   UNL d   1     -46.248  14.320  22.609  0.00  0.00     0.087 A 
ATOM      6  N   UNL d   1     -45.514  13.982  22.424  0.00  0.00    -0.239 NA
ATOM      7  C   UNL d   1     -46.322  15.162  22.668  0.00  0.00     0.021 C 
ENDROOT
BRANCH   3   8
ATOM      8  S   UNL d   1     -44.622  12.884  22.166  0.00  0.00    -0.062 SA
BRANCH   8   9
ATOM      9  C   UNL d   1     -44.252  13.149  21.483  0.00  0.00     0.099 C 
BRANCH   9  10
ATOM     10  C   UNL d   1     -43.460  13.084  21.417  0.00  0.00     0.288 C 
ATOM     11  N   UNL d   1     -43.015  13.753  21.243  0.00  0.00    -0.182 NA
ATOM     12  O   UNL d   1     -43.081  12.377  21.516  0.00  0.00    -0.265 OA
BRANCH  11  13
ATOM     13  C   UNL d   1     -42.219  13.697  21.174  0.00  0.00     0.197 A 
ATOM     14  N   UNL d   1     -41.861  13.927  20.488  0.00  0.00    -0.219 NA
ATOM     15  C   UNL d   1     -41.044  13.806  20.584  0.00  0.00     0.108 A 
ATOM     16  C   UNL d   1     -40.911  13.503  21.327  0.00  0.00     0.059 A 
ATOM     17  S   UNL d   1     -41.642  13.433  21.702  0.00  0.00    -0.046 SA
ENDBRANCH  11  13
ENDBRANCH   9  10
ENDBRANCH   8   9
ENDBRANCH   3   8
BRANCH   2  18
ATOM     18  C   UNL d   1     -46.043  11.819  22.439  0.00  0.00     0.124 C 
ATOM     19  N   UNL d   1     -45.526  11.399  22.921  0.00  0.00    -0.146 N 
ENDBRANCH   2  18
BRANCH   4  20
ATOM     20  C   UNL d   1     -47.456  12.527  22.798  0.00  0.00     0.000 A 
ATOM     21  C   UNL d   1     -47.943  12.312  22.166  0.00  0.00     0.001 A 
ATOM     22  C   UNL d   1     -48.581  11.834  22.289  0.00  0.00     0.011 A 
ATOM     23  C   UNL d   1     -48.752  11.555  23.048  0.00  0.00     0.058 A 
ATOM     24  C   UNL d   1     -48.263  11.769  23.688  0.00  0.00     0.011 A 
ATOM     25 CL   UNL d   1     -49.410  11.062  23.175  0.00  0.00    -0.082 Cl
ATOM     26  C   UNL d   1     -47.612  12.257  23.563  0.00  0.00     0.001 A 
ENDBRANCH   4  20
BRANCH   1  27
ATOM     27  C   UNL d   1     -47.662  14.158  22.926  0.00  0.00     0.302 C 
ATOM     28  O   UNL d   1     -47.959  14.125  23.693  0.00  0.00    -0.259 OA
BRANCH  27  29
ATOM     29  O   UNL d   1     -48.105  14.511  22.324  0.00  0.00    -0.271 OA
BRANCH  29  30
ATOM     30  C   UNL d   1     -48.675  15.054  22.503  0.00  0.00     0.126 C 
BRANCH  30  31
ATOM     31  C   UNL d   1     -49.245  15.263  21.932  0.00  0.00     0.027 C 
ATOM     32  C   UNL d   1     -50.009  15.402  22.156  0.00  0.00     0.002 C 
ENDBRANCH  30  31
ENDBRANCH  29  30
ENDBRANCH  27  29
ENDBRANCH   1  27
TORSDOF 10
ENDMDL
