MODEL 1
REMARK VINA RESULT:      -4.2      0.000      0.000
REMARK  4 active torsions:
REMARK  status: ('A' for Active; 'I' for Inactive)
REMARK    1  A    between atoms: C_2  and  C_1 
REMARK       I    between atoms: N_9  and  C_2 
REMARK    2  A    between atoms: N_4  and  C_14 
REMARK    3  A    between atoms: C_13  and  N_9 
REMARK    4  A    between atoms: C_14  and  C_13 
ROOT
ATOM      1  C   UNL d   1     -41.352-121.492 -51.327  0.00  0.00     0.281 C 
ATOM      2  O   UNL d   1     -41.123-120.775 -50.995  0.00  0.00    -0.265 OA
ATOM      3  N   UNL d   1     -41.236-121.638 -52.131  0.00  0.00    -0.205 NA
ENDROOT
BRANCH   1   4
ATOM      4  C   UNL d   1     -41.702-122.076 -50.848  0.00  0.00     0.077 A 
ATOM      5  C   UNL d   1     -42.525-122.125 -50.798  0.00  0.00     0.105 A 
ATOM      6  N   UNL d   1     -42.873-122.701 -50.326  0.00  0.00    -0.233 NA
ATOM      7  C   UNL d   1     -42.401-123.230 -49.900  0.00  0.00     0.139 A 
ATOM      8  C   UNL d   1     -41.582-123.182 -49.949  0.00  0.00     0.031 A 
ATOM      9 CL   UNL d   1     -42.750-123.816 -49.419  0.00  0.00    -0.061 Cl
ATOM     10  C   UNL d   1     -41.230-122.605 -50.422  0.00  0.00     0.009 A 
ENDBRANCH   1   4
BRANCH   3  11
ATOM     11  C   UNL d   1     -41.464-122.355 -52.464  0.00  0.00     0.121 C 
BRANCH  11  12
ATOM     12  C   UNL d   1     -41.123-122.620 -53.162  0.00  0.00     0.101 C 
BRANCH  12  13
ATOM     13  N   UNL d   1     -41.583-122.708 -53.838  0.00  0.00    -0.298 N 
ATOM     14  C   UNL d   1     -41.826-123.455 -54.078  0.00  0.00     0.107 A 
ATOM     15  C   UNL d   1     -42.291-123.543 -54.761  0.00  0.00     0.142 A 
ATOM     16  O   UNL d   1     -42.509-122.884 -55.199  0.00  0.00    -0.300 OA
ATOM     17  C   UNL d   1     -42.267-122.128 -54.961  0.00  0.00     0.142 A 
ATOM     18  C   UNL d   1     -41.802-122.039 -54.278  0.00  0.00     0.107 A 
ENDBRANCH  12  13
ENDBRANCH  11  12
ENDBRANCH   3  11
TORSDOF 4
ENDMDL
MODEL 2
REMARK VINA RESULT:      -2.9      1.212      1.509
REMARK  4 active torsions:
REMARK  status: ('A' for Active; 'I' for Inactive)
REMARK    1  A    between atoms: C_2  and  C_1 
REMARK       I    between atoms: N_9  and  C_2 
REMARK    2  A    between atoms: N_4  and  C_14 
REMARK    3  A    between atoms: C_13  and  N_9 
REMARK    4  A    between atoms: C_14  and  C_13 
ROOT
ATOM      1  C   UNL d   1     -42.870-122.236 -50.649  0.00  0.00     0.281 C 
ATOM      2  O   UNL d   1     -43.607-121.913 -50.476  0.00  0.00    -0.265 OA
ATOM      3  N   UNL d   1     -42.552-122.170 -51.408  0.00  0.00    -0.205 NA
ENDROOT
BRANCH   1   4
ATOM      4  C   UNL d   1     -42.442-122.633 -50.055  0.00  0.00     0.077 A 
ATOM      5  C   UNL d   1     -41.811-122.254 -49.682  0.00  0.00     0.105 A 
ATOM      6  N   UNL d   1     -41.387-122.643 -49.095  0.00  0.00    -0.233 NA
ATOM      7  C   UNL d   1     -41.593-123.413 -48.877  0.00  0.00     0.139 A 
ATOM      8  C   UNL d   1     -42.222-123.792 -49.247  0.00  0.00     0.031 A 
ATOM      9 CL   UNL d   1     -41.167-123.814 -48.282  0.00  0.00    -0.061 Cl
ATOM     10  C   UNL d   1     -42.648-123.403 -49.836  0.00  0.00     0.009 A 
ENDBRANCH   1   4
BRANCH   3  11
ATOM     11  C   UNL d   1     -41.815-122.493 -51.582  0.00  0.00     0.121 C 
BRANCH  11  12
ATOM     12  C   UNL d   1     -41.379-122.219 -52.222  0.00  0.00     0.101 C 
BRANCH  12  13
ATOM     13  N   UNL d   1     -41.400-122.624 -52.938  0.00  0.00    -0.298 N 
ATOM     14  C   UNL d   1     -41.124-123.395 -52.984  0.00  0.00     0.107 A 
ATOM     15  C   UNL d   1     -41.146-123.804 -53.707  0.00  0.00     0.142 A 
ATOM     16  O   UNL d   1     -41.443-123.437 -54.379  0.00  0.00    -0.300 OA
ATOM     17  C   UNL d   1     -41.723-122.657 -54.337  0.00  0.00     0.142 A 
ATOM     18  C   UNL d   1     -41.701-122.249 -53.614  0.00  0.00     0.107 A 
ENDBRANCH  12  13
ENDBRANCH  11  12
ENDBRANCH   3  11
TORSDOF 4
ENDMDL
