MODEL 1
REMARK VINA RESULT:      -4.7      0.000      0.000
REMARK  8 active torsions:
REMARK  status: ('A' for Active; 'I' for Inactive)
REMARK    1  A    between atoms: N_6  and  C_1 
REMARK    2  A    between atoms: N_7  and  C_2 
REMARK       I    between atoms: C_8  and  N_6 
REMARK       I    between atoms: C_9  and  N_7 
REMARK    3  A    between atoms: C_14  and  C_8 
REMARK    4  A    between atoms: C_15  and  C_9 
REMARK    5  A    between atoms: O_12  and  C_14 
REMARK    6  A    between atoms: C_16  and  O_12 
REMARK    7  A    between atoms: O_13  and  C_15 
REMARK    8  A    between atoms: C_17  and  O_13 
ROOT
ATOM      1  C   UNL d   1      58.688   0.464  30.024  0.00  0.00     0.232 A 
ATOM      2  C   UNL d   1      58.347   0.538  30.771  0.00  0.00     0.232 A 
ATOM      3  N   UNL d   1      58.063   0.343  29.486  0.00  0.00    -0.081 NA
ATOM      4  N   UNL d   1      57.542   0.466  30.699  0.00  0.00    -0.081 NA
ATOM      5  O   UNL d   1      57.355   0.348  29.928  0.00  0.00    -0.103 OA
ENDROOT
BRANCH   1   6
ATOM      6  N   UNL d   1      59.509   0.517  29.941  0.00  0.00    -0.182 NA
ATOM      7  C   UNL d   1      59.913  -0.050  29.488  0.00  0.00     0.306 C 
ATOM      8  O   UNL d   1      60.733  -0.013  29.395  0.00  0.00    -0.263 OA
BRANCH   7   9
ATOM      9  C   UNL d   1      59.485  -0.665  29.122  0.00  0.00     0.185 C 
BRANCH   9  10
ATOM     10  O   UNL d   1      59.885  -1.225  28.659  0.00  0.00    -0.300 OA
BRANCH  10  11
ATOM     11  C   UNL d   1      59.680  -2.022  28.701  0.00  0.00     0.100 A 
ATOM     12  C   UNL d   1      60.246  -2.567  28.964  0.00  0.00     0.025 A 
ATOM     13  C   UNL d   1      60.045  -3.365  29.007  0.00  0.00     0.002 A 
ATOM     14  C   UNL d   1      59.296  -3.622  28.795  0.00  0.00     0.000 A 
ATOM     15  C   UNL d   1      58.727  -3.076  28.531  0.00  0.00     0.002 A 
ATOM     16  C   UNL d   1      58.925  -2.267  28.485  0.00  0.00     0.025 A 
ENDBRANCH  10  11
ENDBRANCH   9  10
ENDBRANCH   7   9
ENDBRANCH   1   6
BRANCH   2  17
ATOM     17  N   UNL d   1      58.773   0.668  31.489  0.00  0.00    -0.182 NA
ATOM     18  C   UNL d   1      58.413   0.544  32.223  0.00  0.00     0.306 C 
ATOM     19  O   UNL d   1      58.836   0.673  32.907  0.00  0.00    -0.263 OA
BRANCH  18  20
ATOM     20  C   UNL d   1      57.613   0.287  32.253  0.00  0.00     0.185 C 
BRANCH  20  21
ATOM     21  O   UNL d   1      57.155   0.413  32.922  0.00  0.00    -0.300 OA
BRANCH  21  22
ATOM     22  C   UNL d   1      56.490  -0.060  33.053  0.00  0.00     0.100 A 
ATOM     23  C   UNL d   1      55.786   0.246  33.345  0.00  0.00     0.025 A 
ATOM     24  C   UNL d   1      55.109  -0.192  33.486  0.00  0.00     0.002 A 
ATOM     25  C   UNL d   1      55.168  -1.012  33.310  0.00  0.00     0.000 A 
ATOM     26  C   UNL d   1      55.868  -1.330  33.017  0.00  0.00     0.002 A 
ATOM     27  C   UNL d   1      56.534  -0.865  32.885  0.00  0.00     0.025 A 
ENDBRANCH  21  22
ENDBRANCH  20  21
ENDBRANCH  18  20
ENDBRANCH   2  17
TORSDOF 8
ENDMDL
MODEL 2
REMARK VINA RESULT:      -2.5      1.209      5.486
REMARK  8 active torsions:
REMARK  status: ('A' for Active; 'I' for Inactive)
REMARK    1  A    between atoms: N_6  and  C_1 
REMARK    2  A    between atoms: N_7  and  C_2 
REMARK       I    between atoms: C_8  and  N_6 
REMARK       I    between atoms: C_9  and  N_7 
REMARK    3  A    between atoms: C_14  and  C_8 
REMARK    4  A    between atoms: C_15  and  C_9 
REMARK    5  A    between atoms: O_12  and  C_14 
REMARK    6  A    between atoms: C_16  and  O_12 
REMARK    7  A    between atoms: O_13  and  C_15 
REMARK    8  A    between atoms: C_17  and  O_13 
ROOT
ATOM      1  C   UNL d   1      57.622   0.012  31.280  0.00  0.00     0.232 A 
ATOM      2  C   UNL d   1      57.990   0.402  30.653  0.00  0.00     0.232 A 
ATOM      3  N   UNL d   1      58.186  -0.039  31.892  0.00  0.00    -0.081 NA
ATOM      4  N   UNL d   1      58.750   0.585  30.868  0.00  0.00    -0.081 NA
ATOM      5  O   UNL d   1      58.883   0.324  31.615  0.00  0.00    -0.103 OA
ENDROOT
BRANCH   1   6
ATOM      6  N   UNL d   1      56.838  -0.238  31.205  0.00  0.00    -0.182 NA
ATOM      7  C   UNL d   1      56.318  -0.158  31.847  0.00  0.00     0.306 C 
ATOM      8  O   UNL d   1      55.531  -0.401  31.790  0.00  0.00    -0.263 OA
BRANCH   7   9
ATOM      9  C   UNL d   1      56.595   0.174  32.561  0.00  0.00     0.185 C 
BRANCH   9  10
ATOM     10  O   UNL d   1      56.101   0.674  33.000  0.00  0.00    -0.300 OA
BRANCH  10  11
ATOM     11  C   UNL d   1      56.132   0.671  33.824  0.00  0.00     0.100 A 
ATOM     12  C   UNL d   1      55.423   0.660  34.252  0.00  0.00     0.025 A 
ATOM     13  C   UNL d   1      55.451   0.656  35.076  0.00  0.00     0.002 A 
ATOM     14  C   UNL d   1      56.168   0.664  35.472  0.00  0.00     0.000 A 
ATOM     15  C   UNL d   1      56.881   0.675  35.043  0.00  0.00     0.002 A 
ATOM     16  C   UNL d   1      56.859   0.679  34.210  0.00  0.00     0.025 A 
ENDBRANCH  10  11
ENDBRANCH   9  10
ENDBRANCH   7   9
ENDBRANCH   1   6
BRANCH   2  17
ATOM     17  N   UNL d   1      57.626   0.578  29.911  0.00  0.00    -0.182 NA
ATOM     18  C   UNL d   1      57.984   0.353  29.201  0.00  0.00     0.306 C 
ATOM     19  O   UNL d   1      57.622   0.529  28.492  0.00  0.00    -0.263 OA
BRANCH  18  20
ATOM     20  C   UNL d   1      58.719  -0.056  29.219  0.00  0.00     0.185 C 
BRANCH  20  21
ATOM     21  O   UNL d   1      59.039  -0.376  28.535  0.00  0.00    -0.300 OA
BRANCH  21  22
ATOM     22  C   UNL d   1      59.583  -0.996  28.594  0.00  0.00     0.100 A 
ATOM     23  C   UNL d   1      59.348  -1.782  28.636  0.00  0.00     0.025 A 
ATOM     24  C   UNL d   1      59.857  -2.419  28.695  0.00  0.00     0.002 A 
ATOM     25  C   UNL d   1      60.675  -2.226  28.712  0.00  0.00     0.000 A 
ATOM     26  C   UNL d   1      60.922  -1.443  28.671  0.00  0.00     0.002 A 
ATOM     27  C   UNL d   1      60.387  -0.821  28.612  0.00  0.00     0.025 A 
ENDBRANCH  21  22
ENDBRANCH  20  21
ENDBRANCH  18  20
ENDBRANCH   2  17
TORSDOF 8
ENDMDL
