MODEL 1
REMARK VINA RESULT:      -3.3      0.000      0.000
REMARK  3 active torsions:
REMARK  status: ('A' for Active; 'I' for Inactive)
REMARK    1  A    between atoms: C_10  and  C_3 
REMARK    2  A    between atoms: O_13  and  C_10 
REMARK    3  A    between atoms: C_12  and  O_13 
ROOT
ATOM      1  C   UNL d   1      32.587  22.173 -21.170  0.00  0.00     0.002 A 
ATOM      2  C   UNL d   1      32.487  21.503 -21.640  0.00  0.00     0.025 A 
ATOM      3  C   UNL d   1      32.967  22.106 -20.428  0.00  0.00     0.000 A 
ATOM      4  C   UNL d   1      33.240  21.371 -20.169  0.00  0.00     0.002 A 
ATOM      5  C   UNL d   1      32.757  20.772 -21.384  0.00  0.00     0.100 A 
ATOM      6  C   UNL d   1      33.137  20.705 -20.642  0.00  0.00     0.025 A 
ATOM      7  C   UNL d   1      32.319  22.904 -21.422  0.00  0.00     0.000 A 
ATOM      8  C   UNL d   1      33.069  22.771 -19.956  0.00  0.00     0.000 A 
ATOM      9  C   UNL d   1      32.417  23.574 -20.957  0.00  0.00     0.000 A 
ATOM     10  C   UNL d   1      32.796  23.507 -20.215  0.00  0.00     0.000 A 
ENDROOT
BRANCH   5  11
ATOM     11  O   UNL d   1      32.657  20.098 -21.854  0.00  0.00    -0.304 OA
BRANCH  11  12
ATOM     12  C   UNL d   1      33.241  19.901 -22.412  0.00  0.00     0.142 C 
BRANCH  12  13
ATOM     13  C   UNL d   1      33.110  19.290 -22.951  0.00  0.00     0.115 A 
ATOM     14  N   UNL d   1      33.089  19.359 -23.775  0.00  0.00    -0.217 NA
ATOM     15  C   UNL d   1      32.942  18.610 -24.090  0.00  0.00     0.215 A 
ATOM     16  S   UNL d   1      32.873  18.077 -23.456  0.00  0.00    -0.045 SA
ATOM     17  N   UNL d   1      32.877  18.429 -24.891  0.00  0.00    -0.120 N 
ATOM     18  C   UNL d   1      32.976  18.494 -22.753  0.00  0.00     0.060 A 
ENDBRANCH  12  13
ENDBRANCH  11  12
ENDBRANCH   5  11
TORSDOF 3
ENDMDL
MODEL 2
REMARK VINA RESULT:      -3.1      1.233      1.835
REMARK  3 active torsions:
REMARK  status: ('A' for Active; 'I' for Inactive)
REMARK    1  A    between atoms: C_10  and  C_3 
REMARK    2  A    between atoms: O_13  and  C_10 
REMARK    3  A    between atoms: C_12  and  O_13 
ROOT
ATOM      1  C   UNL d   1      32.867  20.866 -21.388  0.00  0.00     0.002 A 
ATOM      2  C   UNL d   1      32.870  20.061 -21.567  0.00  0.00     0.025 A 
ATOM      3  C   UNL d   1      33.054  21.424 -21.983  0.00  0.00     0.000 A 
ATOM      4  C   UNL d   1      33.240  21.167 -22.746  0.00  0.00     0.002 A 
ATOM      5  C   UNL d   1      33.055  19.805 -22.325  0.00  0.00     0.100 A 
ATOM      6  C   UNL d   1      33.241  20.362 -22.920  0.00  0.00     0.025 A 
ATOM      7  C   UNL d   1      32.684  21.125 -20.635  0.00  0.00     0.000 A 
ATOM      8  C   UNL d   1      33.053  22.228 -21.810  0.00  0.00     0.000 A 
ATOM      9  C   UNL d   1      32.680  21.927 -20.452  0.00  0.00     0.000 A 
ATOM     10  C   UNL d   1      32.867  22.484 -21.047  0.00  0.00     0.000 A 
ENDROOT
BRANCH   5  11
ATOM     11  O   UNL d   1      33.058  18.997 -22.507  0.00  0.00    -0.304 OA
BRANCH  11  12
ATOM     12  C   UNL d   1      32.732  18.740 -23.227  0.00  0.00     0.142 C 
BRANCH  12  13
ATOM     13  C   UNL d   1      32.625  17.935 -23.370  0.00  0.00     0.115 A 
ATOM     14  N   UNL d   1      31.911  17.558 -23.545  0.00  0.00    -0.217 NA
ATOM     15  C   UNL d   1      32.064  16.752 -23.646  0.00  0.00     0.215 A 
ATOM     16  S   UNL d   1      32.879  16.634 -23.532  0.00  0.00    -0.045 SA
ATOM     17  N   UNL d   1      31.506  16.175 -23.827  0.00  0.00    -0.120 N 
ATOM     18  C   UNL d   1      33.227  17.361 -23.362  0.00  0.00     0.060 A 
ENDBRANCH  12  13
ENDBRANCH  11  12
ENDBRANCH   5  11
TORSDOF 3
ENDMDL
MODEL 3
REMARK VINA RESULT:      -2.9      3.300      4.913
REMARK  3 active torsions:
REMARK  status: ('A' for Active; 'I' for Inactive)
REMARK    1  A    between atoms: C_10  and  C_3 
REMARK    2  A    between atoms: O_13  and  C_10 
REMARK    3  A    between atoms: C_12  and  O_13 
ROOT
ATOM      1  C   UNL d   1      32.975  20.874 -21.427  0.00  0.00     0.002 A 
ATOM      2  C   UNL d   1      32.846  21.276 -20.719  0.00  0.00     0.025 A 
ATOM      3  C   UNL d   1      32.998  21.297 -22.147  0.00  0.00     0.000 A 
ATOM      4  C   UNL d   1      32.891  22.117 -22.147  0.00  0.00     0.002 A 
ATOM      5  C   UNL d   1      32.740  22.091 -20.718  0.00  0.00     0.100 A 
ATOM      6  C   UNL d   1      32.762  22.514 -21.438  0.00  0.00     0.025 A 
ATOM      7  C   UNL d   1      33.082  20.063 -21.432  0.00  0.00     0.000 A 
ATOM      8  C   UNL d   1      33.126  20.901 -22.856  0.00  0.00     0.000 A 
ATOM      9  C   UNL d   1      33.211  19.657 -22.135  0.00  0.00     0.000 A 
ATOM     10  C   UNL d   1      33.233  20.081 -22.855  0.00  0.00     0.000 A 
ENDROOT
BRANCH   5  11
ATOM     11  O   UNL d   1      32.610  22.497 -20.008  0.00  0.00    -0.304 OA
BRANCH  11  12
ATOM     12  C   UNL d   1      33.241  22.601 -19.477  0.00  0.00     0.142 C 
BRANCH  12  13
ATOM     13  C   UNL d   1      33.101  22.890 -18.718  0.00  0.00     0.115 A 
ATOM     14  N   UNL d   1      33.229  22.487 -18.008  0.00  0.00    -0.217 NA
ATOM     15  C   UNL d   1      33.013  22.987 -17.387  0.00  0.00     0.215 A 
ATOM     16  S   UNL d   1      32.749  23.702 -17.718  0.00  0.00    -0.045 SA
ATOM     17  N   UNL d   1      33.053  22.804 -16.585  0.00  0.00    -0.120 N 
ATOM     18  C   UNL d   1      32.802  23.646 -18.538  0.00  0.00     0.060 A 
ENDBRANCH  12  13
ENDBRANCH  11  12
ENDBRANCH   5  11
TORSDOF 3
ENDMDL
MODEL 4
REMARK VINA RESULT:      -2.5      2.211      5.267
REMARK  3 active torsions:
REMARK  status: ('A' for Active; 'I' for Inactive)
REMARK    1  A    between atoms: C_10  and  C_3 
REMARK    2  A    between atoms: O_13  and  C_10 
REMARK    3  A    between atoms: C_12  and  O_13 
ROOT
ATOM      1  C   UNL d   1      31.670  16.977 -23.841  0.00  0.00     0.002 A 
ATOM      2  C   UNL d   1      31.842  17.610 -23.342  0.00  0.00     0.025 A 
ATOM      3  C   UNL d   1      32.290  16.577 -24.234  0.00  0.00     0.000 A 
ATOM      4  C   UNL d   1      33.073  16.818 -24.120  0.00  0.00     0.002 A 
ATOM      5  C   UNL d   1      32.619  17.849 -23.228  0.00  0.00     0.100 A 
ATOM      6  C   UNL d   1      33.239  17.450 -23.620  0.00  0.00     0.025 A 
ATOM      7  C   UNL d   1      30.897  16.735 -23.957  0.00  0.00     0.000 A 
ATOM      8  C   UNL d   1      32.125  15.945 -24.733  0.00  0.00     0.000 A 
ATOM      9  C   UNL d   1      30.721  16.104 -24.455  0.00  0.00     0.000 A 
ATOM     10  C   UNL d   1      31.342  15.705 -24.847  0.00  0.00     0.000 A 
ENDROOT
BRANCH   5  11
ATOM     11  O   UNL d   1      32.793  18.485 -22.727  0.00  0.00    -0.304 OA
BRANCH  11  12
ATOM     12  C   UNL d   1      32.881  19.246 -23.049  0.00  0.00     0.142 C 
BRANCH  12  13
ATOM     13  C   UNL d   1      32.932  19.903 -22.554  0.00  0.00     0.115 A 
ATOM     14  N   UNL d   1      32.690  19.942 -21.764  0.00  0.00    -0.217 NA
ATOM     15  C   UNL d   1      32.845  20.705 -21.487  0.00  0.00     0.215 A 
ATOM     16  S   UNL d   1      33.185  21.137 -22.110  0.00  0.00    -0.045 SA
ATOM     17  N   UNL d   1      32.689  20.982 -20.727  0.00  0.00    -0.120 N 
ATOM     18  C   UNL d   1      33.240  20.645 -22.769  0.00  0.00     0.060 A 
ENDBRANCH  12  13
ENDBRANCH  11  12
ENDBRANCH   5  11
TORSDOF 3
ENDMDL
MODEL 5
REMARK VINA RESULT:      -2.4      3.580      6.096
REMARK  3 active torsions:
REMARK  status: ('A' for Active; 'I' for Inactive)
REMARK    1  A    between atoms: C_10  and  C_3 
REMARK    2  A    between atoms: O_13  and  C_10 
REMARK    3  A    between atoms: C_12  and  O_13 
ROOT
ATOM      1  C   UNL d   1      29.193  16.597 -24.012  0.00  0.00     0.002 A 
ATOM      2  C   UNL d   1      29.804  17.145 -23.934  0.00  0.00     0.025 A 
ATOM      3  C   UNL d   1      29.241  16.001 -24.596  0.00  0.00     0.000 A 
ATOM      4  C   UNL d   1      29.901  15.963 -25.093  0.00  0.00     0.002 A 
ATOM      5  C   UNL d   1      30.460  17.108 -24.427  0.00  0.00     0.100 A 
ATOM      6  C   UNL d   1      30.508  16.512 -25.012  0.00  0.00     0.025 A 
ATOM      7  C   UNL d   1      28.538  16.631 -23.522  0.00  0.00     0.000 A 
ATOM      8  C   UNL d   1      28.634  15.453 -24.678  0.00  0.00     0.000 A 
ATOM      9  C   UNL d   1      27.927  16.087 -23.596  0.00  0.00     0.000 A 
ATOM     10  C   UNL d   1      27.975  15.491 -24.181  0.00  0.00     0.000 A 
ENDROOT
BRANCH   5  11
ATOM     11  O   UNL d   1      31.075  17.657 -24.351  0.00  0.00    -0.304 OA
BRANCH  11  12
ATOM     12  C   UNL d   1      31.683  17.514 -23.803  0.00  0.00     0.142 C 
BRANCH  12  13
ATOM     13  C   UNL d   1      32.224  18.108 -23.618  0.00  0.00     0.115 A 
ATOM     14  N   UNL d   1      32.353  18.439 -22.872  0.00  0.00    -0.217 NA
ATOM     15  C   UNL d   1      32.943  19.014 -22.946  0.00  0.00     0.215 A 
ATOM     16  S   UNL d   1      33.176  19.036 -23.743  0.00  0.00    -0.045 SA
ATOM     17  N   UNL d   1      33.241  19.479 -22.335  0.00  0.00    -0.120 N 
ATOM     18  C   UNL d   1      32.735  18.479 -24.160  0.00  0.00     0.060 A 
ENDBRANCH  12  13
ENDBRANCH  11  12
ENDBRANCH   5  11
TORSDOF 3
ENDMDL
MODEL 6
REMARK VINA RESULT:      -2.1      3.758      5.152
REMARK  3 active torsions:
REMARK  status: ('A' for Active; 'I' for Inactive)
REMARK    1  A    between atoms: C_10  and  C_3 
REMARK    2  A    between atoms: O_13  and  C_10 
REMARK    3  A    between atoms: C_12  and  O_13 
ROOT
ATOM      1  C   UNL d   1      32.238  18.326 -23.688  0.00  0.00     0.002 A 
ATOM      2  C   UNL d   1      31.737  17.703 -23.488  0.00  0.00     0.025 A 
ATOM      3  C   UNL d   1      32.323  18.549 -24.489  0.00  0.00     0.000 A 
ATOM      4  C   UNL d   1      31.906  18.144 -25.077  0.00  0.00     0.002 A 
ATOM      5  C   UNL d   1      31.321  17.300 -24.071  0.00  0.00     0.100 A 
ATOM      6  C   UNL d   1      31.407  17.523 -24.872  0.00  0.00     0.025 A 
ATOM      7  C   UNL d   1      32.654  18.729 -23.110  0.00  0.00     0.000 A 
ATOM      8  C   UNL d   1      32.822  19.169 -24.695  0.00  0.00     0.000 A 
ATOM      9  C   UNL d   1      33.154  19.351 -23.306  0.00  0.00     0.000 A 
ATOM     10  C   UNL d   1      33.240  19.574 -24.107  0.00  0.00     0.000 A 
ENDROOT
BRANCH   5  11
ATOM     11  O   UNL d   1      30.818  16.674 -23.871  0.00  0.00    -0.304 OA
BRANCH  11  12
ATOM     12  C   UNL d   1      30.042  16.665 -24.169  0.00  0.00     0.142 C 
BRANCH  12  13
ATOM     13  C   UNL d   1      29.454  16.234 -23.784  0.00  0.00     0.115 A 
ATOM     14  N   UNL d   1      28.665  16.162 -24.017  0.00  0.00    -0.217 NA
ATOM     15  C   UNL d   1      28.278  15.679 -23.469  0.00  0.00     0.215 A 
ATOM     16  S   UNL d   1      28.835  15.453 -22.895  0.00  0.00    -0.045 SA
ATOM     17  N   UNL d   1      27.484  15.464 -23.492  0.00  0.00    -0.120 N 
ATOM     18  C   UNL d   1      29.560  15.793 -23.086  0.00  0.00     0.060 A 
ENDBRANCH  12  13
ENDBRANCH  11  12
ENDBRANCH   5  11
TORSDOF 3
ENDMDL
MODEL 7
REMARK VINA RESULT:      -0.3      2.639      3.132
REMARK  3 active torsions:
REMARK  status: ('A' for Active; 'I' for Inactive)
REMARK    1  A    between atoms: C_10  and  C_3 
REMARK    2  A    between atoms: O_13  and  C_10 
REMARK    3  A    between atoms: C_12  and  O_13 
ROOT
ATOM      1  C   UNL d   1      32.977  23.141 -19.757  0.00  0.00     0.002 A 
ATOM      2  C   UNL d   1      33.101  23.366 -20.540  0.00  0.00     0.025 A 
ATOM      3  C   UNL d   1      32.752  22.355 -19.582  0.00  0.00     0.000 A 
ATOM      4  C   UNL d   1      32.655  21.807 -20.194  0.00  0.00     0.002 A 
ATOM      5  C   UNL d   1      33.005  22.824 -21.149  0.00  0.00     0.100 A 
ATOM      6  C   UNL d   1      32.780  22.038 -20.974  0.00  0.00     0.025 A 
ATOM      7  C   UNL d   1      33.072  23.679 -19.148  0.00  0.00     0.000 A 
ATOM      8  C   UNL d   1      32.627  22.124 -18.803  0.00  0.00     0.000 A 
ATOM      9  C   UNL d   1      32.949  23.458 -18.366  0.00  0.00     0.000 A 
ATOM     10  C   UNL d   1      32.725  22.672 -18.191  0.00  0.00     0.000 A 
ENDROOT
BRANCH   5  11
ATOM     11  O   UNL d   1      33.129  23.048 -21.936  0.00  0.00    -0.304 OA
BRANCH  11  12
ATOM     12  C   UNL d   1      32.475  23.238 -22.413  0.00  0.00     0.142 C 
BRANCH  12  13
ATOM     13  C   UNL d   1      32.536  23.199 -23.235  0.00  0.00     0.115 A 
ATOM     14  N   UNL d   1      32.990  22.661 -23.669  0.00  0.00    -0.217 NA
ATOM     15  C   UNL d   1      32.885  22.826 -24.471  0.00  0.00     0.215 A 
ATOM     16  S   UNL d   1      32.363  23.470 -24.531  0.00  0.00    -0.045 SA
ATOM     17  N   UNL d   1      33.237  22.422 -25.096  0.00  0.00    -0.120 N 
ATOM     18  C   UNL d   1      32.146  23.702 -23.771  0.00  0.00     0.060 A 
ENDBRANCH  12  13
ENDBRANCH  11  12
ENDBRANCH   5  11
TORSDOF 3
ENDMDL
