MODEL 1
REMARK VINA RESULT:      42.5      0.000      0.000
REMARK  5 active torsions:
REMARK  status: ('A' for Active; 'I' for Inactive)
REMARK       I    between atoms: C_2  and  N_1 
REMARK    1  A    between atoms: C_5  and  N_1 
REMARK    2  A    between atoms: C_6  and  N_1 
REMARK    3  A    between atoms: C_4  and  C_2 
REMARK    4  A    between atoms: N_3  and  C_5 
REMARK    5  A    between atoms: O_16  and  C_11 
ROOT
ATOM      1  N   UNL d   1      14.025  13.272  -2.438  0.00  0.00    -0.256 N 
ATOM      2  C   UNL d   1      13.775  12.578  -2.061  0.00  0.00     0.270 C 
ATOM      3  O   UNL d   1      13.165  12.175  -2.310  0.00  0.00    -0.266 OA
ENDROOT
BRANCH   1   4
ATOM      4  C   UNL d   1      14.680  13.690  -2.158  0.00  0.00     0.172 C 
BRANCH   4   5
ATOM      5  N   UNL d   1      14.728  14.433  -1.805  0.00  0.00    -0.257 N 
ATOM      6  C   UNL d   1      14.792  15.161  -2.182  0.00  0.00     0.266 A 
ATOM      7  O   UNL d   1      14.820  15.280  -3.004  0.00  0.00    -0.267 OA
ATOM      8  C   UNL d   1      14.824  15.759  -1.605  0.00  0.00     0.063 A 
ATOM      9  C   UNL d   1      14.779  15.396  -0.864  0.00  0.00     0.024 A 
ATOM     10  C   UNL d   1      14.720  14.580  -0.976  0.00  0.00     0.085 A 
ENDBRANCH   4   5
ENDBRANCH   1   4
BRANCH   1  11
ATOM     11  C   UNL d   1      13.616  13.551  -3.102  0.00  0.00     0.090 A 
ATOM     12  C   UNL d   1      13.436  13.034  -3.724  0.00  0.00     0.110 A 
ATOM     13  C   UNL d   1      13.033  13.315  -4.376  0.00  0.00     0.026 A 
ATOM     14  C   UNL d   1      12.807  14.100  -4.418  0.00  0.00     0.002 A 
ATOM     15  C   UNL d   1      12.984  14.607  -3.808  0.00  0.00     0.002 A 
ATOM     16  C   UNL d   1      13.387  14.348  -3.145  0.00  0.00     0.020 A 
BRANCH  12  17
ATOM     17  O   UNL d   1      13.661  12.253  -3.682  0.00  0.00    -0.327 OA
ATOM     18  C   UNL d   1      13.611  11.779  -4.351  0.00  0.00     0.181 C 
ENDBRANCH  12  17
ENDBRANCH   1  11
BRANCH   2  19
ATOM     19  C   UNL d   1      14.189  12.311  -1.404  0.00  0.00     0.111 A 
ATOM     20  C   UNL d   1      14.998  12.108  -1.479  0.00  0.00     0.147 A 
ATOM     21  F   UNL d   1      15.374  12.175  -2.201  0.00  0.00    -0.204 F 
ATOM     22  C   UNL d   1      15.397  11.843  -0.808  0.00  0.00     0.030 A 
ATOM     23  C   UNL d   1      15.002  11.782  -0.085  0.00  0.00     0.005 A 
ATOM     24  C   UNL d   1      14.205  11.985  -0.023  0.00  0.00     0.030 A 
ATOM     25  C   UNL d   1      13.803  12.248  -0.681  0.00  0.00     0.147 A 
ATOM     26  F   UNL d   1      13.004  12.452  -0.624  0.00  0.00    -0.204 F 
ENDBRANCH   2  19
TORSDOF 5
ENDMDL
MODEL 2
REMARK VINA RESULT:      44.6      1.161      3.198
REMARK  5 active torsions:
REMARK  status: ('A' for Active; 'I' for Inactive)
REMARK       I    between atoms: C_2  and  N_1 
REMARK    1  A    between atoms: C_5  and  N_1 
REMARK    2  A    between atoms: C_6  and  N_1 
REMARK    3  A    between atoms: C_4  and  C_2 
REMARK    4  A    between atoms: N_3  and  C_5 
REMARK    5  A    between atoms: O_16  and  C_11 
ROOT
ATOM      1  N   UNL d   1      14.287  13.682  -2.030  0.00  0.00    -0.256 N 
ATOM      2  C   UNL d   1      13.664  13.737  -2.574  0.00  0.00     0.270 C 
ATOM      3  O   UNL d   1      13.235  14.376  -2.640  0.00  0.00    -0.266 OA
ENDROOT
BRANCH   1   4
ATOM      4  C   UNL d   1      14.735  12.990  -1.974  0.00  0.00     0.172 C 
BRANCH   4   5
ATOM      5  N   UNL d   1      14.977  12.564  -1.311  0.00  0.00    -0.257 N 
ATOM      6  C   UNL d   1      15.658  12.108  -1.234  0.00  0.00     0.266 A 
ATOM      7  O   UNL d   1      16.234  11.994  -1.821  0.00  0.00    -0.267 OA
ATOM      8  C   UNL d   1      15.673  11.779  -0.469  0.00  0.00     0.063 A 
ATOM      9  C   UNL d   1      14.996  12.035  -0.072  0.00  0.00     0.024 A 
ATOM     10  C   UNL d   1      14.561  12.518  -0.581  0.00  0.00     0.085 A 
ENDBRANCH   4   5
ENDBRANCH   1   4
BRANCH   1  11
ATOM     11  C   UNL d   1      14.464  14.324  -1.538  0.00  0.00     0.090 A 
ATOM     12  C   UNL d   1      14.804  15.008  -1.859  0.00  0.00     0.110 A 
ATOM     13  C   UNL d   1      14.976  15.639  -1.368  0.00  0.00     0.026 A 
ATOM     14  C   UNL d   1      14.815  15.598  -0.567  0.00  0.00     0.002 A 
ATOM     15  C   UNL d   1      14.481  14.926  -0.254  0.00  0.00     0.002 A 
ATOM     16  C   UNL d   1      14.300  14.283  -0.725  0.00  0.00     0.020 A 
BRANCH  12  17
ATOM     17  O   UNL d   1      14.964  15.049  -2.655  0.00  0.00    -0.327 OA
ATOM     18  C   UNL d   1      14.926  15.772  -3.041  0.00  0.00     0.181 C 
ENDBRANCH  12  17
ENDBRANCH   1  11
BRANCH   2  19
ATOM     19  C   UNL d   1      13.499  13.093  -3.056  0.00  0.00     0.111 A 
ATOM     20  C   UNL d   1      13.129  12.416  -2.730  0.00  0.00     0.147 A 
ATOM     21  F   UNL d   1      12.933  12.396  -1.937  0.00  0.00    -0.204 F 
ATOM     22  C   UNL d   1      12.971  11.780  -3.229  0.00  0.00     0.030 A 
ATOM     23  C   UNL d   1      13.175  11.817  -4.029  0.00  0.00     0.005 A 
ATOM     24  C   UNL d   1      13.539  12.489  -4.339  0.00  0.00     0.030 A 
ATOM     25  C   UNL d   1      13.699  13.122  -3.853  0.00  0.00     0.147 A 
ATOM     26  F   UNL d   1      14.064  13.798  -4.159  0.00  0.00    -0.204 F 
ENDBRANCH   2  19
TORSDOF 5
ENDMDL
