MODEL 1
REMARK VINA RESULT:      69.8      0.000      0.000
REMARK  4 active torsions:
REMARK  status: ('A' for Active; 'I' for Inactive)
REMARK    1  A    between atoms: C_11  and  C_4 
REMARK    2  A    between atoms: N_10  and  C_5 
REMARK    3  A    between atoms: C_13  and  N_10 
REMARK    4  A    between atoms: C_14  and  C_13 
ROOT
ATOM      1  N   UNL d   1     -50.121  26.820  33.895  0.00  0.00    -0.195 N 
ATOM      2  C   UNL d   1     -50.339  26.050  33.693  0.00  0.00     0.167 A 
ATOM      3  N   UNL d   1     -50.805  27.239  34.059  0.00  0.00    -0.163 NA
ATOM      4  C   UNL d   1     -51.157  25.995  33.732  0.00  0.00     0.055 A 
ATOM      5  C   UNL d   1     -49.327  27.035  33.903  0.00  0.00     0.167 A 
ATOM      6  C   UNL d   1     -51.447  26.728  33.957  0.00  0.00     0.104 A 
ATOM      7  N   UNL d   1     -49.763  25.497  33.499  0.00  0.00    -0.227 NA
ATOM      8  C   UNL d   1     -48.743  26.479  33.708  0.00  0.00     0.058 A 
ATOM      9  C   UNL d   1     -48.961  25.709  33.505  0.00  0.00     0.086 A 
ATOM     10  C   UNL d   1     -52.242  26.921  34.064  0.00  0.00     0.023 C 
ATOM     11  C   UNL d   1     -48.384  25.143  33.308  0.00  0.00     0.021 C 
ENDROOT
BRANCH   5  12
ATOM     12  N   UNL d   1     -49.109  27.804  34.106  0.00  0.00    -0.224 NA
BRANCH  12  13
ATOM     13  C   UNL d   1     -48.314  28.004  34.170  0.00  0.00     0.120 C 
BRANCH  13  14
ATOM     14  C   UNL d   1     -48.070  28.553  34.735  0.00  0.00     0.101 A 
ATOM     15  N   UNL d   1     -48.508  28.649  35.433  0.00  0.00    -0.242 NA
ATOM     16  C   UNL d   1     -48.263  29.201  36.001  0.00  0.00     0.099 A 
ATOM     17  C   UNL d   1     -47.581  29.654  35.867  0.00  0.00     0.021 A 
ATOM     18  C   UNL d   1     -47.149  29.557  35.174  0.00  0.00     0.003 A 
ATOM     19  C   UNL d   1     -47.394  29.004  34.606  0.00  0.00     0.021 A 
ENDBRANCH  13  14
ENDBRANCH  12  13
ENDBRANCH   5  12
BRANCH   4  20
ATOM     20  C   UNL d   1     -51.681  25.374  33.591  0.00  0.00     0.004 A 
ATOM     21  C   UNL d   1     -51.398  24.594  33.560  0.00  0.00     0.000 A 
ATOM     22  C   UNL d   1     -51.922  23.972  33.419  0.00  0.00     0.000 A 
ATOM     23  C   UNL d   1     -52.726  24.122  33.310  0.00  0.00     0.000 A 
ATOM     24  C   UNL d   1     -53.007  24.904  33.341  0.00  0.00     0.000 A 
ATOM     25  C   UNL d   1     -52.485  25.523  33.481  0.00  0.00     0.000 A 
ENDBRANCH   4  20
TORSDOF 4
ENDMDL
