MODEL 1
REMARK VINA RESULT:       5.6      0.000      0.000
REMARK  5 active torsions:
REMARK  status: ('A' for Active; 'I' for Inactive)
REMARK    1  A    between atoms: C_10  and  C_3 
REMARK    2  A    between atoms: N_9  and  C_4 
REMARK    3  A    between atoms: C_16  and  N_12 
REMARK    4  A    between atoms: O_21  and  C_15 
REMARK    5  A    between atoms: C_20  and  C_16 
ROOT
ATOM      1  N   UNL d   1      57.449   0.026  31.617  0.00  0.00    -0.196 N 
ATOM      2  C   UNL d   1      57.135   0.067  32.376  0.00  0.00     0.167 A 
ATOM      3  C   UNL d   1      56.381  -0.102  32.500  0.00  0.00     0.057 A 
ATOM      4  C   UNL d   1      58.229   0.206  31.522  0.00  0.00     0.152 A 
ATOM      5  N   UNL d   1      56.219  -0.357  31.140  0.00  0.00    -0.163 NA
ATOM      6  C   UNL d   1      55.913  -0.317  31.877  0.00  0.00     0.104 A 
ATOM      7  N   UNL d   1      57.618   0.285  32.993  0.00  0.00    -0.227 NA
ATOM      8  C   UNL d   1      58.693   0.418  32.126  0.00  0.00     0.057 A 
ATOM      9  C   UNL d   1      58.383   0.458  32.873  0.00  0.00     0.086 A 
ATOM     10  C   UNL d   1      55.113  -0.499  31.999  0.00  0.00     0.023 C 
ATOM     11  C   UNL d   1      58.872   0.681  33.510  0.00  0.00     0.021 C 
ENDROOT
BRANCH   4  12
ATOM     12  N   UNL d   1      58.550   0.165  30.748  0.00  0.00    -0.286 N 
ATOM     13  C   UNL d   1      58.963  -0.549  30.750  0.00  0.00     0.101 A 
ATOM     14  C   UNL d   1      59.370  -0.800  30.068  0.00  0.00     0.100 A 
ATOM     15  N   UNL d   1      59.369  -0.339  29.376  0.00  0.00    -0.300 N 
ATOM     16  C   UNL d   1      58.951   0.386  29.371  0.00  0.00     0.100 A 
ATOM     17  C   UNL d   1      58.539   0.645  30.055  0.00  0.00     0.101 A 
BRANCH  15  18
ATOM     18  C   UNL d   1      59.783  -0.602  28.694  0.00  0.00     0.080 C 
BRANCH  18  19
ATOM     19  C   UNL d   1      59.965  -1.416  28.615  0.00  0.00     0.018 A 
ATOM     20  C   UNL d   1      59.351  -1.974  28.550  0.00  0.00     0.002 A 
ATOM     21  C   UNL d   1      59.533  -2.787  28.471  0.00  0.00     0.000 A 
ATOM     22  C   UNL d   1      60.324  -3.025  28.460  0.00  0.00     0.000 A 
ATOM     23  C   UNL d   1      60.941  -2.464  28.526  0.00  0.00     0.000 A 
ATOM     24  C   UNL d   1      60.752  -1.660  28.603  0.00  0.00     0.002 A 
ENDBRANCH  18  19
ENDBRANCH  15  18
ENDBRANCH   4  12
BRANCH   3  25
ATOM     25  C   UNL d   1      56.073  -0.062  33.243  0.00  0.00     0.027 A 
ATOM     26  C   UNL d   1      55.938  -0.739  33.665  0.00  0.00     0.094 A 
ATOM     27  C   UNL d   1      55.631  -0.700  34.404  0.00  0.00     0.024 A 
ATOM     28  C   UNL d   1      55.459   0.017  34.723  0.00  0.00     0.002 A 
ATOM     29  C   UNL d   1      55.594   0.682  34.301  0.00  0.00     0.000 A 
ATOM     30  C   UNL d   1      55.896   0.643  33.574  0.00  0.00     0.002 A 
BRANCH  26  31
ATOM     31  O   UNL d   1      56.121  -1.479  33.326  0.00  0.00    -0.328 OA
ATOM     32  C   UNL d   1      55.920  -2.185  33.733  0.00  0.00     0.181 C 
ENDBRANCH  26  31
ENDBRANCH   3  25
TORSDOF 5
ENDMDL
MODEL 2
REMARK VINA RESULT:       8.5      1.523      5.718
REMARK  5 active torsions:
REMARK  status: ('A' for Active; 'I' for Inactive)
REMARK    1  A    between atoms: C_10  and  C_3 
REMARK    2  A    between atoms: N_9  and  C_4 
REMARK    3  A    between atoms: C_16  and  N_12 
REMARK    4  A    between atoms: O_21  and  C_15 
REMARK    5  A    between atoms: C_20  and  C_16 
ROOT
ATOM      1  N   UNL d   1      58.273   0.216  31.515  0.00  0.00    -0.196 N 
ATOM      2  C   UNL d   1      58.588   0.099  30.765  0.00  0.00     0.167 A 
ATOM      3  C   UNL d   1      59.362   0.116  30.654  0.00  0.00     0.057 A 
ATOM      4  C   UNL d   1      57.471   0.191  31.597  0.00  0.00     0.152 A 
ATOM      5  N   UNL d   1      59.545   0.364  32.013  0.00  0.00    -0.163 NA
ATOM      6  C   UNL d   1      59.850   0.251  31.284  0.00  0.00     0.104 A 
ATOM      7  N   UNL d   1      58.082  -0.036  30.141  0.00  0.00    -0.227 NA
ATOM      8  C   UNL d   1      56.987   0.061  30.987  0.00  0.00     0.057 A 
ATOM      9  C   UNL d   1      57.297  -0.055  30.247  0.00  0.00     0.086 A 
ATOM     10  C   UNL d   1      60.673   0.271  31.176  0.00  0.00     0.023 C 
ATOM     11  C   UNL d   1      56.786  -0.193  29.603  0.00  0.00     0.021 C 
ENDROOT
BRANCH   4  12
ATOM     12  N   UNL d   1      57.150   0.311  32.362  0.00  0.00    -0.286 N 
ATOM     13  C   UNL d   1      56.412  -0.054  32.319  0.00  0.00     0.101 A 
ATOM     14  C   UNL d   1      55.906  -0.058  32.982  0.00  0.00     0.100 A 
ATOM     15  N   UNL d   1      56.135   0.303  33.695  0.00  0.00    -0.300 N 
ATOM     16  C   UNL d   1      56.883   0.674  33.742  0.00  0.00     0.100 A 
ATOM     17  C   UNL d   1      57.397   0.682  33.078  0.00  0.00     0.101 A 
BRANCH  15  18
ATOM     18  C   UNL d   1      55.617   0.292  34.357  0.00  0.00     0.080 C 
BRANCH  18  19
ATOM     19  C   UNL d   1      54.797   0.417  34.236  0.00  0.00     0.018 A 
ATOM     20  C   UNL d   1      54.275   0.401  34.884  0.00  0.00     0.002 A 
ATOM     21  C   UNL d   1      53.457   0.527  34.763  0.00  0.00     0.000 A 
ATOM     22  C   UNL d   1      53.178   0.665  33.997  0.00  0.00     0.000 A 
ATOM     23  C   UNL d   1      53.703   0.681  33.346  0.00  0.00     0.000 A 
ATOM     24  C   UNL d   1      54.512   0.556  33.475  0.00  0.00     0.002 A 
ENDBRANCH  18  19
ENDBRANCH  15  18
ENDBRANCH   4  12
BRANCH   3  25
ATOM     25  C   UNL d   1      59.670   0.002  29.920  0.00  0.00     0.027 A 
ATOM     26  C   UNL d   1      60.027  -0.700  29.732  0.00  0.00     0.094 A 
ATOM     27  C   UNL d   1      60.333  -0.814  29.001  0.00  0.00     0.024 A 
ATOM     28  C   UNL d   1      60.284  -0.226  28.456  0.00  0.00     0.002 A 
ATOM     29  C   UNL d   1      59.931   0.464  28.647  0.00  0.00     0.000 A 
ATOM     30  C   UNL d   1      59.629   0.577  29.366  0.00  0.00     0.002 A 
BRANCH  26  31
ATOM     31  O   UNL d   1      60.073  -1.304  30.305  0.00  0.00    -0.328 OA
ATOM     32  C   UNL d   1      60.068  -2.107  30.064  0.00  0.00     0.181 C 
ENDBRANCH  26  31
ENDBRANCH   3  25
TORSDOF 5
ENDMDL
