MODEL 1
REMARK VINA RESULT:      -7.6      0.000      0.000
REMARK  3 active torsions:
REMARK  status: ('A' for Active; 'I' for Inactive)
REMARK    1  A    between atoms: C_8  and  N_1 
REMARK    2  A    between atoms: O_16  and  C_11 
REMARK    3  A    between atoms: C_19  and  O_16 
ROOT
ATOM      1  N   UNL d   1      52.076  33.192  53.528  0.00  0.00    -0.240 N 
ATOM      2  C   UNL d   1      52.173  32.431  53.253  0.00  0.00     0.267 A 
ATOM      3  C   UNL d   1      52.580  33.624  54.021  0.00  0.00     0.267 A 
ATOM      4  C   UNL d   1      53.301  33.399  54.355  0.00  0.00     0.057 A 
ATOM      5  C   UNL d   1      52.790  31.906  53.393  0.00  0.00     0.057 A 
ATOM      6  C   UNL d   1      53.691  32.683  54.275  0.00  0.00     0.005 A 
ATOM      7  C   UNL d   1      53.469  32.013  53.848  0.00  0.00     0.005 A 
ATOM      8  O   UNL d   1      51.565  32.147  52.763  0.00  0.00    -0.267 OA
ATOM      9  O   UNL d   1      52.322  34.388  54.201  0.00  0.00    -0.267 OA
ATOM     10  C   UNL d   1      53.622  33.997  54.811  0.00  0.00     0.005 A 
ATOM     11  C   UNL d   1      52.667  31.199  53.008  0.00  0.00     0.005 A 
ATOM     12  C   UNL d   1      54.021  31.412  53.915  0.00  0.00     0.000 A 
ATOM     13  C   UNL d   1      54.418  32.562  54.659  0.00  0.00     0.000 A 
ATOM     14  C   UNL d   1      54.743  33.167  55.119  0.00  0.00     0.000 A 
ATOM     15  C   UNL d   1      53.901  30.696  53.529  0.00  0.00     0.000 A 
ATOM     16  C   UNL d   1      53.218  30.588  53.071  0.00  0.00     0.000 A 
ATOM     17  C   UNL d   1      54.349  33.877  55.194  0.00  0.00     0.000 A 
ENDROOT
BRANCH   1  18
ATOM     18  C   UNL d   1      51.385  33.579  53.283  0.00  0.00     0.092 A 
ATOM     19  C   UNL d   1      51.393  34.045  52.601  0.00  0.00     0.116 A 
ATOM     20  C   UNL d   1      50.702  34.431  52.356  0.00  0.00     0.026 A 
ATOM     21  C   UNL d   1      49.998  34.351  52.798  0.00  0.00     0.002 A 
ATOM     22  C   UNL d   1      49.996  33.879  53.488  0.00  0.00     0.002 A 
ATOM     23  C   UNL d   1      50.687  33.495  53.729  0.00  0.00     0.020 A 
BRANCH  19  24
ATOM     24  O   UNL d   1      52.091  34.122  52.165  0.00  0.00    -0.304 OA
BRANCH  24  25
ATOM     25  C   UNL d   1      52.085  34.559  51.472  0.00  0.00     0.123 C 
ATOM     26  C   UNL d   1      52.799  34.801  51.143  0.00  0.00     0.029 C 
ENDBRANCH  24  25
ENDBRANCH  19  24
ENDBRANCH   1  18
TORSDOF 3
ENDMDL
MODEL 2
REMARK VINA RESULT:      -7.6      0.016      2.037
REMARK  3 active torsions:
REMARK  status: ('A' for Active; 'I' for Inactive)
REMARK    1  A    between atoms: C_8  and  N_1 
REMARK    2  A    between atoms: O_16  and  C_11 
REMARK    3  A    between atoms: C_19  and  O_16 
ROOT
ATOM      1  N   UNL d   1      52.082  33.188  53.533  0.00  0.00    -0.240 N 
ATOM      2  C   UNL d   1      52.577  33.616  54.020  0.00  0.00     0.267 A 
ATOM      3  C   UNL d   1      52.185  32.418  53.252  0.00  0.00     0.267 A 
ATOM      4  C   UNL d   1      52.806  31.891  53.391  0.00  0.00     0.057 A 
ATOM      5  C   UNL d   1      53.295  33.392  54.351  0.00  0.00     0.057 A 
ATOM      6  C   UNL d   1      53.476  32.012  53.847  0.00  0.00     0.005 A 
ATOM      7  C   UNL d   1      53.700  32.678  54.277  0.00  0.00     0.005 A 
ATOM      8  O   UNL d   1      52.319  34.384  54.206  0.00  0.00    -0.267 OA
ATOM      9  O   UNL d   1      51.579  32.140  52.765  0.00  0.00    -0.267 OA
ATOM     10  C   UNL d   1      52.690  31.179  53.005  0.00  0.00     0.005 A 
ATOM     11  C   UNL d   1      53.608  33.992  54.806  0.00  0.00     0.005 A 
ATOM     12  C   UNL d   1      54.417  32.568  54.659  0.00  0.00     0.000 A 
ATOM     13  C   UNL d   1      54.042  31.408  53.918  0.00  0.00     0.000 A 
ATOM     14  C   UNL d   1      53.926  30.689  53.528  0.00  0.00     0.000 A 
ATOM     15  C   UNL d   1      54.737  33.170  55.118  0.00  0.00     0.000 A 
ATOM     16  C   UNL d   1      54.329  33.889  55.193  0.00  0.00     0.000 A 
ATOM     17  C   UNL d   1      53.256  30.576  53.076  0.00  0.00     0.000 A 
ENDROOT
BRANCH   1  18
ATOM     18  C   UNL d   1      51.391  33.576  53.290  0.00  0.00     0.092 A 
ATOM     19  C   UNL d   1      51.397  34.042  52.608  0.00  0.00     0.116 A 
ATOM     20  C   UNL d   1      50.706  34.429  52.366  0.00  0.00     0.026 A 
ATOM     21  C   UNL d   1      50.003  34.350  52.810  0.00  0.00     0.002 A 
ATOM     22  C   UNL d   1      50.003  33.877  53.500  0.00  0.00     0.002 A 
ATOM     23  C   UNL d   1      50.694  33.492  53.738  0.00  0.00     0.020 A 
BRANCH  19  24
ATOM     24  O   UNL d   1      52.093  34.119  52.170  0.00  0.00    -0.304 OA
BRANCH  24  25
ATOM     25  C   UNL d   1      52.089  34.565  51.483  0.00  0.00     0.123 C 
ATOM     26  C   UNL d   1      52.804  34.791  51.144  0.00  0.00     0.029 C 
ENDBRANCH  24  25
ENDBRANCH  19  24
ENDBRANCH   1  18
TORSDOF 3
ENDMDL
MODEL 3
REMARK VINA RESULT:      -7.2      1.325      3.207
REMARK  3 active torsions:
REMARK  status: ('A' for Active; 'I' for Inactive)
REMARK    1  A    between atoms: C_8  and  N_1 
REMARK    2  A    between atoms: O_16  and  C_11 
REMARK    3  A    between atoms: C_19  and  O_16 
ROOT
ATOM      1  N   UNL d   1      53.617  32.958  54.219  0.00  0.00    -0.240 N 
ATOM      2  C   UNL d   1      53.633  32.152  54.092  0.00  0.00     0.267 A 
ATOM      3  C   UNL d   1      53.074  33.509  53.928  0.00  0.00     0.267 A 
ATOM      4  C   UNL d   1      52.418  33.387  53.441  0.00  0.00     0.057 A 
ATOM      5  C   UNL d   1      53.119  31.690  53.647  0.00  0.00     0.057 A 
ATOM      6  C   UNL d   1      52.148  32.680  53.127  0.00  0.00     0.005 A 
ATOM      7  C   UNL d   1      52.455  31.920  53.215  0.00  0.00     0.005 A 
ATOM      8  O   UNL d   1      54.254  31.743  54.463  0.00  0.00    -0.267 OA
ATOM      9  O   UNL d   1      53.210  34.290  54.160  0.00  0.00    -0.267 OA
ATOM     10  C   UNL d   1      52.026  34.087  53.283  0.00  0.00     0.005 A 
ATOM     11  C   UNL d   1      53.338  30.905  53.668  0.00  0.00     0.005 A 
ATOM     12  C   UNL d   1      52.015  31.364  52.806  0.00  0.00     0.000 A 
ATOM     13  C   UNL d   1      51.472  32.672  52.645  0.00  0.00     0.000 A 
ATOM     14  C   UNL d   1      51.075  33.380  52.485  0.00  0.00     0.000 A 
ATOM     15  C   UNL d   1      52.232  30.570  52.824  0.00  0.00     0.000 A 
ATOM     16  C   UNL d   1      52.899  30.339  53.259  0.00  0.00     0.000 A 
ATOM     17  C   UNL d   1      51.350  34.080  52.801  0.00  0.00     0.000 A 
ENDROOT
BRANCH   1  18
ATOM     18  C   UNL d   1      54.220  33.259  54.700  0.00  0.00     0.092 A 
ATOM     19  C   UNL d   1      54.952  33.454  54.371  0.00  0.00     0.116 A 
ATOM     20  C   UNL d   1      55.556  33.755  54.852  0.00  0.00     0.026 A 
ATOM     21  C   UNL d   1      55.426  33.862  55.670  0.00  0.00     0.002 A 
ATOM     22  C   UNL d   1      54.683  33.663  55.998  0.00  0.00     0.002 A 
ATOM     23  C   UNL d   1      54.084  33.363  55.515  0.00  0.00     0.020 A 
BRANCH  19  24
ATOM     24  O   UNL d   1      55.079  33.347  53.561  0.00  0.00    -0.304 OA
BRANCH  24  25
ATOM     25  C   UNL d   1      55.820  33.499  53.247  0.00  0.00     0.123 C 
ATOM     26  C   UNL d   1      55.939  33.415  52.437  0.00  0.00     0.029 C 
ENDBRANCH  24  25
ENDBRANCH  19  24
ENDBRANCH   1  18
TORSDOF 3
ENDMDL
MODEL 4
REMARK VINA RESULT:      -7.1      1.330      3.554
REMARK  3 active torsions:
REMARK  status: ('A' for Active; 'I' for Inactive)
REMARK    1  A    between atoms: C_8  and  N_1 
REMARK    2  A    between atoms: O_16  and  C_11 
REMARK    3  A    between atoms: C_19  and  O_16 
ROOT
ATOM      1  N   UNL d   1      53.630  32.952  54.217  0.00  0.00    -0.240 N 
ATOM      2  C   UNL d   1      53.089  33.488  53.925  0.00  0.00     0.267 A 
ATOM      3  C   UNL d   1      53.656  32.136  54.093  0.00  0.00     0.267 A 
ATOM      4  C   UNL d   1      53.148  31.659  53.649  0.00  0.00     0.057 A 
ATOM      5  C   UNL d   1      52.438  33.353  53.440  0.00  0.00     0.057 A 
ATOM      6  C   UNL d   1      52.488  31.889  53.221  0.00  0.00     0.005 A 
ATOM      7  C   UNL d   1      52.167  32.642  53.124  0.00  0.00     0.005 A 
ATOM      8  O   UNL d   1      53.211  34.279  54.149  0.00  0.00    -0.267 OA
ATOM      9  O   UNL d   1      54.280  31.745  54.468  0.00  0.00    -0.267 OA
ATOM     10  C   UNL d   1      53.374  30.873  53.673  0.00  0.00     0.005 A 
ATOM     11  C   UNL d   1      52.043  34.047  53.280  0.00  0.00     0.005 A 
ATOM     12  C   UNL d   1      51.500  32.629  52.648  0.00  0.00     0.000 A 
ATOM     13  C   UNL d   1      52.045  31.321  52.808  0.00  0.00     0.000 A 
ATOM     14  C   UNL d   1      52.273  30.527  52.831  0.00  0.00     0.000 A 
ATOM     15  C   UNL d   1      51.097  33.327  52.483  0.00  0.00     0.000 A 
ATOM     16  C   UNL d   1      51.370  34.042  52.802  0.00  0.00     0.000 A 
ATOM     17  C   UNL d   1      52.931  30.306  53.260  0.00  0.00     0.000 A 
ENDROOT
BRANCH   1  18
ATOM     18  C   UNL d   1      54.228  33.268  54.696  0.00  0.00     0.092 A 
ATOM     19  C   UNL d   1      54.957  33.472  54.366  0.00  0.00     0.116 A 
ATOM     20  C   UNL d   1      55.555  33.788  54.845  0.00  0.00     0.026 A 
ATOM     21  C   UNL d   1      55.421  33.901  55.662  0.00  0.00     0.002 A 
ATOM     22  C   UNL d   1      54.681  33.693  55.991  0.00  0.00     0.002 A 
ATOM     23  C   UNL d   1      54.087  33.379  55.509  0.00  0.00     0.020 A 
BRANCH  19  24
ATOM     24  O   UNL d   1      55.088  33.359  53.557  0.00  0.00    -0.304 OA
BRANCH  24  25
ATOM     25  C   UNL d   1      55.826  33.523  53.243  0.00  0.00     0.123 C 
ATOM     26  C   UNL d   1      55.936  33.476  52.429  0.00  0.00     0.029 C 
ENDBRANCH  24  25
ENDBRANCH  19  24
ENDBRANCH   1  18
TORSDOF 3
ENDMDL
MODEL 5
REMARK VINA RESULT:      -6.4      1.304      3.511
REMARK  3 active torsions:
REMARK  status: ('A' for Active; 'I' for Inactive)
REMARK    1  A    between atoms: C_8  and  N_1 
REMARK    2  A    between atoms: O_16  and  C_11 
REMARK    3  A    between atoms: C_19  and  O_16 
ROOT
ATOM      1  N   UNL d   1      53.154  31.766  53.426  0.00  0.00    -0.240 N 
ATOM      2  C   UNL d   1      52.443  32.155  53.337  0.00  0.00     0.267 A 
ATOM      3  C   UNL d   1      53.861  32.061  53.736  0.00  0.00     0.267 A 
ATOM      4  C   UNL d   1      54.026  32.815  54.032  0.00  0.00     0.057 A 
ATOM      5  C   UNL d   1      52.251  32.930  53.531  0.00  0.00     0.057 A 
ATOM      6  C   UNL d   1      53.519  33.456  54.087  0.00  0.00     0.005 A 
ATOM      7  C   UNL d   1      52.727  33.514  53.866  0.00  0.00     0.005 A 
ATOM      8  O   UNL d   1      51.828  31.705  53.004  0.00  0.00    -0.267 OA
ATOM      9  O   UNL d   1      54.488  31.523  53.751  0.00  0.00    -0.267 OA
ATOM     10  C   UNL d   1      54.801  32.875  54.287  0.00  0.00     0.005 A 
ATOM     11  C   UNL d   1      51.474  33.094  53.349  0.00  0.00     0.005 A 
ATOM     12  C   UNL d   1      52.422  34.259  54.017  0.00  0.00     0.000 A 
ATOM     13  C   UNL d   1      53.792  34.173  54.404  0.00  0.00     0.000 A 
ATOM     14  C   UNL d   1      54.575  34.236  54.662  0.00  0.00     0.000 A 
ATOM     15  C   UNL d   1      51.639  34.430  53.835  0.00  0.00     0.000 A 
ATOM     16  C   UNL d   1      51.160  33.843  53.498  0.00  0.00     0.000 A 
ATOM     17  C   UNL d   1      55.074  33.593  54.603  0.00  0.00     0.000 A 
ENDROOT
BRANCH   1  18
ATOM     18  C   UNL d   1      53.168  30.977  53.173  0.00  0.00     0.092 A 
ATOM     19  C   UNL d   1      53.115  30.365  53.725  0.00  0.00     0.116 A 
ATOM     20  C   UNL d   1      53.129  29.576  53.472  0.00  0.00     0.026 A 
ATOM     21  C   UNL d   1      53.196  29.399  52.658  0.00  0.00     0.002 A 
ATOM     22  C   UNL d   1      53.249  30.021  52.104  0.00  0.00     0.002 A 
ATOM     23  C   UNL d   1      53.235  30.807  52.360  0.00  0.00     0.020 A 
BRANCH  19  24
ATOM     24  O   UNL d   1      53.049  30.544  54.530  0.00  0.00    -0.304 OA
BRANCH  24  25
ATOM     25  C   UNL d   1      52.911  29.939  55.065  0.00  0.00     0.123 C 
ATOM     26  C   UNL d   1      53.168  30.023  55.842  0.00  0.00     0.029 C 
ENDBRANCH  24  25
ENDBRANCH  19  24
ENDBRANCH   1  18
TORSDOF 3
ENDMDL
MODEL 6
REMARK VINA RESULT:      -6.3      1.299      3.714
REMARK  3 active torsions:
REMARK  status: ('A' for Active; 'I' for Inactive)
REMARK    1  A    between atoms: C_8  and  N_1 
REMARK    2  A    between atoms: O_16  and  C_11 
REMARK    3  A    between atoms: C_19  and  O_16 
ROOT
ATOM      1  N   UNL d   1      53.158  31.772  53.432  0.00  0.00    -0.240 N 
ATOM      2  C   UNL d   1      53.855  32.062  53.741  0.00  0.00     0.267 A 
ATOM      3  C   UNL d   1      52.439  32.168  53.338  0.00  0.00     0.267 A 
ATOM      4  C   UNL d   1      52.245  32.948  53.529  0.00  0.00     0.057 A 
ATOM      5  C   UNL d   1      54.018  32.813  54.033  0.00  0.00     0.057 A 
ATOM      6  C   UNL d   1      52.728  33.520  53.863  0.00  0.00     0.005 A 
ATOM      7  C   UNL d   1      53.519  33.467  54.089  0.00  0.00     0.005 A 
ATOM      8  O   UNL d   1      54.488  31.523  53.762  0.00  0.00    -0.267 OA
ATOM      9  O   UNL d   1      51.832  31.717  53.006  0.00  0.00    -0.267 OA
ATOM     10  C   UNL d   1      51.467  33.119  53.344  0.00  0.00     0.005 A 
ATOM     11  C   UNL d   1      54.789  32.867  54.288  0.00  0.00     0.005 A 
ATOM     12  C   UNL d   1      53.795  34.172  54.401  0.00  0.00     0.000 A 
ATOM     13  C   UNL d   1      52.426  34.279  54.014  0.00  0.00     0.000 A 
ATOM     14  C   UNL d   1      51.640  34.453  53.827  0.00  0.00     0.000 A 
ATOM     15  C   UNL d   1      54.573  34.232  54.661  0.00  0.00     0.000 A 
ATOM     16  C   UNL d   1      55.075  33.574  54.604  0.00  0.00     0.000 A 
ATOM     17  C   UNL d   1      51.165  33.878  53.496  0.00  0.00     0.000 A 
ENDROOT
BRANCH   1  18
ATOM     18  C   UNL d   1      53.175  30.982  53.183  0.00  0.00     0.092 A 
ATOM     19  C   UNL d   1      53.117  30.373  53.738  0.00  0.00     0.116 A 
ATOM     20  C   UNL d   1      53.134  29.583  53.489  0.00  0.00     0.026 A 
ATOM     21  C   UNL d   1      53.209  29.401  52.676  0.00  0.00     0.002 A 
ATOM     22  C   UNL d   1      53.266  30.021  52.119  0.00  0.00     0.002 A 
ATOM     23  C   UNL d   1      53.249  30.808  52.372  0.00  0.00     0.020 A 
BRANCH  19  24
ATOM     24  O   UNL d   1      53.044  30.555  54.541  0.00  0.00    -0.304 OA
BRANCH  24  25
ATOM     25  C   UNL d   1      52.896  29.954  55.077  0.00  0.00     0.123 C 
ATOM     26  C   UNL d   1      53.170  30.027  55.850  0.00  0.00     0.029 C 
ENDBRANCH  24  25
ENDBRANCH  19  24
ENDBRANCH   1  18
TORSDOF 3
ENDMDL
