MODEL 1
REMARK VINA RESULT:      48.5      0.000      0.000
REMARK  5 active torsions:
REMARK  status: ('A' for Active; 'I' for Inactive)
REMARK    1  A    between atoms: S_2  and  C_1 
REMARK    2  A    between atoms: C_9  and  S_2 
REMARK    3  A    between atoms: C_8  and  N_3 
REMARK    4  A    between atoms: C_7  and  C_8 
REMARK       I    between atoms: N_12  and  C_7 
REMARK    5  A    between atoms: C_14  and  C_9 
ROOT
ATOM      1  C   UNL d   1      14.116  14.410  -2.617  0.00  0.00     0.107 A 
ATOM      2  N   UNL d   1      14.513  14.254  -1.355  0.00  0.00    -0.299 N 
ATOM      3  C   UNL d   1      14.171  13.863  -1.995  0.00  0.00     0.092 A 
ATOM      4  C   UNL d   1      14.423  15.129  -2.356  0.00  0.00     0.028 A 
ATOM      5  C   UNL d   1      14.670  15.031  -1.572  0.00  0.00     0.065 A 
ATOM      6  C   UNL d   1      14.511  15.858  -2.729  0.00  0.00     0.002 A 
ATOM      7  C   UNL d   1      15.002  15.668  -1.168  0.00  0.00     0.018 A 
ATOM      8  C   UNL d   1      14.845  16.499  -2.323  0.00  0.00     0.000 A 
ATOM      9  C   UNL d   1      15.089  16.397  -1.540  0.00  0.00     0.002 A 
ENDROOT
BRANCH   1  10
ATOM     10  S   UNL d   1      13.806  14.256  -3.371  0.00  0.00     0.212 S 
ATOM     11  O   UNL d   1      13.072  14.401  -3.024  0.00  0.00    -0.217 OA
ATOM     12  O   UNL d   1      14.544  14.112  -3.716  0.00  0.00    -0.217 OA
BRANCH  10  13
ATOM     13  C   UNL d   1      13.499  14.104  -4.120  0.00  0.00     0.099 C 
BRANCH  13  14
ATOM     14  C   UNL d   1      13.319  13.333  -4.340  0.00  0.00     0.011 A 
ATOM     15  C   UNL d   1      13.509  13.069  -5.098  0.00  0.00     0.001 A 
ATOM     16  C   UNL d   1      13.325  12.286  -5.317  0.00  0.00     0.000 A 
ATOM     17  C   UNL d   1      12.953  11.779  -4.776  0.00  0.00     0.000 A 
ATOM     18  C   UNL d   1      12.769  12.059  -4.021  0.00  0.00     0.000 A 
ATOM     19  C   UNL d   1      12.951  12.828  -3.808  0.00  0.00     0.001 A 
ENDBRANCH  13  14
ENDBRANCH  10  13
ENDBRANCH   1  10
BRANCH   2  20
ATOM     20  C   UNL d   1      14.672  13.919  -0.618  0.00  0.00     0.142 C 
BRANCH  20  21
ATOM     21  C   UNL d   1      15.015  13.172  -0.571  0.00  0.00     0.283 C 
ATOM     22  N   UNL d   1      14.579  12.535  -0.280  0.00  0.00    -0.268 N 
ATOM     23  C   UNL d   1      14.920  11.779  -0.230  0.00  0.00     0.102 C 
ATOM     24  C   UNL d   1      13.799  12.645  -0.038  0.00  0.00     0.102 C 
ATOM     25  O   UNL d   1      15.794  13.062  -0.813  0.00  0.00    -0.265 OA
ENDBRANCH  20  21
ENDBRANCH   2  20
TORSDOF 5
ENDMDL
MODEL 2
REMARK VINA RESULT:      49.7      1.285      3.994
REMARK  5 active torsions:
REMARK  status: ('A' for Active; 'I' for Inactive)
REMARK    1  A    between atoms: S_2  and  C_1 
REMARK    2  A    between atoms: C_9  and  S_2 
REMARK    3  A    between atoms: C_8  and  N_3 
REMARK    4  A    between atoms: C_7  and  C_8 
REMARK       I    between atoms: N_12  and  C_7 
REMARK    5  A    between atoms: C_14  and  C_9 
ROOT
ATOM      1  C   UNL d   1      14.697  14.117  -1.200  0.00  0.00     0.107 A 
ATOM      2  N   UNL d   1      13.977  13.223  -1.877  0.00  0.00    -0.299 N 
ATOM      3  C   UNL d   1      14.165  14.025  -1.830  0.00  0.00     0.092 A 
ATOM      4  C   UNL d   1      14.832  13.374  -0.866  0.00  0.00     0.028 A 
ATOM      5  C   UNL d   1      14.384  12.821  -1.288  0.00  0.00     0.065 A 
ATOM      6  C   UNL d   1      15.302  13.132  -0.236  0.00  0.00     0.002 A 
ATOM      7  C   UNL d   1      14.413  12.025  -1.072  0.00  0.00     0.018 A 
ATOM      8  C   UNL d   1      15.332  12.333  -0.018  0.00  0.00     0.000 A 
ATOM      9  C   UNL d   1      14.883  11.783  -0.441  0.00  0.00     0.002 A 
ENDROOT
BRANCH   1  10
ATOM     10  S   UNL d   1      15.034  14.833  -0.951  0.00  0.00     0.212 S 
ATOM     11  O   UNL d   1      14.345  14.925  -0.507  0.00  0.00    -0.217 OA
ATOM     12  O   UNL d   1      15.725  14.737  -1.397  0.00  0.00    -0.217 OA
BRANCH  10  13
ATOM     13  C   UNL d   1      15.370  15.543  -0.704  0.00  0.00     0.099 C 
BRANCH  13  14
ATOM     14  C   UNL d   1      15.311  16.211  -1.179  0.00  0.00     0.011 A 
ATOM     15  C   UNL d   1      15.339  16.133  -2.000  0.00  0.00     0.001 A 
ATOM     16  C   UNL d   1      15.278  16.813  -2.478  0.00  0.00     0.000 A 
ATOM     17  C   UNL d   1      15.190  17.560  -2.129  0.00  0.00     0.000 A 
ATOM     18  C   UNL d   1      15.163  17.622  -1.306  0.00  0.00     0.000 A 
ATOM     19  C   UNL d   1      15.223  16.952  -0.838  0.00  0.00     0.001 A 
ENDBRANCH  13  14
ENDBRANCH  10  13
ENDBRANCH   1  10
BRANCH   2  20
ATOM     20  C   UNL d   1      13.464  12.883  -2.426  0.00  0.00     0.142 C 
BRANCH  20  21
ATOM     21  C   UNL d   1      13.645  12.907  -3.229  0.00  0.00     0.283 C 
ATOM     22  N   UNL d   1      13.310  12.357  -3.745  0.00  0.00    -0.268 N 
ATOM     23  C   UNL d   1      13.489  12.376  -4.555  0.00  0.00     0.102 C 
ATOM     24  C   UNL d   1      12.794  11.782  -3.457  0.00  0.00     0.102 C 
ATOM     25  O   UNL d   1      14.161  13.480  -3.516  0.00  0.00    -0.265 OA
ENDBRANCH  20  21
ENDBRANCH   2  20
TORSDOF 5
ENDMDL
MODEL 3
REMARK VINA RESULT:      51.2      1.748      3.996
REMARK  5 active torsions:
REMARK  status: ('A' for Active; 'I' for Inactive)
REMARK    1  A    between atoms: S_2  and  C_1 
REMARK    2  A    between atoms: C_9  and  S_2 
REMARK    3  A    between atoms: C_8  and  N_3 
REMARK    4  A    between atoms: C_7  and  C_8 
REMARK       I    between atoms: N_12  and  C_7 
REMARK    5  A    between atoms: C_14  and  C_9 
ROOT
ATOM      1  C   UNL d   1      13.504  12.974  -2.963  0.00  0.00     0.107 A 
ATOM      2  N   UNL d   1      13.237  13.242  -4.241  0.00  0.00    -0.299 N 
ATOM      3  C   UNL d   1      13.247  12.640  -3.678  0.00  0.00     0.092 A 
ATOM      4  C   UNL d   1      13.650  13.776  -3.092  0.00  0.00     0.028 A 
ATOM      5  C   UNL d   1      13.483  13.941  -3.886  0.00  0.00     0.065 A 
ATOM      6  C   UNL d   1      13.911  14.375  -2.591  0.00  0.00     0.002 A 
ATOM      7  C   UNL d   1      13.581  14.709  -4.170  0.00  0.00     0.018 A 
ATOM      8  C   UNL d   1      14.010  15.146  -2.876  0.00  0.00     0.000 A 
ATOM      9  C   UNL d   1      13.843  15.307  -3.670  0.00  0.00     0.002 A 
ENDROOT
BRANCH   1  10
ATOM     10  S   UNL d   1      13.598  12.570  -2.245  0.00  0.00     0.212 S 
ATOM     11  O   UNL d   1      13.899  11.957  -2.707  0.00  0.00    -0.217 OA
ATOM     12  O   UNL d   1      13.296  13.188  -1.784  0.00  0.00    -0.217 OA
BRANCH  10  13
ATOM     13  C   UNL d   1      13.691  12.170  -1.531  0.00  0.00     0.099 C 
BRANCH  13  14
ATOM     14  C   UNL d   1      14.361  12.300  -1.072  0.00  0.00     0.011 A 
ATOM     15  C   UNL d   1      14.344  12.872  -0.478  0.00  0.00     0.001 A 
ATOM     16  C   UNL d   1      15.025  13.001  -0.015  0.00  0.00     0.000 A 
ATOM     17  C   UNL d   1      15.712  12.557  -0.153  0.00  0.00     0.000 A 
ATOM     18  C   UNL d   1      15.712  11.988  -0.752  0.00  0.00     0.000 A 
ATOM     19  C   UNL d   1      15.042  11.863  -1.206  0.00  0.00     0.001 A 
ENDBRANCH  13  14
ENDBRANCH  10  13
ENDBRANCH   1  10
BRANCH   2  20
ATOM     20  C   UNL d   1      13.015  13.156  -5.031  0.00  0.00     0.142 C 
BRANCH  20  21
ATOM     21  C   UNL d   1      13.212  12.470  -5.441  0.00  0.00     0.283 C 
ATOM     22  N   UNL d   1      13.845  12.472  -5.970  0.00  0.00    -0.268 N 
ATOM     23  C   UNL d   1      14.048  11.782  -6.386  0.00  0.00     0.102 C 
ATOM     24  C   UNL d   1      14.282  13.160  -6.088  0.00  0.00     0.102 C 
ATOM     25  O   UNL d   1      12.775  11.782  -5.323  0.00  0.00    -0.265 OA
ENDBRANCH  20  21
ENDBRANCH   2  20
TORSDOF 5
ENDMDL
MODEL 4
REMARK VINA RESULT:      51.4      1.516      3.612
REMARK  5 active torsions:
REMARK  status: ('A' for Active; 'I' for Inactive)
REMARK    1  A    between atoms: S_2  and  C_1 
REMARK    2  A    between atoms: C_9  and  S_2 
REMARK    3  A    between atoms: C_8  and  N_3 
REMARK    4  A    between atoms: C_7  and  C_8 
REMARK       I    between atoms: N_12  and  C_7 
REMARK    5  A    between atoms: C_14  and  C_9 
ROOT
ATOM      1  C   UNL d   1      14.891  15.051  -1.354  0.00  0.00     0.107 A 
ATOM      2  N   UNL d   1      14.614  15.472  -2.587  0.00  0.00    -0.299 N 
ATOM      3  C   UNL d   1      14.608  14.810  -2.096  0.00  0.00     0.092 A 
ATOM      4  C   UNL d   1      15.068  15.855  -1.394  0.00  0.00     0.028 A 
ATOM      5  C   UNL d   1      14.895  16.116  -2.161  0.00  0.00     0.065 A 
ATOM      6  C   UNL d   1      15.362  16.382  -0.835  0.00  0.00     0.002 A 
ATOM      7  C   UNL d   1      15.021  16.906  -2.359  0.00  0.00     0.018 A 
ATOM      8  C   UNL d   1      15.489  17.177  -1.034  0.00  0.00     0.000 A 
ATOM      9  C   UNL d   1      15.315  17.433  -1.800  0.00  0.00     0.002 A 
ENDROOT
BRANCH   1  10
ATOM     10  S   UNL d   1      14.979  14.564  -0.688  0.00  0.00     0.212 S 
ATOM     11  O   UNL d   1      14.644  15.191  -0.270  0.00  0.00    -0.217 OA
ATOM     12  O   UNL d   1      15.316  13.937  -1.112  0.00  0.00    -0.217 OA
BRANCH  10  13
ATOM     13  C   UNL d   1      15.068  14.080  -0.028  0.00  0.00     0.099 C 
BRANCH  13  14
ATOM     14  C   UNL d   1      14.766  13.315  -0.037  0.00  0.00     0.011 A 
ATOM     15  C   UNL d   1      15.282  12.672  -0.070  0.00  0.00     0.001 A 
ATOM     16  C   UNL d   1      14.973  11.899  -0.079  0.00  0.00     0.000 A 
ATOM     17  C   UNL d   1      14.152  11.779  -0.055  0.00  0.00     0.000 A 
ATOM     18  C   UNL d   1      13.649  12.433  -0.023  0.00  0.00     0.000 A 
ATOM     19  C   UNL d   1      13.955  13.193  -0.014  0.00  0.00     0.001 A 
ENDBRANCH  13  14
ENDBRANCH  10  13
ENDBRANCH   1  10
BRANCH   2  20
ATOM     20  C   UNL d   1      14.376  15.485  -3.377  0.00  0.00     0.142 C 
BRANCH  20  21
ATOM     21  C   UNL d   1      13.849  14.918  -3.658  0.00  0.00     0.283 C 
ATOM     22  N   UNL d   1      13.576  14.957  -4.436  0.00  0.00    -0.268 N 
ATOM     23  C   UNL d   1      13.046  14.388  -4.725  0.00  0.00     0.102 C 
ATOM     24  C   UNL d   1      13.830  15.564  -4.932  0.00  0.00     0.102 C 
ATOM     25  O   UNL d   1      13.596  14.312  -3.163  0.00  0.00    -0.265 OA
ENDBRANCH  20  21
ENDBRANCH   2  20
TORSDOF 5
ENDMDL
