MODEL 1
REMARK VINA RESULT:      -0.1      0.000      0.000
REMARK  5 active torsions:
REMARK  status: ('A' for Active; 'I' for Inactive)
REMARK    1  A    between atoms: C_4  and  C_1 
REMARK    2  A    between atoms: N_5  and  C_2 
REMARK       I    between atoms: N_9  and  C_4 
REMARK       I    between atoms: C_7  and  N_5 
REMARK    3  A    between atoms: C_10  and  C_7 
REMARK    4  A    between atoms: C_21  and  N_9 
REMARK    5  A    between atoms: O_29  and  C_22 
ROOT
ATOM      1  C   UNL d   1      32.963  22.631 -22.358  0.00  0.00     0.175 A 
ATOM      2  C   UNL d   1      33.072  22.038 -22.932  0.00  0.00     0.114 A 
ATOM      3  O   UNL d   1      32.813  23.339 -22.765  0.00  0.00    -0.301 OA
ATOM      4  C   UNL d   1      32.989  22.383 -23.671  0.00  0.00     0.043 A 
ATOM      5  C   UNL d   1      32.829  23.188 -23.570  0.00  0.00     0.102 A 
ATOM      6  C   UNL d   1      33.038  22.066 -24.432  0.00  0.00     0.004 A 
ATOM      7  C   UNL d   1      32.720  23.669 -24.225  0.00  0.00     0.025 A 
ATOM      8  C   UNL d   1      32.928  22.555 -25.091  0.00  0.00     0.000 A 
ATOM      9  C   UNL d   1      32.768  23.360 -24.982  0.00  0.00     0.002 A 
ENDROOT
BRANCH   2  10
ATOM     10  N   UNL d   1      33.235  21.239 -22.777  0.00  0.00    -0.206 NA
ATOM     11  C   UNL d   1      32.629  20.681 -22.820  0.00  0.00     0.279 C 
ATOM     12  O   UNL d   1      31.863  20.913 -23.016  0.00  0.00    -0.265 OA
BRANCH  11  13
ATOM     13  C   UNL d   1      32.792  19.890 -22.666  0.00  0.00     0.060 A 
ATOM     14  C   UNL d   1      32.680  19.327 -23.252  0.00  0.00     0.031 A 
ATOM     15  C   UNL d   1      32.842  18.542 -23.098  0.00  0.00     0.119 A 
ATOM     16  O   UNL d   1      32.786  17.861 -23.566  0.00  0.00    -0.300 OA
ATOM     17  C   UNL d   1      33.117  18.319 -22.353  0.00  0.00     0.119 A 
ATOM     18  C   UNL d   1      33.028  17.217 -23.105  0.00  0.00     0.304 A 
ATOM     19  O   UNL d   1      33.231  17.505 -22.359  0.00  0.00    -0.300 OA
ATOM     20  C   UNL d   1      33.229  18.882 -21.767  0.00  0.00     0.026 A 
ATOM     21  C   UNL d   1      33.061  19.677 -21.933  0.00  0.00     0.007 A 
ENDBRANCH  11  13
ENDBRANCH   2  10
BRANCH   1  22
ATOM     22  C   UNL d   1      32.999  22.531 -21.538  0.00  0.00     0.303 C 
ATOM     23  N   UNL d   1      32.811  23.157 -21.044  0.00  0.00    -0.206 NA
ATOM     24  O   UNL d   1      33.223  21.800 -21.221  0.00  0.00    -0.263 OA
BRANCH  23  25
ATOM     25  C   UNL d   1      32.846  23.062 -20.224  0.00  0.00     0.085 A 
ATOM     26  C   UNL d   1      32.638  22.333 -19.897  0.00  0.00     0.021 A 
ATOM     27  C   UNL d   1      32.669  22.228 -19.075  0.00  0.00     0.026 A 
ATOM     28  C   UNL d   1      32.909  22.857 -18.592  0.00  0.00     0.094 A 
ATOM     29  C   UNL d   1      33.115  23.580 -18.926  0.00  0.00     0.026 A 
ATOM     30  C   UNL d   1      33.081  23.677 -19.750  0.00  0.00     0.021 A 
BRANCH  28  31
ATOM     31  O   UNL d   1      32.942  22.759 -17.776  0.00  0.00    -0.328 OA
ATOM     32  C   UNL d   1      32.891  23.420 -17.284  0.00  0.00     0.181 C 
ENDBRANCH  28  31
ENDBRANCH  23  25
ENDBRANCH   1  22
TORSDOF 5
ENDMDL
MODEL 2
REMARK VINA RESULT:       0.9      2.969      5.122
REMARK  5 active torsions:
REMARK  status: ('A' for Active; 'I' for Inactive)
REMARK    1  A    between atoms: C_4  and  C_1 
REMARK    2  A    between atoms: N_5  and  C_2 
REMARK       I    between atoms: N_9  and  C_4 
REMARK       I    between atoms: C_7  and  N_5 
REMARK    3  A    between atoms: C_10  and  C_7 
REMARK    4  A    between atoms: C_21  and  N_9 
REMARK    5  A    between atoms: O_29  and  C_22 
ROOT
ATOM      1  C   UNL d   1      32.356  17.833 -23.682  0.00  0.00     0.175 A 
ATOM      2  C   UNL d   1      31.712  17.334 -23.851  0.00  0.00     0.114 A 
ATOM      3  O   UNL d   1      33.031  17.478 -24.010  0.00  0.00    -0.301 OA
ATOM      4  C   UNL d   1      31.993  16.691 -24.272  0.00  0.00     0.043 A 
ATOM      5  C   UNL d   1      32.809  16.777 -24.373  0.00  0.00     0.102 A 
ATOM      6  C   UNL d   1      31.609  16.028 -24.583  0.00  0.00     0.004 A 
ATOM      7  C   UNL d   1      33.235  16.206 -24.780  0.00  0.00     0.025 A 
ATOM      8  C   UNL d   1      32.042  15.454 -24.993  0.00  0.00     0.000 A 
ATOM      9  C   UNL d   1      32.858  15.548 -25.089  0.00  0.00     0.002 A 
ENDROOT
BRANCH   2  10
ATOM     10  N   UNL d   1      30.923  17.470 -23.627  0.00  0.00    -0.206 NA
ATOM     11  C   UNL d   1      30.327  17.443 -24.196  0.00  0.00     0.279 C 
ATOM     12  O   UNL d   1      30.508  17.282 -24.983  0.00  0.00    -0.265 OA
BRANCH  11  13
ATOM     13  C   UNL d   1      29.546  17.579 -23.973  0.00  0.00     0.060 A 
ATOM     14  C   UNL d   1      29.141  17.015 -23.537  0.00  0.00     0.031 A 
ATOM     15  C   UNL d   1      28.367  17.150 -23.317  0.00  0.00     0.119 A 
ATOM     16  O   UNL d   1      27.825  16.696 -22.885  0.00  0.00    -0.300 OA
ATOM     17  C   UNL d   1      27.996  17.854 -23.535  0.00  0.00     0.119 A 
ATOM     18  C   UNL d   1      27.118  17.125 -22.839  0.00  0.00     0.304 A 
ATOM     19  O   UNL d   1      27.228  17.837 -23.241  0.00  0.00    -0.300 OA
ATOM     20  C   UNL d   1      28.401  18.417 -23.972  0.00  0.00     0.026 A 
ATOM     21  C   UNL d   1      29.188  18.271 -24.191  0.00  0.00     0.007 A 
ENDBRANCH  11  13
ENDBRANCH   2  10
BRANCH   1  22
ATOM     22  C   UNL d   1      32.328  18.547 -23.266  0.00  0.00     0.303 C 
ATOM     23  N   UNL d   1      32.991  18.809 -22.863  0.00  0.00    -0.206 NA
ATOM     24  O   UNL d   1      31.630  18.993 -23.259  0.00  0.00    -0.263 OA
BRANCH  23  25
ATOM     25  C   UNL d   1      32.966  19.522 -22.445  0.00  0.00     0.085 A 
ATOM     26  C   UNL d   1      32.942  20.231 -22.867  0.00  0.00     0.021 A 
ATOM     27  C   UNL d   1      32.917  20.951 -22.456  0.00  0.00     0.026 A 
ATOM     28  C   UNL d   1      32.917  20.949 -21.627  0.00  0.00     0.094 A 
ATOM     29  C   UNL d   1      32.941  20.238 -21.216  0.00  0.00     0.026 A 
ATOM     30  C   UNL d   1      32.966  19.521 -21.634  0.00  0.00     0.021 A 
BRANCH  28  31
ATOM     31  O   UNL d   1      32.892  21.660 -21.215  0.00  0.00    -0.328 OA
ATOM     32  C   UNL d   1      32.165  22.018 -21.063  0.00  0.00     0.181 C 
ENDBRANCH  28  31
ENDBRANCH  23  25
ENDBRANCH   1  22
TORSDOF 5
ENDMDL
