MODEL 1
REMARK VINA RESULT:      82.7      0.000      0.000
REMARK  4 active torsions:
REMARK  status: ('A' for Active; 'I' for Inactive)
REMARK    1  A    between atoms: C_12  and  N_1 
REMARK    2  A    between atoms: N_2  and  C_11 
REMARK    3  A    between atoms: C_11  and  C_15 
REMARK    4  A    between atoms: C_15  and  C_12 
ROOT
ATOM      1  N   UNL d   1      60.728  49.271  50.433  0.00  0.00    -0.303 N 
ATOM      2  C   UNL d   1      59.949  49.391  50.143  0.00  0.00     0.064 A 
ATOM      3  C   UNL d   1      59.458  49.552  50.805  0.00  0.00     0.018 A 
ATOM      4  C   UNL d   1      59.933  49.530  51.487  0.00  0.00     0.018 A 
ATOM      5  C   UNL d   1      60.709  49.358  51.259  0.00  0.00     0.064 A 
ATOM      6  C   UNL d   1      61.304  49.302  51.829  0.00  0.00     0.018 A 
ATOM      7  C   UNL d   1      59.752  49.645  52.284  0.00  0.00     0.002 A 
ATOM      8  C   UNL d   1      61.123  49.417  52.625  0.00  0.00     0.002 A 
ATOM      9  C   UNL d   1      60.346  49.589  52.853  0.00  0.00     0.000 A 
ATOM     10  C   UNL d   1      59.710  49.357  49.353  0.00  0.00     0.019 C 
ATOM     11  C   UNL d   1      58.652  49.703  50.780  0.00  0.00     0.002 C 
ATOM     12  C   UNL d   1      60.166  49.704  53.649  0.00  0.00     0.000 C 
ENDROOT
BRANCH   1  13
ATOM     13  C   UNL d   1      61.388  49.097  49.965  0.00  0.00     0.124 C 
BRANCH  13  14
ATOM     14  C   UNL d   1      61.691  48.327  49.960  0.00  0.00     0.232 C 
ATOM     15  O   UNL d   1      62.457  48.183  49.681  0.00  0.00    -0.283 OA
BRANCH  14  16
ATOM     16  C   UNL d   1      61.229  47.705  50.233  0.00  0.00     0.144 C 
BRANCH  16  17
ATOM     17  N   UNL d   1      61.404  46.926  50.011  0.00  0.00    -0.225 N 
ATOM     18  N   UNL d   1      61.900  46.700  49.393  0.00  0.00    -0.165 NA
ATOM     19  C   UNL d   1      61.918  45.872  49.365  0.00  0.00     0.109 A 
ATOM     20  C   UNL d   1      62.346  45.416  48.830  0.00  0.00     0.023 C 
ATOM     21  C   UNL d   1      61.428  45.590  49.971  0.00  0.00     0.072 A 
ATOM     22  C   UNL d   1      61.110  46.236  50.370  0.00  0.00     0.091 A 
ATOM     23 BR   UNL d   1      61.283  44.797  50.146  0.00  0.00    -0.046 Br
ATOM     24  C   UNL d   1      60.593  46.206  51.012  0.00  0.00     0.021 C 
ENDBRANCH  16  17
ENDBRANCH  14  16
ENDBRANCH  13  14
ENDBRANCH   1  13
TORSDOF 4
ENDMDL
MODEL 2
REMARK VINA RESULT:      84.2      1.722      4.188
REMARK  4 active torsions:
REMARK  status: ('A' for Active; 'I' for Inactive)
REMARK    1  A    between atoms: C_12  and  N_1 
REMARK    2  A    between atoms: N_2  and  C_11 
REMARK    3  A    between atoms: C_11  and  C_15 
REMARK    4  A    between atoms: C_15  and  C_12 
ROOT
ATOM      1  N   UNL d   1      61.195  47.652  50.512  0.00  0.00    -0.303 N 
ATOM      2  C   UNL d   1      60.973  47.360  51.266  0.00  0.00     0.064 A 
ATOM      3  C   UNL d   1      61.033  46.523  51.240  0.00  0.00     0.018 A 
ATOM      4  C   UNL d   1      61.289  46.310  50.478  0.00  0.00     0.018 A 
ATOM      5  C   UNL d   1      61.388  47.000  50.033  0.00  0.00     0.064 A 
ATOM      6  C   UNL d   1      61.640  46.953  49.249  0.00  0.00     0.018 A 
ATOM      7  C   UNL d   1      61.442  45.574  50.138  0.00  0.00     0.002 A 
ATOM      8  C   UNL d   1      61.793  46.217  48.909  0.00  0.00     0.002 A 
ATOM      9  C   UNL d   1      61.694  45.527  49.354  0.00  0.00     0.000 A 
ATOM     10  C   UNL d   1      60.739  47.814  51.917  0.00  0.00     0.019 C 
ATOM     11  C   UNL d   1      60.868  46.009  51.858  0.00  0.00     0.002 C 
ATOM     12  C   UNL d   1      61.847  44.791  49.015  0.00  0.00     0.000 C 
ENDROOT
BRANCH   1  13
ATOM     13  C   UNL d   1      61.215  48.451  50.296  0.00  0.00     0.124 C 
BRANCH  13  14
ATOM     14  C   UNL d   1      61.019  49.027  50.857  0.00  0.00     0.232 C 
ATOM     15  O   UNL d   1      61.222  48.920  51.652  0.00  0.00    -0.283 OA
BRANCH  14  16
ATOM     16  C   UNL d   1      60.623  49.708  50.622  0.00  0.00     0.144 C 
BRANCH  16  17
ATOM     17  N   UNL d   1      59.798  49.707  50.552  0.00  0.00    -0.225 N 
ATOM     18  N   UNL d   1      59.260  49.707  51.177  0.00  0.00    -0.165 NA
ATOM     19  C   UNL d   1      58.494  49.707  50.859  0.00  0.00     0.109 A 
ATOM     20  C   UNL d   1      57.793  49.706  51.290  0.00  0.00     0.023 C 
ATOM     21  C   UNL d   1      58.565  49.707  50.033  0.00  0.00     0.072 A 
ATOM     22  C   UNL d   1      59.365  49.707  49.841  0.00  0.00     0.091 A 
ATOM     23 BR   UNL d   1      57.940  49.707  49.495  0.00  0.00    -0.046 Br
ATOM     24  C   UNL d   1      59.685  49.708  49.080  0.00  0.00     0.021 C 
ENDBRANCH  16  17
ENDBRANCH  14  16
ENDBRANCH  13  14
ENDBRANCH   1  13
TORSDOF 4
ENDMDL
