MODEL 1
REMARK VINA RESULT:      -6.1      0.000      0.000
REMARK  3 active torsions:
REMARK  status: ('A' for Active; 'I' for Inactive)
REMARK    1  A    between atoms: C_5  and  C_1 
REMARK    2  A    between atoms: C_7  and  C_5 
REMARK    3  A    between atoms: C_10  and  C_7 
ROOT
ATOM      1  C   UNL d   1     -41.296-122.594 -51.898  0.00  0.00     0.220 A 
ATOM      2  C   UNL d   1     -41.196-121.803 -51.955  0.00  0.00     0.315 A 
ATOM      3  N   UNL d   1     -41.181-121.587 -52.744  0.00  0.00    -0.205 NA
ATOM      4  C   UNL d   1     -41.348-122.906 -52.655  0.00  0.00     0.059 A 
ATOM      5  C   UNL d   1     -41.275-122.269 -53.191  0.00  0.00     0.088 A 
ATOM      6  O   UNL d   1     -41.123-121.311 -51.294  0.00  0.00    -0.262 OA
ATOM      7  O   UNL d   1     -41.399-123.395 -52.020  0.00  0.00    -0.285 OA
ATOM      8  C   UNL d   1     -41.449-123.668 -52.956  0.00  0.00     0.005 A 
ATOM      9  C   UNL d   1     -41.306-122.403 -54.018  0.00  0.00     0.019 A 
ATOM     10  C   UNL d   1     -41.481-123.817 -53.759  0.00  0.00     0.000 A 
ATOM     11  C   UNL d   1     -41.409-123.180 -54.294  0.00  0.00     0.002 A 
ENDROOT
BRANCH   1  12
ATOM     12  C   UNL d   1     -41.327-122.932 -51.153  0.00  0.00     0.086 C 
BRANCH  12  13
ATOM     13  C   UNL d   1     -41.965-122.800 -50.638  0.00  0.00     0.199 C 
ATOM     14  O   UNL d   1     -42.600-122.343 -50.895  0.00  0.00    -0.286 OA
BRANCH  13  15
ATOM     15  C   UNL d   1     -41.965-123.119 -49.889  0.00  0.00     0.039 A 
ATOM     16  C   UNL d   1     -41.267-123.158 -49.427  0.00  0.00     0.003 A 
ATOM     17  C   UNL d   1     -41.266-123.477 -48.677  0.00  0.00     0.000 A 
ATOM     18  C   UNL d   1     -41.982-123.770 -48.369  0.00  0.00     0.000 A 
ATOM     19  C   UNL d   1     -42.674-123.739 -48.809  0.00  0.00     0.000 A 
ATOM     20  C   UNL d   1     -42.663-123.420 -49.553  0.00  0.00     0.003 A 
ENDBRANCH  13  15
ENDBRANCH  12  13
ENDBRANCH   1  12
TORSDOF 3
ENDMDL
MODEL 2
REMARK VINA RESULT:      -5.3      1.095      3.840
REMARK  3 active torsions:
REMARK  status: ('A' for Active; 'I' for Inactive)
REMARK    1  A    between atoms: C_5  and  C_1 
REMARK    2  A    between atoms: C_7  and  C_5 
REMARK    3  A    between atoms: C_10  and  C_7 
ROOT
ATOM      1  C   UNL d   1     -41.188-122.160 -51.913  0.00  0.00     0.220 A 
ATOM      2  C   UNL d   1     -41.158-121.403 -51.659  0.00  0.00     0.315 A 
ATOM      3  N   UNL d   1     -41.168-121.388 -50.841  0.00  0.00    -0.205 NA
ATOM      4  C   UNL d   1     -41.218-122.653 -51.257  0.00  0.00     0.059 A 
ATOM      5  C   UNL d   1     -41.205-122.165 -50.580  0.00  0.00     0.088 A 
ATOM      6  O   UNL d   1     -41.123-120.758 -52.176  0.00  0.00    -0.262 OA
ATOM      7  O   UNL d   1     -41.222-122.972 -51.994  0.00  0.00    -0.285 OA
ATOM      8  C   UNL d   1     -41.255-123.471 -51.156  0.00  0.00     0.005 A 
ATOM      9  C   UNL d   1     -41.230-122.502 -49.812  0.00  0.00     0.019 A 
ATOM     10  C   UNL d   1     -41.279-123.817 -50.417  0.00  0.00     0.000 A 
ATOM     11  C   UNL d   1     -41.267-123.329 -49.740  0.00  0.00     0.002 A 
ENDROOT
BRANCH   1  12
ATOM     12  C   UNL d   1     -41.183-122.304 -52.718  0.00  0.00     0.086 C 
BRANCH  12  13
ATOM     13  C   UNL d   1     -41.850-122.161 -53.192  0.00  0.00     0.199 C 
ATOM     14  O   UNL d   1     -42.564-121.963 -52.832  0.00  0.00    -0.286 OA
BRANCH  13  15
ATOM     15  C   UNL d   1     -41.801-122.217 -54.004  0.00  0.00     0.039 A 
ATOM     16  C   UNL d   1     -41.250-122.726 -54.378  0.00  0.00     0.003 A 
ATOM     17  C   UNL d   1     -41.200-122.781 -55.189  0.00  0.00     0.000 A 
ATOM     18  C   UNL d   1     -41.714-122.316 -55.652  0.00  0.00     0.000 A 
ATOM     19  C   UNL d   1     -42.258-121.813 -55.300  0.00  0.00     0.000 A 
ATOM     20  C   UNL d   1     -42.299-121.766 -54.493  0.00  0.00     0.003 A 
ENDBRANCH  13  15
ENDBRANCH  12  13
ENDBRANCH   1  12
TORSDOF 3
ENDMDL
MODEL 3
REMARK VINA RESULT:      -5.0      1.282      3.989
REMARK  3 active torsions:
REMARK  status: ('A' for Active; 'I' for Inactive)
REMARK    1  A    between atoms: C_5  and  C_1 
REMARK    2  A    between atoms: C_7  and  C_5 
REMARK    3  A    between atoms: C_10  and  C_7 
ROOT
ATOM      1  C   UNL d   1     -42.228-123.102 -49.752  0.00  0.00     0.220 A 
ATOM      2  C   UNL d   1     -42.907-122.689 -49.664  0.00  0.00     0.315 A 
ATOM      3  N   UNL d   1     -43.071-122.601 -48.867  0.00  0.00    -0.205 NA
ATOM      4  C   UNL d   1     -41.938-123.290 -49.008  0.00  0.00     0.059 A 
ATOM      5  C   UNL d   1     -42.471-122.973 -48.448  0.00  0.00     0.088 A 
ATOM      6  O   UNL d   1     -43.349-122.410 -50.305  0.00  0.00    -0.262 OA
ATOM      7  O   UNL d   1     -41.536-123.526 -49.661  0.00  0.00    -0.285 OA
ATOM      8  C   UNL d   1     -41.275-123.699 -48.737  0.00  0.00     0.005 A 
ATOM      9  C   UNL d   1     -42.331-123.070 -47.626  0.00  0.00     0.019 A 
ATOM     10  C   UNL d   1     -41.123-123.803 -47.941  0.00  0.00     0.000 A 
ATOM     11  C   UNL d   1     -41.655-123.486 -47.382  0.00  0.00     0.002 A 
ENDROOT
BRANCH   1  12
ATOM     12  C   UNL d   1     -41.959-123.255 -50.510  0.00  0.00     0.086 C 
BRANCH  12  13
ATOM     13  C   UNL d   1     -41.667-122.653 -51.001  0.00  0.00     0.199 C 
ATOM     14  O   UNL d   1     -41.559-121.898 -50.690  0.00  0.00    -0.286 OA
BRANCH  13  15
ATOM     15  C   UNL d   1     -41.487-122.806 -51.781  0.00  0.00     0.039 A 
ATOM     16  C   UNL d   1     -41.441-123.588 -52.078  0.00  0.00     0.003 A 
ATOM     17  C   UNL d   1     -41.262-123.741 -52.858  0.00  0.00     0.000 A 
ATOM     18  C   UNL d   1     -41.123-123.096 -53.367  0.00  0.00     0.000 A 
ATOM     19  C   UNL d   1     -41.164-122.325 -53.091  0.00  0.00     0.000 A 
ATOM     20  C   UNL d   1     -41.343-122.185 -52.315  0.00  0.00     0.003 A 
ENDBRANCH  13  15
ENDBRANCH  12  13
ENDBRANCH   1  12
TORSDOF 3
ENDMDL
MODEL 4
REMARK VINA RESULT:      -4.2      0.851      1.214
REMARK  3 active torsions:
REMARK  status: ('A' for Active; 'I' for Inactive)
REMARK    1  A    between atoms: C_5  and  C_1 
REMARK    2  A    between atoms: C_7  and  C_5 
REMARK    3  A    between atoms: C_10  and  C_7 
ROOT
ATOM      1  C   UNL d   1     -41.492-122.711 -50.700  0.00  0.00     0.220 A 
ATOM      2  C   UNL d   1     -41.463-121.912 -50.698  0.00  0.00     0.315 A 
ATOM      3  N   UNL d   1     -41.344-121.642 -51.462  0.00  0.00    -0.205 NA
ATOM      4  C   UNL d   1     -41.392-122.974 -51.470  0.00  0.00     0.059 A 
ATOM      5  C   UNL d   1     -41.298-122.299 -51.952  0.00  0.00     0.088 A 
ATOM      6  O   UNL d   1     -41.545-121.461 -50.010  0.00  0.00    -0.262 OA
ATOM      7  O   UNL d   1     -41.496-123.507 -50.879  0.00  0.00    -0.285 OA
ATOM      8  C   UNL d   1     -41.369-123.720 -51.823  0.00  0.00     0.005 A 
ATOM      9  C   UNL d   1     -41.182-122.379 -52.779  0.00  0.00     0.019 A 
ATOM     10  C   UNL d   1     -41.257-123.817 -52.626  0.00  0.00     0.000 A 
ATOM     11  C   UNL d   1     -41.163-123.142 -53.108  0.00  0.00     0.002 A 
ENDROOT
BRANCH   1  12
ATOM     12  C   UNL d   1     -41.609-123.099 -49.989  0.00  0.00     0.086 C 
BRANCH  12  13
ATOM     13  C   UNL d   1     -42.309-123.010 -49.550  0.00  0.00     0.199 C 
ATOM     14  O   UNL d   1     -42.962-122.656 -49.905  0.00  0.00    -0.286 OA
BRANCH  13  15
ATOM     15  C   UNL d   1     -42.349-123.270 -48.779  0.00  0.00     0.039 A 
ATOM     16  C   UNL d   1     -41.674-123.287 -48.283  0.00  0.00     0.003 A 
ATOM     17  C   UNL d   1     -41.714-123.547 -47.512  0.00  0.00     0.000 A 
ATOM     18  C   UNL d   1     -42.451-123.800 -47.216  0.00  0.00     0.000 A 
ATOM     19  C   UNL d   1     -43.121-123.789 -47.689  0.00  0.00     0.000 A 
ATOM     20  C   UNL d   1     -43.069-123.529 -48.454  0.00  0.00     0.003 A 
ENDBRANCH  13  15
ENDBRANCH  12  13
ENDBRANCH   1  12
TORSDOF 3
ENDMDL
