MODEL 1
REMARK VINA RESULT:      43.3      0.000      0.000
REMARK  6 active torsions:
REMARK  status: ('A' for Active; 'I' for Inactive)
REMARK    1  A    between atoms: C_5  and  N_1 
REMARK    2  A    between atoms: C_4  and  C_5 
REMARK       I    between atoms: N_8  and  C_4 
REMARK    3  A    between atoms: C_6  and  C_9 
REMARK    4  A    between atoms: O_19  and  C_6 
REMARK    5  A    between atoms: C_16  and  N_8 
REMARK    6  A    between atoms: C_22  and  O_19 
ROOT
ATOM      1  C   UNL d   1      15.185  13.054  -1.123  0.00  0.00     0.297 C 
ATOM      2  N   UNL d   1      14.674  13.638  -0.833  0.00  0.00    -0.207 NA
ATOM      3  O   UNL d   1      15.957  13.255  -1.334  0.00  0.00    -0.264 OA
ENDROOT
BRANCH   2   4
ATOM      4  C   UNL d   1      14.936  14.418  -0.754  0.00  0.00     0.085 A 
ATOM      5  C   UNL d   1      15.513  14.605  -0.194  0.00  0.00     0.019 A 
ATOM      6  C   UNL d   1      15.763  15.385  -0.128  0.00  0.00     0.007 A 
ATOM      7  C   UNL d   1      15.452  15.973  -0.605  0.00  0.00     0.064 A 
ATOM      8  C   UNL d   1      14.876  15.781  -1.164  0.00  0.00     0.007 A 
ATOM      9  C   UNL d   1      14.613  15.001  -1.242  0.00  0.00     0.019 A 
BRANCH   7  10
ATOM     10  C   UNL d   1      15.711  16.756  -0.530  0.00  0.00     0.300 C 
ATOM     11  O   UNL d   1      16.520  16.920  -0.531  0.00  0.00    -0.259 OA
BRANCH  10  12
ATOM     12  O   UNL d   1      15.172  17.362  -0.457  0.00  0.00    -0.271 OA
BRANCH  12  13
ATOM     13  C   UNL d   1      15.120  17.955  -1.025  0.00  0.00     0.126 C 
ATOM     14  C   UNL d   1      15.195  18.740  -0.821  0.00  0.00     0.029 C 
ENDBRANCH  12  13
ENDBRANCH  10  12
ENDBRANCH   7  10
ENDBRANCH   2   4
BRANCH   1  15
ATOM     15  C   UNL d   1      14.933  12.282  -1.204  0.00  0.00     0.148 C 
BRANCH  15  16
ATOM     16  N   UNL d   1      14.225  12.116  -1.594  0.00  0.00    -0.235 N 
ATOM     17  C   UNL d   1      13.544  11.944  -1.155  0.00  0.00     0.274 A 
ATOM     18  O   UNL d   1      13.576  11.940  -0.329  0.00  0.00    -0.266 OA
ATOM     19  C   UNL d   1      12.843  11.780  -1.542  0.00  0.00     0.097 A 
ATOM     20  S   UNL d   1      12.802  11.782  -2.360  0.00  0.00    -0.076 SA
ATOM     21  C   UNL d   1      13.475  11.951  -2.798  0.00  0.00     0.097 A 
ATOM     22  C   UNL d   1      14.190  12.119  -2.422  0.00  0.00     0.274 A 
ATOM     23  O   UNL d   1      14.866  12.290  -2.859  0.00  0.00    -0.266 OA
ENDBRANCH  15  16
ENDBRANCH   1  15
TORSDOF 6
ENDMDL
