MODEL 1
REMARK VINA RESULT:      -6.0      0.000      0.000
REMARK  5 active torsions:
REMARK  status: ('A' for Active; 'I' for Inactive)
REMARK    1  A    between atoms: C_2  and  C_1 
REMARK    2  A    between atoms: C_7  and  C_2 
REMARK    3  A    between atoms: C_9  and  N_3 
REMARK    4  A    between atoms: N_5  and  C_7 
REMARK    5  A    between atoms: O_24  and  C_20 
ROOT
ATOM      1  N   UNL d   1     -45.869  13.011  22.583  0.00  0.00    -0.301 N 
ATOM      2  N   UNL d   1     -47.403  13.338  23.119  0.00  0.00    -0.297 N 
ATOM      3  C   UNL d   1     -46.351  12.401  22.853  0.00  0.00     0.100 A 
ATOM      4  C   UNL d   1     -46.153  13.786  22.580  0.00  0.00     0.100 A 
ATOM      5  C   UNL d   1     -47.124  12.562  23.124  0.00  0.00     0.100 A 
ATOM      6  C   UNL d   1     -46.919  13.942  22.849  0.00  0.00     0.100 A 
ENDROOT
BRANCH   2   7
ATOM      7  C   UNL d   1     -48.165  13.496  23.386  0.00  0.00     0.123 C 
BRANCH   7   8
ATOM      8  C   UNL d   1     -48.786  13.583  22.850  0.00  0.00     0.216 C 
ATOM      9  O   UNL d   1     -48.837  13.088  22.192  0.00  0.00    -0.285 OA
BRANCH   8  10
ATOM     10  C   UNL d   1     -49.361  14.170  22.971  0.00  0.00     0.080 A 
ATOM     11  C   UNL d   1     -50.125  13.963  23.154  0.00  0.00     0.202 A 
ATOM     12  C   UNL d   1     -50.694  14.540  23.273  0.00  0.00     0.084 A 
ATOM     13  O   UNL d   1     -50.327  13.166  23.219  0.00  0.00    -0.286 OA
ATOM     14  C   UNL d   1     -50.495  15.346  23.209  0.00  0.00     0.199 A 
ATOM     15  C   UNL d   1     -49.713  15.555  23.023  0.00  0.00     0.042 A 
ATOM     16  O   UNL d   1     -51.064  15.922  23.329  0.00  0.00    -0.286 OA
ATOM     17  C   UNL d   1     -49.145  14.972  22.903  0.00  0.00     0.010 A 
ENDBRANCH   8  10
ENDBRANCH   7   8
ENDBRANCH   2   7
BRANCH   1  18
ATOM     18  C   UNL d   1     -45.110  12.850  22.317  0.00  0.00     0.064 A 
ATOM     19  C   UNL d   1     -44.742  13.365  21.800  0.00  0.00     0.020 A 
ATOM     20  C   UNL d   1     -43.974  13.201  21.532  0.00  0.00     0.026 A 
ATOM     21  C   UNL d   1     -43.585  12.520  21.789  0.00  0.00     0.094 A 
ATOM     22  C   UNL d   1     -43.966  11.999  22.316  0.00  0.00     0.026 A 
ATOM     23  C   UNL d   1     -44.725  12.168  22.577  0.00  0.00     0.020 A 
BRANCH  21  24
ATOM     24  O   UNL d   1     -42.819  12.359  21.520  0.00  0.00    -0.328 OA
ATOM     25  C   UNL d   1     -42.431  12.913  21.050  0.00  0.00     0.181 C 
ENDBRANCH  21  24
ENDBRANCH   1  18
TORSDOF 5
ENDMDL
MODEL 2
REMARK VINA RESULT:      -5.3      1.320      1.698
REMARK  5 active torsions:
REMARK  status: ('A' for Active; 'I' for Inactive)
REMARK    1  A    between atoms: C_2  and  C_1 
REMARK    2  A    between atoms: C_7  and  C_2 
REMARK    3  A    between atoms: C_9  and  N_3 
REMARK    4  A    between atoms: N_5  and  C_7 
REMARK    5  A    between atoms: O_24  and  C_20 
ROOT
ATOM      1  N   UNL d   1     -46.163  11.813  23.301  0.00  0.00    -0.301 N 
ATOM      2  N   UNL d   1     -47.676  12.481  23.422  0.00  0.00    -0.297 N 
ATOM      3  C   UNL d   1     -46.787  11.371  23.608  0.00  0.00     0.100 A 
ATOM      4  C   UNL d   1     -46.295  12.589  23.054  0.00  0.00     0.100 A 
ATOM      5  C   UNL d   1     -47.549  11.705  23.670  0.00  0.00     0.100 A 
ATOM      6  C   UNL d   1     -47.051  12.916  23.117  0.00  0.00     0.100 A 
ENDROOT
BRANCH   2   7
ATOM      7  C   UNL d   1     -48.428  12.809  23.484  0.00  0.00     0.123 C 
BRANCH   7   8
ATOM      8  C   UNL d   1     -48.980  12.701  22.883  0.00  0.00     0.216 C 
ATOM      9  O   UNL d   1     -49.045  11.970  22.506  0.00  0.00    -0.285 OA
BRANCH   8  10
ATOM     10  C   UNL d   1     -49.474  13.329  22.654  0.00  0.00     0.080 A 
ATOM     11  C   UNL d   1     -49.812  13.336  21.915  0.00  0.00     0.202 A 
ATOM     12  C   UNL d   1     -50.299  13.954  21.687  0.00  0.00     0.084 A 
ATOM     13  O   UNL d   1     -49.661  12.716  21.392  0.00  0.00    -0.286 OA
ATOM     14  C   UNL d   1     -50.454  14.582  22.212  0.00  0.00     0.199 A 
ATOM     15  C   UNL d   1     -50.108  14.572  22.967  0.00  0.00     0.042 A 
ATOM     16  O   UNL d   1     -50.941  15.199  21.983  0.00  0.00    -0.286 OA
ATOM     17  C   UNL d   1     -49.619  13.949  23.191  0.00  0.00     0.010 A 
ENDBRANCH   8  10
ENDBRANCH   7   8
ENDBRANCH   2   7
BRANCH   1  18
ATOM     18  C   UNL d   1     -45.415  11.482  23.241  0.00  0.00     0.064 A 
ATOM     19  C   UNL d   1     -44.861  11.819  22.744  0.00  0.00     0.020 A 
ATOM     20  C   UNL d   1     -44.103  11.484  22.684  0.00  0.00     0.026 A 
ATOM     21  C   UNL d   1     -43.914  10.813  23.126  0.00  0.00     0.094 A 
ATOM     22  C   UNL d   1     -44.484  10.476  23.630  0.00  0.00     0.026 A 
ATOM     23  C   UNL d   1     -45.230  10.812  23.685  0.00  0.00     0.020 A 
BRANCH  21  24
ATOM     24  O   UNL d   1     -43.159  10.482  23.064  0.00  0.00    -0.328 OA
ATOM     25  C   UNL d   1     -42.855  10.047  23.696  0.00  0.00     0.181 C 
ENDBRANCH  21  24
ENDBRANCH   1  18
TORSDOF 5
ENDMDL
MODEL 3
REMARK VINA RESULT:      -5.1      0.973      5.747
REMARK  5 active torsions:
REMARK  status: ('A' for Active; 'I' for Inactive)
REMARK    1  A    between atoms: C_2  and  C_1 
REMARK    2  A    between atoms: C_7  and  C_2 
REMARK    3  A    between atoms: C_9  and  N_3 
REMARK    4  A    between atoms: N_5  and  C_7 
REMARK    5  A    between atoms: O_24  and  C_20 
ROOT
ATOM      1  N   UNL d   1     -47.846  14.083  22.916  0.00  0.00    -0.301 N 
ATOM      2  N   UNL d   1     -46.305  13.479  22.817  0.00  0.00    -0.297 N 
ATOM      3  C   UNL d   1     -47.200  14.591  22.956  0.00  0.00     0.100 A 
ATOM      4  C   UNL d   1     -47.723  13.272  22.826  0.00  0.00     0.100 A 
ATOM      5  C   UNL d   1     -46.423  14.291  22.907  0.00  0.00     0.100 A 
ATOM      6  C   UNL d   1     -46.952  12.978  22.777  0.00  0.00     0.100 A 
ENDROOT
BRANCH   2   7
ATOM      7  C   UNL d   1     -45.539  13.185  22.769  0.00  0.00     0.123 C 
BRANCH   7   8
ATOM      8  C   UNL d   1     -45.292  12.772  22.100  0.00  0.00     0.216 C 
ATOM      9  O   UNL d   1     -45.846  12.399  21.616  0.00  0.00    -0.285 OA
BRANCH   8  10
ATOM     10  C   UNL d   1     -44.484  12.731  21.910  0.00  0.00     0.080 A 
ATOM     11  C   UNL d   1     -44.017  12.149  22.231  0.00  0.00     0.202 A 
ATOM     12  C   UNL d   1     -43.220  12.106  22.046  0.00  0.00     0.084 A 
ATOM     13  O   UNL d   1     -44.349  11.598  22.748  0.00  0.00    -0.286 OA
ATOM     14  C   UNL d   1     -42.880  12.660  21.525  0.00  0.00     0.199 A 
ATOM     15  C   UNL d   1     -43.359  13.254  21.197  0.00  0.00     0.042 A 
ATOM     16  O   UNL d   1     -42.084  12.617  21.340  0.00  0.00    -0.286 OA
ATOM     17  C   UNL d   1     -44.160  13.293  21.387  0.00  0.00     0.010 A 
ENDBRANCH   8  10
ENDBRANCH   7   8
ENDBRANCH   2   7
BRANCH   1  18
ATOM     18  C   UNL d   1     -48.609  14.381  22.964  0.00  0.00     0.064 A 
ATOM     19  C   UNL d   1     -49.189  13.952  23.347  0.00  0.00     0.020 A 
ATOM     20  C   UNL d   1     -49.961  14.254  23.396  0.00  0.00     0.026 A 
ATOM     21  C   UNL d   1     -50.138  14.986  23.058  0.00  0.00     0.094 A 
ATOM     22  C   UNL d   1     -49.541  15.418  22.670  0.00  0.00     0.026 A 
ATOM     23  C   UNL d   1     -48.781  15.113  22.626  0.00  0.00     0.020 A 
BRANCH  21  24
ATOM     24  O   UNL d   1     -50.908  15.285  23.108  0.00  0.00    -0.328 OA
ATOM     25  C   UNL d   1     -51.064  15.916  23.615  0.00  0.00     0.181 C 
ENDBRANCH  21  24
ENDBRANCH   1  18
TORSDOF 5
ENDMDL
MODEL 4
REMARK VINA RESULT:      -4.9      1.217      5.744
REMARK  5 active torsions:
REMARK  status: ('A' for Active; 'I' for Inactive)
REMARK    1  A    between atoms: C_2  and  C_1 
REMARK    2  A    between atoms: C_7  and  C_2 
REMARK    3  A    between atoms: C_9  and  N_3 
REMARK    4  A    between atoms: N_5  and  C_7 
REMARK    5  A    between atoms: O_24  and  C_20 
ROOT
ATOM      1  N   UNL d   1     -47.616  13.160  22.742  0.00  0.00    -0.301 N 
ATOM      2  N   UNL d   1     -46.011  13.386  22.395  0.00  0.00    -0.297 N 
ATOM      3  C   UNL d   1     -47.090  13.373  23.339  0.00  0.00     0.100 A 
ATOM      4  C   UNL d   1     -47.340  13.060  21.971  0.00  0.00     0.100 A 
ATOM      5  C   UNL d   1     -46.282  13.487  23.168  0.00  0.00     0.100 A 
ATOM      6  C   UNL d   1     -46.539  13.174  21.805  0.00  0.00     0.100 A 
ENDROOT
BRANCH   2   7
ATOM      7  C   UNL d   1     -45.213  13.500  22.228  0.00  0.00     0.123 C 
BRANCH   7   8
ATOM      8  C   UNL d   1     -44.693  12.861  22.225  0.00  0.00     0.216 C 
ATOM      9  O   UNL d   1     -44.916  12.144  22.565  0.00  0.00    -0.285 OA
BRANCH   8  10
ATOM     10  C   UNL d   1     -43.941  12.938  21.879  0.00  0.00     0.080 A 
ATOM     11  C   UNL d   1     -43.402  12.333  21.932  0.00  0.00     0.202 A 
ATOM     12  C   UNL d   1     -42.661  12.406  21.592  0.00  0.00     0.084 A 
ATOM     13  O   UNL d   1     -43.605  11.640  22.331  0.00  0.00    -0.286 OA
ATOM     14  C   UNL d   1     -42.451  13.104  21.188  0.00  0.00     0.199 A 
ATOM     15  C   UNL d   1     -43.004  13.721  21.135  0.00  0.00     0.042 A 
ATOM     16  O   UNL d   1     -41.710  13.176  20.848  0.00  0.00    -0.286 OA
ATOM     17  C   UNL d   1     -43.748  13.643  21.479  0.00  0.00     0.010 A 
ENDBRANCH   8  10
ENDBRANCH   7   8
ENDBRANCH   2   7
BRANCH   1  18
ATOM     18  C   UNL d   1     -48.411  13.047  22.913  0.00  0.00     0.064 A 
ATOM     19  C   UNL d   1     -48.945  13.649  22.773  0.00  0.00     0.020 A 
ATOM     20  C   UNL d   1     -49.749  13.535  22.946  0.00  0.00     0.026 A 
ATOM     21  C   UNL d   1     -50.004  12.815  23.258  0.00  0.00     0.094 A 
ATOM     22  C   UNL d   1     -49.453  12.206  23.398  0.00  0.00     0.026 A 
ATOM     23  C   UNL d   1     -48.661  12.326  23.225  0.00  0.00     0.020 A 
BRANCH  21  24
ATOM     24  O   UNL d   1     -50.806  12.703  23.430  0.00  0.00    -0.328 OA
ATOM     25  C   UNL d   1     -51.064  11.967  23.697  0.00  0.00     0.181 C 
ENDBRANCH  21  24
ENDBRANCH   1  18
TORSDOF 5
ENDMDL
MODEL 5
REMARK VINA RESULT:      -4.3      1.272      1.727
REMARK  5 active torsions:
REMARK  status: ('A' for Active; 'I' for Inactive)
REMARK    1  A    between atoms: C_2  and  C_1 
REMARK    2  A    between atoms: C_7  and  C_2 
REMARK    3  A    between atoms: C_9  and  N_3 
REMARK    4  A    between atoms: N_5  and  C_7 
REMARK    5  A    between atoms: O_24  and  C_20 
ROOT
ATOM      1  N   UNL d   1     -45.123  12.984  22.207  0.00  0.00    -0.301 N 
ATOM      2  N   UNL d   1     -46.686  12.978  22.760  0.00  0.00    -0.297 N 
ATOM      3  C   UNL d   1     -45.449  12.295  22.517  0.00  0.00     0.100 A 
ATOM      4  C   UNL d   1     -45.578  13.672  22.173  0.00  0.00     0.100 A 
ATOM      5  C   UNL d   1     -46.235  12.288  22.796  0.00  0.00     0.100 A 
ATOM      6  C   UNL d   1     -46.356  13.662  22.450  0.00  0.00     0.100 A 
ENDROOT
BRANCH   2   7
ATOM      7  C   UNL d   1     -47.461  12.970  23.035  0.00  0.00     0.123 C 
BRANCH   7   8
ATOM      8  C   UNL d   1     -48.087  12.835  22.517  0.00  0.00     0.216 C 
ATOM      9  O   UNL d   1     -47.972  12.907  21.703  0.00  0.00    -0.285 OA
BRANCH   8  10
ATOM     10  C   UNL d   1     -48.835  12.627  22.811  0.00  0.00     0.080 A 
ATOM     11  C   UNL d   1     -49.479  13.102  22.667  0.00  0.00     0.202 A 
ATOM     12  C   UNL d   1     -50.218  12.899  22.957  0.00  0.00     0.084 A 
ATOM     13  O   UNL d   1     -49.385  13.793  22.226  0.00  0.00    -0.286 OA
ATOM     14  C   UNL d   1     -50.317  12.202  23.403  0.00  0.00     0.199 A 
ATOM     15  C   UNL d   1     -49.658  11.719  23.549  0.00  0.00     0.042 A 
ATOM     16  O   UNL d   1     -51.055  12.000  23.692  0.00  0.00    -0.286 OA
ATOM     17  C   UNL d   1     -48.917  11.927  23.256  0.00  0.00     0.010 A 
ENDBRANCH   8  10
ENDBRANCH   7   8
ENDBRANCH   2   7
BRANCH   1  18
ATOM     18  C   UNL d   1     -44.350  12.988  21.933  0.00  0.00     0.064 A 
ATOM     19  C   UNL d   1     -44.010  13.688  21.684  0.00  0.00     0.020 A 
ATOM     20  C   UNL d   1     -43.227  13.691  21.407  0.00  0.00     0.026 A 
ATOM     21  C   UNL d   1     -42.796  12.987  21.385  0.00  0.00     0.094 A 
ATOM     22  C   UNL d   1     -43.149  12.277  21.641  0.00  0.00     0.026 A 
ATOM     23  C   UNL d   1     -43.923  12.283  21.913  0.00  0.00     0.020 A 
BRANCH  21  24
ATOM     24  O   UNL d   1     -42.016  12.993  21.109  0.00  0.00    -0.328 OA
ATOM     25  C   UNL d   1     -41.808  13.503  20.495  0.00  0.00     0.181 C 
ENDBRANCH  21  24
ENDBRANCH   1  18
TORSDOF 5
ENDMDL
