MODEL 1
REMARK VINA RESULT:      -8.3      0.000      0.000
REMARK  2 active torsions:
REMARK  status: ('A' for Active; 'I' for Inactive)
REMARK       I    between atoms: C_2  and  N_1 
REMARK    1  A    between atoms: C_4  and  C_2 
REMARK    2  A    between atoms: C_6  and  C_7 
ROOT
ATOM      1  C   UNL d   1     -48.863  12.908  22.386  0.00  0.00     0.057 A 
ATOM      2  C   UNL d   1     -47.474  12.275  23.042  0.00  0.00    -0.023 A 
ATOM      3  C   UNL d   1     -48.916  12.326  22.980  0.00  0.00     0.004 A 
ATOM      4  C   UNL d   1     -48.143  13.177  22.116  0.00  0.00     0.004 A 
ATOM      5  C   UNL d   1     -48.194  12.006  23.312  0.00  0.00    -0.004 A 
ATOM      6  C   UNL d   1     -47.422  12.856  22.448  0.00  0.00    -0.004 A 
ENDROOT
BRANCH   1   7
ATOM      7  C   UNL d   1     -49.549  13.221  22.062  0.00  0.00     0.267 C 
ATOM      8  N   UNL d   1     -49.890  13.903  22.408  0.00  0.00    -0.240 N 
ATOM      9  C   UNL d   1     -49.543  14.267  23.076  0.00  0.00     0.267 A 
ATOM     10  C   UNL d   1     -50.579  14.153  22.021  0.00  0.00     0.086 A 
ATOM     11  O   UNL d   1     -48.805  13.880  23.376  0.00  0.00    -0.267 OA
ATOM     12  C   UNL d   1     -49.768  14.929  23.508  0.00  0.00     0.061 A 
ATOM     13  C   UNL d   1     -50.453  15.422  23.358  0.00  0.00     0.005 A 
ATOM     14  C   UNL d   1     -50.984  15.353  22.808  0.00  0.00     0.002 A 
ATOM     15  C   UNL d   1     -51.064  14.797  22.198  0.00  0.00     0.019 A 
ATOM     16  O   UNL d   1     -49.896  12.880  21.417  0.00  0.00    -0.267 OA
ENDBRANCH   1   7
BRANCH   2  17
ATOM     17  C   UNL d   1     -46.787  11.959  23.369  0.00  0.00     0.019 C 
ATOM     18  C   UNL d   1     -46.341  12.566  23.042  0.00  0.00     0.004 C 
ATOM     19  C   UNL d   1     -46.103  11.639  23.698  0.00  0.00     0.004 C 
ATOM     20  C   UNL d   1     -47.236  11.348  23.698  0.00  0.00     0.004 C 
ENDBRANCH   2  17
TORSDOF 2
ENDMDL
MODEL 2
REMARK VINA RESULT:      -8.3      1.106      3.872
REMARK  2 active torsions:
REMARK  status: ('A' for Active; 'I' for Inactive)
REMARK       I    between atoms: C_2  and  N_1 
REMARK    1  A    between atoms: C_4  and  C_2 
REMARK    2  A    between atoms: C_6  and  C_7 
ROOT
ATOM      1  C   UNL d   1     -49.122  12.344  22.978  0.00  0.00     0.057 A 
ATOM      2  C   UNL d   1     -50.096  13.559  22.403  0.00  0.00    -0.023 A 
ATOM      3  C   UNL d   1     -49.240  12.423  22.158  0.00  0.00     0.004 A 
ATOM      4  C   UNL d   1     -49.473  12.850  23.511  0.00  0.00     0.004 A 
ATOM      5  C   UNL d   1     -49.744  13.052  21.870  0.00  0.00    -0.004 A 
ATOM      6  C   UNL d   1     -49.977  13.480  23.223  0.00  0.00    -0.004 A 
ENDROOT
BRANCH   1   7
ATOM      7  C   UNL d   1     -48.640  11.743  23.263  0.00  0.00     0.267 C 
ATOM      8  N   UNL d   1     -47.811  11.861  23.289  0.00  0.00    -0.240 N 
ATOM      9  C   UNL d   1     -47.470  12.579  23.030  0.00  0.00     0.267 A 
ATOM     10  C   UNL d   1     -47.399  11.207  23.589  0.00  0.00     0.086 A 
ATOM     11  O   UNL d   1     -48.044  13.186  22.735  0.00  0.00    -0.267 OA
ATOM     12  C   UNL d   1     -46.686  12.825  23.001  0.00  0.00     0.061 A 
ATOM     13  C   UNL d   1     -46.003  12.368  23.245  0.00  0.00     0.005 A 
ATOM     14  C   UNL d   1     -45.979  11.657  23.534  0.00  0.00     0.002 A 
ATOM     15  C   UNL d   1     -46.586  11.117  23.698  0.00  0.00     0.019 A 
ATOM     16  O   UNL d   1     -48.955  11.044  23.517  0.00  0.00    -0.267 OA
ENDBRANCH   1   7
BRANCH   2  17
ATOM     17  C   UNL d   1     -50.579  14.161  22.115  0.00  0.00     0.019 C 
ATOM     18  C   UNL d   1     -50.263  14.689  22.658  0.00  0.00     0.004 C 
ATOM     19  C   UNL d   1     -51.064  14.760  21.822  0.00  0.00     0.004 C 
ATOM     20  C   UNL d   1     -50.897  13.630  21.567  0.00  0.00     0.004 C 
ENDBRANCH   2  17
TORSDOF 2
ENDMDL
MODEL 3
REMARK VINA RESULT:      -8.3      1.369      1.990
REMARK  2 active torsions:
REMARK  status: ('A' for Active; 'I' for Inactive)
REMARK       I    between atoms: C_2  and  N_1 
REMARK    1  A    between atoms: C_4  and  C_2 
REMARK    2  A    between atoms: C_6  and  C_7 
ROOT
ATOM      1  C   UNL d   1     -47.935  12.249  22.996  0.00  0.00     0.057 A 
ATOM      2  C   UNL d   1     -46.526  13.032  22.597  0.00  0.00    -0.023 A 
ATOM      3  C   UNL d   1     -47.386  12.436  23.592  0.00  0.00     0.004 A 
ATOM      4  C   UNL d   1     -47.799  12.441  22.216  0.00  0.00     0.004 A 
ATOM      5  C   UNL d   1     -46.662  12.840  23.378  0.00  0.00    -0.004 A 
ATOM      6  C   UNL d   1     -47.075  12.845  22.001  0.00  0.00    -0.004 A 
ENDROOT
BRANCH   1   7
ATOM      7  C   UNL d   1     -48.632  11.862  23.192  0.00  0.00     0.267 C 
ATOM      8  N   UNL d   1     -49.326  12.311  23.324  0.00  0.00    -0.240 N 
ATOM      9  C   UNL d   1     -49.319  13.145  23.258  0.00  0.00     0.267 A 
ATOM     10  C   UNL d   1     -49.983  11.844  23.517  0.00  0.00     0.086 A 
ATOM     11  O   UNL d   1     -48.536  13.500  23.043  0.00  0.00    -0.267 OA
ATOM     12  C   UNL d   1     -49.917  13.700  23.358  0.00  0.00     0.061 A 
ATOM     13  C   UNL d   1     -50.732  13.533  23.566  0.00  0.00     0.005 A 
ATOM     14  C   UNL d   1     -51.064  12.854  23.698  0.00  0.00     0.002 A 
ATOM     15  C   UNL d   1     -50.755  12.085  23.683  0.00  0.00     0.019 A 
ATOM     16  O   UNL d   1     -48.655  11.057  23.260  0.00  0.00    -0.267 OA
ENDBRANCH   1   7
BRANCH   2  17
ATOM     17  C   UNL d   1     -45.826  13.421  22.403  0.00  0.00     0.019 C 
ATOM     18  C   UNL d   1     -46.166  14.146  22.585  0.00  0.00     0.004 C 
ATOM     19  C   UNL d   1     -45.123  13.804  22.207  0.00  0.00     0.004 C 
ATOM     20  C   UNL d   1     -45.483  12.691  22.219  0.00  0.00     0.004 C 
ENDBRANCH   2  17
TORSDOF 2
ENDMDL
MODEL 4
REMARK VINA RESULT:      -8.1      0.929      1.625
REMARK  2 active torsions:
REMARK  status: ('A' for Active; 'I' for Inactive)
REMARK       I    between atoms: C_2  and  N_1 
REMARK    1  A    between atoms: C_4  and  C_2 
REMARK    2  A    between atoms: C_6  and  C_7 
ROOT
ATOM      1  C   UNL d   1     -48.106  13.993  22.930  0.00  0.00     0.057 A 
ATOM      2  C   UNL d   1     -46.696  13.116  22.898  0.00  0.00    -0.023 A 
ATOM      3  C   UNL d   1     -48.079  13.243  23.291  0.00  0.00     0.004 A 
ATOM      4  C   UNL d   1     -47.455  14.311  22.558  0.00  0.00     0.004 A 
ATOM      5  C   UNL d   1     -47.348  12.798  23.270  0.00  0.00    -0.004 A 
ATOM      6  C   UNL d   1     -46.723  13.866  22.537  0.00  0.00    -0.004 A 
ENDROOT
BRANCH   1   7
ATOM      7  C   UNL d   1     -48.803  14.426  22.946  0.00  0.00     0.267 C 
ATOM      8  N   UNL d   1     -49.436  14.201  22.446  0.00  0.00    -0.240 N 
ATOM      9  C   UNL d   1     -49.368  13.543  21.935  0.00  0.00     0.267 A 
ATOM     10  C   UNL d   1     -50.101  14.690  22.524  0.00  0.00     0.086 A 
ATOM     11  O   UNL d   1     -48.591  13.119  21.966  0.00  0.00    -0.267 OA
ATOM     12  C   UNL d   1     -49.902  13.216  21.401  0.00  0.00     0.061 A 
ATOM     13  C   UNL d   1     -50.696  13.498  21.243  0.00  0.00     0.005 A 
ATOM     14  C   UNL d   1     -51.064  14.094  21.555  0.00  0.00     0.002 A 
ATOM     15  C   UNL d   1     -50.824  14.643  22.128  0.00  0.00     0.019 A 
ATOM     16  O   UNL d   1     -48.884  15.065  23.435  0.00  0.00    -0.267 OA
ENDBRANCH   1   7
BRANCH   2  17
ATOM     17  C   UNL d   1     -45.997  12.679  22.883  0.00  0.00     0.019 C 
ATOM     18  C   UNL d   1     -45.662  13.213  22.357  0.00  0.00     0.004 C 
ATOM     19  C   UNL d   1     -45.302  12.238  22.873  0.00  0.00     0.004 C 
ATOM     20  C   UNL d   1     -46.335  12.142  23.413  0.00  0.00     0.004 C 
ENDBRANCH   2  17
TORSDOF 2
ENDMDL
MODEL 5
REMARK VINA RESULT:      -6.9      9.059     10.588
REMARK  2 active torsions:
REMARK  status: ('A' for Active; 'I' for Inactive)
REMARK       I    between atoms: C_2  and  N_1 
REMARK    1  A    between atoms: C_4  and  C_2 
REMARK    2  A    between atoms: C_6  and  C_7 
ROOT
ATOM      1  C   UNL d   1     -40.003  14.215  18.089  0.00  0.00     0.057 A 
ATOM      2  C   UNL d   1     -38.966  14.148  16.794  0.00  0.00    -0.023 A 
ATOM      3  C   UNL d   1     -40.109  14.738  17.450  0.00  0.00     0.004 A 
ATOM      4  C   UNL d   1     -39.400  13.667  18.097  0.00  0.00     0.004 A 
ATOM      5  C   UNL d   1     -39.569  14.696  16.786  0.00  0.00    -0.004 A 
ATOM      6  C   UNL d   1     -38.860  13.626  17.434  0.00  0.00    -0.004 A 
ENDROOT
BRANCH   1   7
ATOM      7  C   UNL d   1     -40.515  14.247  18.730  0.00  0.00     0.267 C 
ATOM      8  N   UNL d   1     -40.326  14.739  19.381  0.00  0.00    -0.240 N 
ATOM      9  C   UNL d   1     -39.624  15.194  19.387  0.00  0.00     0.267 A 
ATOM     10  C   UNL d   1     -40.894  14.714  19.984  0.00  0.00     0.086 A 
ATOM     11  O   UNL d   1     -39.115  15.114  18.666  0.00  0.00    -0.267 OA
ATOM     12  C   UNL d   1     -39.320  15.710  19.950  0.00  0.00     0.061 A 
ATOM     13  C   UNL d   1     -39.679  15.906  20.704  0.00  0.00     0.005 A 
ATOM     14  C   UNL d   1     -40.339  15.649  21.002  0.00  0.00     0.002 A 
ATOM     15  C   UNL d   1     -40.900  15.118  20.703  0.00  0.00     0.019 A 
ATOM     16  O   UNL d   1     -41.197  13.813  18.739  0.00  0.00    -0.267 OA
ENDBRANCH   1   7
BRANCH   2  17
ATOM     17  C   UNL d   1     -38.453  14.117  16.150  0.00  0.00     0.019 C 
ATOM     18  C   UNL d   1     -38.176  13.383  16.393  0.00  0.00     0.004 C 
ATOM     19  C   UNL d   1     -37.942  14.091  15.504  0.00  0.00     0.004 C 
ATOM     20  C   UNL d   1     -38.732  14.856  15.905  0.00  0.00     0.004 C 
ENDBRANCH   2  17
TORSDOF 2
ENDMDL
MODEL 6
REMARK VINA RESULT:      -6.6      9.206     10.900
REMARK  2 active torsions:
REMARK  status: ('A' for Active; 'I' for Inactive)
REMARK       I    between atoms: C_2  and  N_1 
REMARK    1  A    between atoms: C_4  and  C_2 
REMARK    2  A    between atoms: C_6  and  C_7 
ROOT
ATOM      1  C   UNL d   1     -39.689  14.103  18.400  0.00  0.00     0.057 A 
ATOM      2  C   UNL d   1     -40.365  14.901  19.691  0.00  0.00    -0.023 A 
ATOM      3  C   UNL d   1     -40.465  14.397  18.341  0.00  0.00     0.004 A 
ATOM      4  C   UNL d   1     -39.248  14.196  19.079  0.00  0.00     0.004 A 
ATOM      5  C   UNL d   1     -40.806  14.807  19.011  0.00  0.00    -0.004 A 
ATOM      6  C   UNL d   1     -39.588  14.606  19.749  0.00  0.00    -0.004 A 
ENDROOT
BRANCH   1   7
ATOM      7  C   UNL d   1     -39.354  13.709  17.763  0.00  0.00     0.267 C 
ATOM      8  N   UNL d   1     -38.941  14.148  17.181  0.00  0.00    -0.240 N 
ATOM      9  C   UNL d   1     -38.866  14.979  17.242  0.00  0.00     0.267 A 
ATOM     10  C   UNL d   1     -38.635  13.675  16.573  0.00  0.00     0.086 A 
ATOM     11  O   UNL d   1     -39.249  15.342  17.953  0.00  0.00    -0.267 OA
ATOM     12  C   UNL d   1     -38.494  15.525  16.752  0.00  0.00     0.061 A 
ATOM     13  C   UNL d   1     -38.076  15.349  16.024  0.00  0.00     0.005 A 
ATOM     14  C   UNL d   1     -37.963  14.668  15.688  0.00  0.00     0.002 A 
ATOM     15  C   UNL d   1     -38.201  13.906  15.910  0.00  0.00     0.019 A 
ATOM     16  O   UNL d   1     -39.418  12.907  17.690  0.00  0.00    -0.267 OA
ENDBRANCH   1   7
BRANCH   2  17
ATOM     17  C   UNL d   1     -40.703  15.296  20.329  0.00  0.00     0.019 C 
ATOM     18  C   UNL d   1     -40.916  15.921  19.842  0.00  0.00     0.004 C 
ATOM     19  C   UNL d   1     -41.040  15.688  20.971  0.00  0.00     0.004 C 
ATOM     20  C   UNL d   1     -40.488  14.667  20.820  0.00  0.00     0.004 C 
ENDBRANCH   2  17
TORSDOF 2
ENDMDL
MODEL 7
REMARK VINA RESULT:      -6.4      9.070     10.265
REMARK  2 active torsions:
REMARK  status: ('A' for Active; 'I' for Inactive)
REMARK       I    between atoms: C_2  and  N_1 
REMARK    1  A    between atoms: C_4  and  C_2 
REMARK    2  A    between atoms: C_6  and  C_7 
ROOT
ATOM      1  C   UNL d   1     -40.333  14.749  19.782  0.00  0.00     0.057 A 
ATOM      2  C   UNL d   1     -40.420  15.122  18.166  0.00  0.00    -0.023 A 
ATOM      3  C   UNL d   1     -40.068  15.492  19.517  0.00  0.00     0.004 A 
ATOM      4  C   UNL d   1     -40.636  14.196  19.268  0.00  0.00     0.004 A 
ATOM      5  C   UNL d   1     -40.117  15.676  18.682  0.00  0.00    -0.004 A 
ATOM      6  C   UNL d   1     -40.685  14.380  18.433  0.00  0.00    -0.004 A 
ENDROOT
BRANCH   1   7
ATOM      7  C   UNL d   1     -40.290  14.564  20.581  0.00  0.00     0.267 C 
ATOM      8  N   UNL d   1     -39.594  14.208  20.882  0.00  0.00    -0.240 N 
ATOM      9  C   UNL d   1     -38.945  14.040  20.381  0.00  0.00     0.267 A 
ATOM     10  C   UNL d   1     -39.633  14.055  21.695  0.00  0.00     0.086 A 
ATOM     11  O   UNL d   1     -39.056  14.264  19.531  0.00  0.00    -0.267 OA
ATOM     12  C   UNL d   1     -38.214  13.699  20.540  0.00  0.00     0.061 A 
ATOM     13  C   UNL d   1     -37.940  13.424  21.304  0.00  0.00     0.005 A 
ATOM     14  C   UNL d   1     -38.306  13.437  21.979  0.00  0.00     0.002 A 
ATOM     15  C   UNL d   1     -39.061  13.713  22.182  0.00  0.00     0.019 A 
ATOM     16  O   UNL d   1     -40.908  14.720  21.078  0.00  0.00    -0.267 OA
ENDBRANCH   1   7
BRANCH   2  17
ATOM     17  C   UNL d   1     -40.463  15.311  17.365  0.00  0.00     0.019 C 
ATOM     18  C   UNL d   1     -39.940  14.703  17.185  0.00  0.00     0.004 C 
ATOM     19  C   UNL d   1     -40.508  15.503  16.566  0.00  0.00     0.004 C 
ATOM     20  C   UNL d   1     -40.989  15.922  17.547  0.00  0.00     0.004 C 
ENDBRANCH   2  17
TORSDOF 2
ENDMDL
MODEL 8
REMARK VINA RESULT:      -6.3      9.116     10.080
REMARK  2 active torsions:
REMARK  status: ('A' for Active; 'I' for Inactive)
REMARK       I    between atoms: C_2  and  N_1 
REMARK    1  A    between atoms: C_4  and  C_2 
REMARK    2  A    between atoms: C_6  and  C_7 
ROOT
ATOM      1  C   UNL d   1     -40.199  14.501  19.489  0.00  0.00     0.057 A 
ATOM      2  C   UNL d   1     -39.686  14.652  21.061  0.00  0.00    -0.023 A 
ATOM      3  C   UNL d   1     -39.548  14.055  19.754  0.00  0.00     0.004 A 
ATOM      4  C   UNL d   1     -40.594  15.013  19.983  0.00  0.00     0.004 A 
ATOM      5  C   UNL d   1     -39.290  14.139  20.566  0.00  0.00    -0.004 A 
ATOM      6  C   UNL d   1     -40.337  15.098  20.795  0.00  0.00    -0.004 A 
ENDROOT
BRANCH   1   7
ATOM      7  C   UNL d   1     -40.453  14.427  18.712  0.00  0.00     0.267 C 
ATOM      8  N   UNL d   1     -40.061  14.858  18.110  0.00  0.00    -0.240 N 
ATOM      9  C   UNL d   1     -39.418  15.362  18.291  0.00  0.00     0.267 A 
ATOM     10  C   UNL d   1     -40.379  14.727  17.356  0.00  0.00     0.086 A 
ATOM     11  O   UNL d   1     -39.194  15.397  19.147  0.00  0.00    -0.267 OA
ATOM     12  C   UNL d   1     -38.951  15.836  17.807  0.00  0.00     0.061 A 
ATOM     13  C   UNL d   1     -39.027  15.922  16.958  0.00  0.00     0.005 A 
ATOM     14  C   UNL d   1     -39.530  15.587  16.484  0.00  0.00     0.002 A 
ATOM     15  C   UNL d   1     -40.143  15.050  16.635  0.00  0.00     0.019 A 
ATOM     16  O   UNL d   1     -41.072  13.944  18.521  0.00  0.00    -0.267 OA
ENDBRANCH   1   7
BRANCH   2  17
ATOM     17  C   UNL d   1     -39.429  14.725  21.841  0.00  0.00     0.019 C 
ATOM     18  C   UNL d   1     -39.636  15.519  21.845  0.00  0.00     0.004 C 
ATOM     19  C   UNL d   1     -39.171  14.792  22.620  0.00  0.00     0.004 C 
ATOM     20  C   UNL d   1     -39.221  13.925  21.836  0.00  0.00     0.004 C 
ENDBRANCH   2  17
TORSDOF 2
ENDMDL
