MODEL 1
REMARK VINA RESULT:     -11.7      0.000      0.000
REMARK  0 active torsions:
REMARK  status: ('A' for Active; 'I' for Inactive)
ROOT
ATOM      1  C   UNL d   1      53.288  33.255  53.901  0.00  0.00     0.106 A 
ATOM      2  O   UNL d   1      52.728  33.278  53.304  0.00  0.00    -0.273 OA
ATOM      3  C   UNL d   1      52.510  32.577  52.918  0.00  0.00     0.300 A 
ATOM      4  C   UNL d   1      53.421  31.845  53.738  0.00  0.00     0.007 A 
ATOM      5  C   UNL d   1      53.636  32.534  54.119  0.00  0.00     0.023 A 
ATOM      6  C   UNL d   1      52.857  31.860  53.135  0.00  0.00     0.064 A 
ATOM      7  C   UNL d   1      53.504  33.951  54.285  0.00  0.00     0.062 A 
ATOM      8  C   UNL d   1      54.197  32.518  54.719  0.00  0.00     0.005 A 
ATOM      9  C   UNL d   1      54.071  33.929  54.890  0.00  0.00     0.198 A 
ATOM     10  O   UNL d   1      51.939  32.595  52.308  0.00  0.00    -0.259 OA
ATOM     11  C   UNL d   1      54.418  33.212  55.107  0.00  0.00     0.042 A 
ATOM     12  C   UNL d   1      53.769  31.125  53.956  0.00  0.00     0.000 A 
ATOM     13  C   UNL d   1      52.640  31.168  52.751  0.00  0.00     0.005 A 
ATOM     14  O   UNL d   1      54.290  34.632  55.278  0.00  0.00    -0.286 OA
ATOM     15  C   UNL d   1      53.164  34.653  54.072  0.00  0.00     0.005 C 
ATOM     16  C   UNL d   1      53.553  30.428  53.572  0.00  0.00     0.000 A 
ATOM     17  C   UNL d   1      52.981  30.442  52.960  0.00  0.00     0.000 A 
ENDROOT
TORSDOF 0
ENDMDL
MODEL 2
REMARK VINA RESULT:     -10.9      0.971      3.327
REMARK  0 active torsions:
REMARK  status: ('A' for Active; 'I' for Inactive)
ROOT
ATOM      1  C   UNL d   1      53.478  32.069  53.881  0.00  0.00     0.106 A 
ATOM      2  O   UNL d   1      54.015  32.207  54.484  0.00  0.00    -0.273 OA
ATOM      3  C   UNL d   1      54.100  32.973  54.791  0.00  0.00     0.300 A 
ATOM      4  C   UNL d   1      53.105  33.446  53.883  0.00  0.00     0.007 A 
ATOM      5  C   UNL d   1      53.020  32.692  53.579  0.00  0.00     0.023 A 
ATOM      6  C   UNL d   1      53.644  33.593  54.490  0.00  0.00     0.064 A 
ATOM      7  C   UNL d   1      53.393  31.309  53.575  0.00  0.00     0.062 A 
ATOM      8  C   UNL d   1      52.483  32.548  52.974  0.00  0.00     0.005 A 
ATOM      9  C   UNL d   1      52.850  31.169  52.965  0.00  0.00     0.198 A 
ATOM     10  O   UNL d   1      54.646  33.119  55.406  0.00  0.00    -0.259 OA
ATOM     11  C   UNL d   1      52.394  31.788  52.664  0.00  0.00     0.042 A 
ATOM     12  C   UNL d   1      52.648  34.068  53.581  0.00  0.00     0.000 A 
ATOM     13  C   UNL d   1      53.731  34.349  54.797  0.00  0.00     0.005 A 
ATOM     14  O   UNL d   1      52.764  30.401  52.655  0.00  0.00    -0.286 OA
ATOM     15  C   UNL d   1      53.840  30.702  53.869  0.00  0.00     0.005 C 
ATOM     16  C   UNL d   1      52.732  34.828  53.887  0.00  0.00     0.000 A 
ATOM     17  C   UNL d   1      53.279  34.979  54.504  0.00  0.00     0.000 A 
ENDROOT
TORSDOF 0
ENDMDL
MODEL 3
REMARK VINA RESULT:     -10.8      1.093      2.108
REMARK  0 active torsions:
REMARK  status: ('A' for Active; 'I' for Inactive)
ROOT
ATOM      1  C   UNL d   1      52.869  33.634  53.626  0.00  0.00     0.106 A 
ATOM      2  O   UNL d   1      53.590  33.559  54.006  0.00  0.00    -0.273 OA
ATOM      3  C   UNL d   1      53.961  32.819  54.042  0.00  0.00     0.300 A 
ATOM      4  C   UNL d   1      52.877  32.242  53.314  0.00  0.00     0.007 A 
ATOM      5  C   UNL d   1      52.510  32.972  53.278  0.00  0.00     0.023 A 
ATOM      6  C   UNL d   1      53.604  32.159  53.696  0.00  0.00     0.064 A 
ATOM      7  C   UNL d   1      52.500  34.369  53.589  0.00  0.00     0.062 A 
ATOM      8  C   UNL d   1      51.786  33.052  52.897  0.00  0.00     0.005 A 
ATOM      9  C   UNL d   1      51.770  34.446  53.204  0.00  0.00     0.198 A 
ATOM     10  O   UNL d   1      54.697  32.737  54.430  0.00  0.00    -0.259 OA
ATOM     11  C   UNL d   1      51.413  33.787  52.858  0.00  0.00     0.042 A 
ATOM     12  C   UNL d   1      52.518  31.581  52.967  0.00  0.00     0.000 A 
ATOM     13  C   UNL d   1      53.973  31.428  53.734  0.00  0.00     0.005 A 
ATOM     14  O   UNL d   1      51.396  35.189  53.167  0.00  0.00    -0.286 OA
ATOM     15  C   UNL d   1      52.850  35.015  53.928  0.00  0.00     0.005 C 
ATOM     16  C   UNL d   1      52.887  30.845  53.003  0.00  0.00     0.000 A 
ATOM     17  C   UNL d   1      53.625  30.759  53.390  0.00  0.00     0.000 A 
ENDROOT
TORSDOF 0
ENDMDL
MODEL 4
REMARK VINA RESULT:     -10.5      1.174      2.290
REMARK  0 active torsions:
REMARK  status: ('A' for Active; 'I' for Inactive)
ROOT
ATOM      1  C   UNL d   1      53.525  33.249  53.941  0.00  0.00     0.106 A 
ATOM      2  O   UNL d   1      53.375  32.615  53.445  0.00  0.00    -0.273 OA
ATOM      3  C   UNL d   1      52.709  32.628  52.952  0.00  0.00     0.300 A 
ATOM      4  C   UNL d   1      52.358  33.914  53.463  0.00  0.00     0.007 A 
ATOM      5  C   UNL d   1      53.014  33.902  53.950  0.00  0.00     0.023 A 
ATOM      6  C   UNL d   1      52.200  33.279  52.960  0.00  0.00     0.064 A 
ATOM      7  C   UNL d   1      54.187  33.237  54.432  0.00  0.00     0.062 A 
ATOM      8  C   UNL d   1      53.169  34.536  54.450  0.00  0.00     0.005 A 
ATOM      9  C   UNL d   1      54.340  33.878  54.934  0.00  0.00     0.198 A 
ATOM     10  O   UNL d   1      52.552  31.984  52.444  0.00  0.00    -0.259 OA
ATOM     11  C   UNL d   1      53.830  34.528  54.943  0.00  0.00     0.042 A 
ATOM     12  C   UNL d   1      51.847  34.566  53.472  0.00  0.00     0.000 A 
ATOM     13  C   UNL d   1      51.542  33.288  52.470  0.00  0.00     0.005 A 
ATOM     14  O   UNL d   1      55.008  33.866  55.430  0.00  0.00    -0.286 OA
ATOM     15  C   UNL d   1      54.685  32.600  54.423  0.00  0.00     0.005 C 
ATOM     16  C   UNL d   1      51.185  34.579  52.981  0.00  0.00     0.000 A 
ATOM     17  C   UNL d   1      51.023  33.935  52.470  0.00  0.00     0.000 A 
ENDROOT
TORSDOF 0
ENDMDL
MODEL 5
REMARK VINA RESULT:     -10.4      1.327      2.864
REMARK  0 active torsions:
REMARK  status: ('A' for Active; 'I' for Inactive)
ROOT
ATOM      1  C   UNL d   1      52.482  33.240  53.419  0.00  0.00     0.106 A 
ATOM      2  O   UNL d   1      52.752  32.470  53.486  0.00  0.00    -0.273 OA
ATOM      3  C   UNL d   1      53.413  32.306  53.959  0.00  0.00     0.300 A 
ATOM      4  C   UNL d   1      53.519  33.691  54.288  0.00  0.00     0.007 A 
ATOM      5  C   UNL d   1      52.868  33.854  53.822  0.00  0.00     0.023 A 
ATOM      6  C   UNL d   1      53.797  32.917  54.360  0.00  0.00     0.064 A 
ATOM      7  C   UNL d   1      51.826  33.404  52.949  0.00  0.00     0.062 A 
ATOM      8  C   UNL d   1      52.593  34.625  53.750  0.00  0.00     0.005 A 
ATOM      9  C   UNL d   1      51.552  34.183  52.880  0.00  0.00     0.198 A 
ATOM     10  O   UNL d   1      53.692  31.521  54.031  0.00  0.00    -0.259 OA
ATOM     11  C   UNL d   1      51.936  34.795  53.281  0.00  0.00     0.042 A 
ATOM     12  C   UNL d   1      53.905  34.304  54.690  0.00  0.00     0.000 A 
ATOM     13  C   UNL d   1      54.451  32.751  54.828  0.00  0.00     0.005 A 
ATOM     14  O   UNL d   1      50.889  34.349  52.406  0.00  0.00    -0.286 OA
ATOM     15  C   UNL d   1      51.450  32.805  52.556  0.00  0.00     0.005 C 
ATOM     16  C   UNL d   1      54.562  34.141  55.160  0.00  0.00     0.000 A 
ATOM     17  C   UNL d   1      54.845  33.356  55.235  0.00  0.00     0.000 A 
ENDROOT
TORSDOF 0
ENDMDL
MODEL 6
REMARK VINA RESULT:     -10.2      1.447      2.904
REMARK  0 active torsions:
REMARK  status: ('A' for Active; 'I' for Inactive)
ROOT
ATOM      1  C   UNL d   1      53.273  33.062  53.495  0.00  0.00     0.106 A 
ATOM      2  O   UNL d   1      53.435  33.849  53.655  0.00  0.00    -0.273 OA
ATOM      3  C   UNL d   1      52.840  34.419  53.559  0.00  0.00     0.300 A 
ATOM      4  C   UNL d   1      51.932  33.399  53.145  0.00  0.00     0.007 A 
ATOM      5  C   UNL d   1      52.516  32.836  53.239  0.00  0.00     0.023 A 
ATOM      6  C   UNL d   1      52.088  34.193  53.304  0.00  0.00     0.064 A 
ATOM      7  C   UNL d   1      53.862  32.496  53.590  0.00  0.00     0.062 A 
ATOM      8  C   UNL d   1      52.359  32.045  53.080  0.00  0.00     0.005 A 
ATOM      9  C   UNL d   1      53.699  31.699  53.429  0.00  0.00     0.198 A 
ATOM     10  O   UNL d   1      53.001  35.223  53.721  0.00  0.00    -0.259 OA
ATOM     11  C   UNL d   1      52.947  31.474  53.174  0.00  0.00     0.042 A 
ATOM     12  C   UNL d   1      51.177  33.173  52.888  0.00  0.00     0.000 A 
ATOM     13  C   UNL d   1      51.502  34.760  53.210  0.00  0.00     0.005 A 
ATOM     14  O   UNL d   1      54.295  31.126  53.525  0.00  0.00    -0.286 OA
ATOM     15  C   UNL d   1      54.599  32.717  53.841  0.00  0.00     0.005 C 
ATOM     16  C   UNL d   1      50.586  33.739  52.793  0.00  0.00     0.000 A 
ATOM     17  C   UNL d   1      50.743  34.546  52.954  0.00  0.00     0.000 A 
ENDROOT
TORSDOF 0
ENDMDL
