MODEL 1
REMARK VINA RESULT:      74.6      0.000      0.000
REMARK  8 active torsions:
REMARK  status: ('A' for Active; 'I' for Inactive)
REMARK    1  A    between atoms: C_9  and  N_1 
REMARK    2  A    between atoms: C_13  and  C_5 
REMARK    3  A    between atoms: C_8  and  C_6 
REMARK    4  A    between atoms: C_7  and  N_11 
REMARK    5  A    between atoms: C_10  and  C_9 
REMARK       I    between atoms: N_11  and  C_10 
REMARK    6  A    between atoms: C_15  and  C_13 
REMARK    7  A    between atoms: C_18  and  C_15 
REMARK    8  A    between atoms: C_20  and  C_18 
ROOT
ATOM      1  N   UNL d   1     -54.769-100.696 -40.655  0.00  0.00    -0.230 N 
ATOM      2  C   UNL d   1     -54.774-101.234 -41.286  0.00  0.00     0.299 A 
ATOM      3  C   UNL d   1     -54.744 -99.933 -40.968  0.00  0.00     0.274 A 
ATOM      4  S   UNL d   1     -54.753-100.798 -41.992  0.00  0.00    -0.022 SA
ATOM      5  C   UNL d   1     -54.735-100.001 -41.792  0.00  0.00     0.090 A 
ATOM      6  O   UNL d   1     -54.797-102.059 -41.222  0.00  0.00    -0.259 OA
ATOM      7  O   UNL d   1     -54.732 -99.230 -40.540  0.00  0.00    -0.266 OA
ENDROOT
BRANCH   1   8
ATOM      8  C   UNL d   1     -54.785-100.895 -39.857  0.00  0.00     0.149 C 
BRANCH   8   9
ATOM      9  C   UNL d   1     -54.829-100.295 -39.285  0.00  0.00     0.297 C 
ATOM     10  N   UNL d   1     -54.878-100.490 -38.486  0.00  0.00    -0.206 NA
ATOM     11  O   UNL d   1     -54.823 -99.501 -39.524  0.00  0.00    -0.264 OA
BRANCH  10  12
ATOM     12  C   UNL d   1     -54.883-101.281 -38.260  0.00  0.00     0.090 A 
ATOM     13  C   UNL d   1     -54.895-101.478 -37.464  0.00  0.00     0.082 A 
ATOM     14  C   UNL d   1     -54.900-102.267 -37.235  0.00  0.00     0.008 A 
ATOM     15  C   UNL d   1     -54.894-102.863 -37.811  0.00  0.00     0.000 A 
ATOM     16  C   UNL d   1     -54.882-102.655 -38.613  0.00  0.00     0.002 A 
ATOM     17  C   UNL d   1     -54.877-101.866 -38.832  0.00  0.00     0.019 A 
BRANCH  13  18
ATOM     18  C   UNL d   1     -54.901-100.883 -36.892  0.00  0.00     0.212 C 
ATOM     19  O   UNL d   1     -54.744-100.097 -37.108  0.00  0.00    -0.644 OA
ATOM     20  O   UNL d   1     -55.062-101.068 -36.108  0.00  0.00    -0.644 OA
ENDBRANCH  13  18
ENDBRANCH  10  12
ENDBRANCH   8   9
ENDBRANCH   1   8
BRANCH   5  21
ATOM     21  C   UNL d   1     -54.711 -99.368 -42.326  0.00  0.00     0.011 C 
BRANCH  21  22
ATOM     22  C   UNL d   1     -54.962 -99.476 -43.107  0.00  0.00     0.001 C 
BRANCH  22  23
ATOM     23  C   UNL d   1     -55.561 -99.008 -43.418  0.00  0.00     0.000 C 
BRANCH  23  24
ATOM     24  C   UNL d   1     -55.800 -99.109 -44.202  0.00  0.00     0.000 A 
ATOM     25  C   UNL d   1     -56.595 -99.069 -44.392  0.00  0.00     0.000 A 
ATOM     26  C   UNL d   1     -56.839 -99.169 -45.173  0.00  0.00     0.000 A 
ATOM     27  C   UNL d   1     -56.279 -99.311 -45.768  0.00  0.00     0.000 A 
ATOM     28  C   UNL d   1     -55.474 -99.350 -45.570  0.00  0.00     0.000 A 
ATOM     29  C   UNL d   1     -55.239 -99.249 -44.789  0.00  0.00     0.000 A 
ENDBRANCH  23  24
ENDBRANCH  22  23
ENDBRANCH  21  22
ENDBRANCH   5  21
TORSDOF 8
ENDMDL
