MODEL 1
REMARK VINA RESULT:      -8.0      0.000      0.000
REMARK  7 active torsions:
REMARK  status: ('A' for Active; 'I' for Inactive)
REMARK    1  A    between atoms: C_14  and  N_1 
REMARK    2  A    between atoms: C_2  and  C_5 
REMARK    3  A    between atoms: C_6  and  C_2 
REMARK    4  A    between atoms: C_7  and  C_3 
REMARK    5  A    between atoms: C_5  and  C_7 
REMARK    6  A    between atoms: O_15  and  C_6 
REMARK    7  A    between atoms: C_18  and  O_15 
ROOT
ATOM      1  C   UNL d   1      53.178  30.379  53.331  0.00  0.00     0.132 C 
ATOM      2  C   UNL d   1      53.188  30.248  52.523  0.00  0.00     0.106 C 
ATOM      3  N   UNL d   1      53.199  30.127  51.734  0.00  0.00    -0.191 NA
ENDROOT
BRANCH   1   4
ATOM      4  C   UNL d   1      53.400  31.107  53.650  0.00  0.00     0.017 C 
BRANCH   4   5
ATOM      5  C   UNL d   1      53.028  31.766  53.419  0.00  0.00     0.018 C 
BRANCH   5   6
ATOM      6  C   UNL d   1      53.206  32.480  53.781  0.00  0.00     0.064 A 
ATOM      7  N   UNL d   1      52.800  33.183  53.555  0.00  0.00    -0.305 N 
ATOM      8  C   UNL d   1      52.989  33.902  53.930  0.00  0.00     0.064 A 
ATOM      9  C   UNL d   1      53.567  33.932  54.516  0.00  0.00     0.016 A 
ATOM     10  C   UNL d   1      52.586  34.588  53.702  0.00  0.00     0.018 A 
ATOM     11  C   UNL d   1      53.970  33.235  54.740  0.00  0.00     0.003 A 
ATOM     12  C   UNL d   1      53.744  34.647  54.877  0.00  0.00     0.001 A 
ATOM     13  C   UNL d   1      53.793  32.520  54.379  0.00  0.00     0.018 A 
ATOM     14  C   UNL d   1      53.347  35.343  54.659  0.00  0.00     0.000 A 
ATOM     15  C   UNL d   1      52.763  35.303  54.064  0.00  0.00     0.002 A 
BRANCH   7  16
ATOM     16  C   UNL d   1      52.219  33.161  52.967  0.00  0.00     0.080 C 
ATOM     17  C   UNL d   1      51.416  33.128  53.190  0.00  0.00     0.021 C 
ENDBRANCH   7  16
ENDBRANCH   5   6
ENDBRANCH   4   5
ENDBRANCH   1   4
BRANCH   1  18
ATOM     18  C   UNL d   1      52.945  29.775  53.802  0.00  0.00     0.310 C 
ATOM     19  O   UNL d   1      52.189  29.525  53.774  0.00  0.00    -0.258 OA
BRANCH  18  20
ATOM     20  O   UNL d   1      53.404  29.448  54.256  0.00  0.00    -0.271 OA
BRANCH  20  21
ATOM     21  C   UNL d   1      53.141  28.797  54.781  0.00  0.00     0.126 C 
ATOM     22  C   UNL d   1      53.659  28.426  55.319  0.00  0.00     0.029 C 
ENDBRANCH  20  21
ENDBRANCH  18  20
ENDBRANCH   1  18
TORSDOF 7
ENDMDL
MODEL 2
REMARK VINA RESULT:      -7.2      2.457      4.226
REMARK  7 active torsions:
REMARK  status: ('A' for Active; 'I' for Inactive)
REMARK    1  A    between atoms: C_14  and  N_1 
REMARK    2  A    between atoms: C_2  and  C_5 
REMARK    3  A    between atoms: C_6  and  C_2 
REMARK    4  A    between atoms: C_7  and  C_3 
REMARK    5  A    between atoms: C_5  and  C_7 
REMARK    6  A    between atoms: O_15  and  C_6 
REMARK    7  A    between atoms: C_18  and  O_15 
ROOT
ATOM      1  C   UNL d   1      50.671  34.446  52.481  0.00  0.00     0.132 C 
ATOM      2  C   UNL d   1      50.824  34.342  51.684  0.00  0.00     0.106 C 
ATOM      3  N   UNL d   1      50.979  34.240  50.907  0.00  0.00    -0.191 NA
ENDROOT
BRANCH   1   4
ATOM      4  C   UNL d   1      51.283  34.488  53.032  0.00  0.00     0.017 C 
BRANCH   4   5
ATOM      5  C   UNL d   1      51.814  33.902  53.074  0.00  0.00     0.018 C 
BRANCH   5   6
ATOM      6  C   UNL d   1      52.453  33.969  53.584  0.00  0.00     0.064 A 
ATOM      7  N   UNL d   1      52.844  33.279  53.867  0.00  0.00    -0.305 N 
ATOM      8  C   UNL d   1      53.492  33.359  54.384  0.00  0.00     0.064 A 
ATOM      9  C   UNL d   1      53.752  34.103  54.620  0.00  0.00     0.016 A 
ATOM     10  C   UNL d   1      53.870  32.676  54.657  0.00  0.00     0.018 A 
ATOM     11  C   UNL d   1      53.364  34.790  54.339  0.00  0.00     0.003 A 
ATOM     12  C   UNL d   1      54.392  34.170  55.130  0.00  0.00     0.001 A 
ATOM     13  C   UNL d   1      52.724  34.723  53.829  0.00  0.00     0.018 A 
ATOM     14  C   UNL d   1      54.781  33.493  55.412  0.00  0.00     0.000 A 
ATOM     15  C   UNL d   1      54.510  32.742  55.167  0.00  0.00     0.002 A 
BRANCH   7  16
ATOM     16  C   UNL d   1      52.589  32.527  53.635  0.00  0.00     0.080 C 
ATOM     17  C   UNL d   1      52.968  32.147  52.998  0.00  0.00     0.021 C 
ENDBRANCH   7  16
ENDBRANCH   5   6
ENDBRANCH   4   5
ENDBRANCH   1   4
BRANCH   1  18
ATOM     18  C   UNL d   1      49.906  34.507  52.708  0.00  0.00     0.310 C 
ATOM     19  O   UNL d   1      49.431  33.869  52.660  0.00  0.00    -0.258 OA
BRANCH  18  20
ATOM     20  O   UNL d   1      49.632  35.128  52.956  0.00  0.00    -0.271 OA
BRANCH  20  21
ATOM     21  C   UNL d   1      48.766  35.241  53.049  0.00  0.00     0.126 C 
ATOM     22  C   UNL d   1      48.442  35.950  53.345  0.00  0.00     0.029 C 
ENDBRANCH  20  21
ENDBRANCH  18  20
ENDBRANCH   1  18
TORSDOF 7
ENDMDL
MODEL 3
REMARK VINA RESULT:      -6.7      2.029      4.520
REMARK  7 active torsions:
REMARK  status: ('A' for Active; 'I' for Inactive)
REMARK    1  A    between atoms: C_14  and  N_1 
REMARK    2  A    between atoms: C_2  and  C_5 
REMARK    3  A    between atoms: C_6  and  C_2 
REMARK    4  A    between atoms: C_7  and  C_3 
REMARK    5  A    between atoms: C_5  and  C_7 
REMARK    6  A    between atoms: O_15  and  C_6 
REMARK    7  A    between atoms: C_18  and  O_15 
ROOT
ATOM      1  C   UNL d   1      52.041  34.167  52.999  0.00  0.00     0.132 C 
ATOM      2  C   UNL d   1      52.599  34.747  53.148  0.00  0.00     0.106 C 
ATOM      3  N   UNL d   1      53.148  35.308  53.293  0.00  0.00    -0.191 NA
ENDROOT
BRANCH   1   4
ATOM      4  C   UNL d   1      52.264  33.389  52.839  0.00  0.00     0.017 C 
BRANCH   4   5
ATOM      5  C   UNL d   1      52.745  33.008  53.339  0.00  0.00     0.018 C 
BRANCH   5   6
ATOM      6  C   UNL d   1      52.815  32.192  53.293  0.00  0.00     0.064 A 
ATOM      7  N   UNL d   1      53.185  31.762  53.914  0.00  0.00    -0.305 N 
ATOM      8  C   UNL d   1      53.251  30.933  53.856  0.00  0.00     0.064 A 
ATOM      9  C   UNL d   1      52.957  30.534  53.199  0.00  0.00     0.016 A 
ATOM     10  C   UNL d   1      53.616  30.519  54.471  0.00  0.00     0.018 A 
ATOM     11  C   UNL d   1      52.589  30.960  52.581  0.00  0.00     0.003 A 
ATOM     12  C   UNL d   1      53.028  29.717  53.153  0.00  0.00     0.001 A 
ATOM     13  C   UNL d   1      52.519  31.777  52.627  0.00  0.00     0.018 A 
ATOM     14  C   UNL d   1      53.392  29.288  53.763  0.00  0.00     0.000 A 
ATOM     15  C   UNL d   1      53.687  29.702  54.425  0.00  0.00     0.002 A 
BRANCH   7  16
ATOM     16  C   UNL d   1      53.483  32.156  54.578  0.00  0.00     0.080 C 
ATOM     17  C   UNL d   1      54.276  32.412  54.578  0.00  0.00     0.021 C 
ENDBRANCH   7  16
ENDBRANCH   5   6
ENDBRANCH   4   5
ENDBRANCH   1   4
BRANCH   1  18
ATOM     18  C   UNL d   1      51.270  34.381  53.015  0.00  0.00     0.310 C 
ATOM     19  O   UNL d   1      50.946  34.631  53.698  0.00  0.00    -0.258 OA
BRANCH  18  20
ATOM     20  O   UNL d   1      50.856  34.352  52.422  0.00  0.00    -0.271 OA
BRANCH  20  21
ATOM     21  C   UNL d   1      49.996  34.524  52.457  0.00  0.00     0.126 C 
ATOM     22  C   UNL d   1      49.512  34.492  51.779  0.00  0.00     0.029 C 
ENDBRANCH  20  21
ENDBRANCH  18  20
ENDBRANCH   1  18
TORSDOF 7
ENDMDL
MODEL 4
REMARK VINA RESULT:      -6.0      1.940      4.407
REMARK  7 active torsions:
REMARK  status: ('A' for Active; 'I' for Inactive)
REMARK    1  A    between atoms: C_14  and  N_1 
REMARK    2  A    between atoms: C_2  and  C_5 
REMARK    3  A    between atoms: C_6  and  C_2 
REMARK    4  A    between atoms: C_7  and  C_3 
REMARK    5  A    between atoms: C_5  and  C_7 
REMARK    6  A    between atoms: O_15  and  C_6 
REMARK    7  A    between atoms: C_18  and  O_15 
ROOT
ATOM      1  C   UNL d   1      54.318  33.756  55.047  0.00  0.00     0.132 C 
ATOM      2  C   UNL d   1      55.115  33.917  54.955  0.00  0.00     0.106 C 
ATOM      3  N   UNL d   1      55.894  34.066  54.864  0.00  0.00    -0.191 NA
ENDROOT
BRANCH   1   4
ATOM      4  C   UNL d   1      54.027  32.986  54.996  0.00  0.00     0.017 C 
BRANCH   4   5
ATOM      5  C   UNL d   1      53.868  32.674  54.286  0.00  0.00     0.018 C 
BRANCH   5   6
ATOM      6  C   UNL d   1      53.682  31.878  54.226  0.00  0.00     0.064 A 
ATOM      7  N   UNL d   1      53.367  31.568  53.508  0.00  0.00    -0.305 N 
ATOM      8  C   UNL d   1      53.181  30.758  53.459  0.00  0.00     0.064 A 
ATOM      9  C   UNL d   1      53.302  30.259  54.102  0.00  0.00     0.016 A 
ATOM     10  C   UNL d   1      52.873  30.463  52.750  0.00  0.00     0.018 A 
ATOM     11  C   UNL d   1      53.615  30.565  54.815  0.00  0.00     0.003 A 
ATOM     12  C   UNL d   1      53.116  29.462  54.041  0.00  0.00     0.001 A 
ATOM     13  C   UNL d   1      53.801  31.362  54.876  0.00  0.00     0.018 A 
ATOM     14  C   UNL d   1      52.805  29.152  53.336  0.00  0.00     0.000 A 
ATOM     15  C   UNL d   1      52.686  29.666  52.689  0.00  0.00     0.002 A 
BRANCH   7  16
ATOM     16  C   UNL d   1      53.243  32.063  52.857  0.00  0.00     0.080 C 
ATOM     17  C   UNL d   1      52.482  32.373  52.721  0.00  0.00     0.021 C 
ENDBRANCH   7  16
ENDBRANCH   5   6
ENDBRANCH   4   5
ENDBRANCH   1   4
BRANCH   1  18
ATOM     18  C   UNL d   1      53.829  34.374  55.190  0.00  0.00     0.310 C 
ATOM     19  O   UNL d   1      53.547  34.490  55.926  0.00  0.00    -0.258 OA
BRANCH  18  20
ATOM     20  O   UNL d   1      53.634  34.833  54.666  0.00  0.00    -0.271 OA
BRANCH  20  21
ATOM     21  C   UNL d   1      53.035  35.458  54.806  0.00  0.00     0.126 C 
ATOM     22  C   UNL d   1      52.763  35.955  54.194  0.00  0.00     0.029 C 
ENDBRANCH  20  21
ENDBRANCH  18  20
ENDBRANCH   1  18
TORSDOF 7
ENDMDL
MODEL 5
REMARK VINA RESULT:      -5.9      1.515      2.772
REMARK  7 active torsions:
REMARK  status: ('A' for Active; 'I' for Inactive)
REMARK    1  A    between atoms: C_14  and  N_1 
REMARK    2  A    between atoms: C_2  and  C_5 
REMARK    3  A    between atoms: C_6  and  C_2 
REMARK    4  A    between atoms: C_7  and  C_3 
REMARK    5  A    between atoms: C_5  and  C_7 
REMARK    6  A    between atoms: O_15  and  C_6 
REMARK    7  A    between atoms: C_18  and  O_15 
ROOT
ATOM      1  C   UNL d   1      53.791  32.308  53.506  0.00  0.00     0.132 C 
ATOM      2  C   UNL d   1      54.513  32.693  53.505  0.00  0.00     0.106 C 
ATOM      3  N   UNL d   1      55.215  33.073  53.501  0.00  0.00    -0.191 NA
ENDROOT
BRANCH   1   4
ATOM      4  C   UNL d   1      53.139  32.619  53.107  0.00  0.00     0.017 C 
BRANCH   4   5
ATOM      5  C   UNL d   1      52.838  33.314  53.332  0.00  0.00     0.018 C 
BRANCH   5   6
ATOM      6  C   UNL d   1      52.120  33.564  53.025  0.00  0.00     0.064 A 
ATOM      7  N   UNL d   1      51.648  34.120  53.446  0.00  0.00    -0.305 N 
ATOM      8  C   UNL d   1      50.920  34.367  53.123  0.00  0.00     0.064 A 
ATOM      9  C   UNL d   1      50.660  34.072  52.400  0.00  0.00     0.016 A 
ATOM     10  C   UNL d   1      50.463  34.913  53.544  0.00  0.00     0.018 A 
ATOM     11  C   UNL d   1      51.128  33.520  51.981  0.00  0.00     0.003 A 
ATOM     12  C   UNL d   1      49.941  34.323  52.092  0.00  0.00     0.001 A 
ATOM     13  C   UNL d   1      51.847  33.270  52.288  0.00  0.00     0.018 A 
ATOM     14  C   UNL d   1      49.472  34.871  52.503  0.00  0.00     0.000 A 
ATOM     15  C   UNL d   1      49.744  35.163  53.236  0.00  0.00     0.002 A 
BRANCH   7  16
ATOM     16  C   UNL d   1      51.902  34.421  54.173  0.00  0.00     0.080 C 
ATOM     17  C   UNL d   1      52.358  35.118  54.188  0.00  0.00     0.021 C 
ENDBRANCH   7  16
ENDBRANCH   5   6
ENDBRANCH   4   5
ENDBRANCH   1   4
BRANCH   1  18
ATOM     18  C   UNL d   1      53.739  31.617  53.908  0.00  0.00     0.310 C 
ATOM     19  O   UNL d   1      53.795  31.620  54.703  0.00  0.00    -0.258 OA
BRANCH  18  20
ATOM     20  O   UNL d   1      53.641  30.986  53.568  0.00  0.00    -0.271 OA
BRANCH  20  21
ATOM     21  C   UNL d   1      53.429  30.258  54.008  0.00  0.00     0.126 C 
ATOM     22  C   UNL d   1      53.227  29.549  53.619  0.00  0.00     0.029 C 
ENDBRANCH  20  21
ENDBRANCH  18  20
ENDBRANCH   1  18
TORSDOF 7
ENDMDL
MODEL 6
REMARK VINA RESULT:      -5.9      2.000      4.433
REMARK  7 active torsions:
REMARK  status: ('A' for Active; 'I' for Inactive)
REMARK    1  A    between atoms: C_14  and  N_1 
REMARK    2  A    between atoms: C_2  and  C_5 
REMARK    3  A    between atoms: C_6  and  C_2 
REMARK    4  A    between atoms: C_7  and  C_3 
REMARK    5  A    between atoms: C_5  and  C_7 
REMARK    6  A    between atoms: O_15  and  C_6 
REMARK    7  A    between atoms: C_18  and  O_15 
ROOT
ATOM      1  C   UNL d   1      51.842  34.080  52.863  0.00  0.00     0.132 C 
ATOM      2  C   UNL d   1      51.765  34.253  52.067  0.00  0.00     0.106 C 
ATOM      3  N   UNL d   1      51.691  34.415  51.289  0.00  0.00    -0.191 NA
ENDROOT
BRANCH   1   4
ATOM      4  C   UNL d   1      51.904  33.301  53.128  0.00  0.00     0.017 C 
BRANCH   4   5
ATOM      5  C   UNL d   1      52.557  32.884  52.969  0.00  0.00     0.018 C 
BRANCH   5   6
ATOM      6  C   UNL d   1      52.572  32.079  53.122  0.00  0.00     0.064 A 
ATOM      7  N   UNL d   1      53.306  31.682  53.241  0.00  0.00    -0.305 N 
ATOM      8  C   UNL d   1      53.308  30.864  53.396  0.00  0.00     0.064 A 
ATOM      9  C   UNL d   1      52.603  30.441  53.433  0.00  0.00     0.016 A 
ATOM     10  C   UNL d   1      54.033  30.483  53.511  0.00  0.00     0.018 A 
ATOM     11  C   UNL d   1      51.874  30.834  53.315  0.00  0.00     0.003 A 
ATOM     12  C   UNL d   1      52.618  29.635  53.587  0.00  0.00     0.001 A 
ATOM     13  C   UNL d   1      51.859  31.640  53.162  0.00  0.00     0.018 A 
ATOM     14  C   UNL d   1      53.339  29.239  53.705  0.00  0.00     0.000 A 
ATOM     15  C   UNL d   1      54.048  29.677  53.665  0.00  0.00     0.002 A 
BRANCH   7  16
ATOM     16  C   UNL d   1      54.019  32.100  53.205  0.00  0.00     0.080 C 
ATOM     17  C   UNL d   1      54.377  32.356  53.912  0.00  0.00     0.021 C 
ENDBRANCH   7  16
ENDBRANCH   5   6
ENDBRANCH   4   5
ENDBRANCH   1   4
BRANCH   1  18
ATOM     18  C   UNL d   1      51.854  34.694  53.377  0.00  0.00     0.310 C 
ATOM     19  O   UNL d   1      51.166  35.005  53.634  0.00  0.00    -0.258 OA
BRANCH  18  20
ATOM     20  O   UNL d   1      52.475  34.976  53.617  0.00  0.00    -0.271 OA
BRANCH  20  21
ATOM     21  C   UNL d   1      52.496  35.506  54.316  0.00  0.00     0.126 C 
ATOM     22  C   UNL d   1      53.208  35.837  54.599  0.00  0.00     0.029 C 
ENDBRANCH  20  21
ENDBRANCH  18  20
ENDBRANCH   1  18
TORSDOF 7
ENDMDL
MODEL 7
REMARK VINA RESULT:      -5.5      3.763      5.454
REMARK  7 active torsions:
REMARK  status: ('A' for Active; 'I' for Inactive)
REMARK    1  A    between atoms: C_14  and  N_1 
REMARK    2  A    between atoms: C_2  and  C_5 
REMARK    3  A    between atoms: C_6  and  C_2 
REMARK    4  A    between atoms: C_7  and  C_3 
REMARK    5  A    between atoms: C_5  and  C_7 
REMARK    6  A    between atoms: O_15  and  C_6 
REMARK    7  A    between atoms: C_18  and  O_15 
ROOT
ATOM      1  C   UNL d   1      51.132  34.147  53.169  0.00  0.00     0.132 C 
ATOM      2  C   UNL d   1      51.070  33.331  53.194  0.00  0.00     0.106 C 
ATOM      3  N   UNL d   1      51.004  32.536  53.219  0.00  0.00    -0.191 NA
ENDROOT
BRANCH   1   4
ATOM      4  C   UNL d   1      50.461  34.627  53.172  0.00  0.00     0.017 C 
BRANCH   4   5
ATOM      5  C   UNL d   1      49.896  34.515  52.629  0.00  0.00     0.018 C 
BRANCH   5   6
ATOM      6  C   UNL d   1      49.211  34.965  52.657  0.00  0.00     0.064 A 
ATOM      7  N   UNL d   1      48.644  34.914  52.037  0.00  0.00    -0.305 N 
ATOM      8  C   UNL d   1      47.952  35.377  52.076  0.00  0.00     0.064 A 
ATOM      9  C   UNL d   1      47.819  35.880  52.713  0.00  0.00     0.016 A 
ATOM     10  C   UNL d   1      47.400  35.320  51.462  0.00  0.00     0.018 A 
ATOM     11  C   UNL d   1      48.382  35.931  53.330  0.00  0.00     0.003 A 
ATOM     12  C   UNL d   1      47.133  36.330  52.741  0.00  0.00     0.001 A 
ATOM     13  C   UNL d   1      49.067  35.481  53.303  0.00  0.00     0.018 A 
ATOM     14  C   UNL d   1      46.570  36.284  52.132  0.00  0.00     0.000 A 
ATOM     15  C   UNL d   1      46.715  35.771  51.490  0.00  0.00     0.002 A 
BRANCH   7  16
ATOM     16  C   UNL d   1      48.771  34.411  51.393  0.00  0.00     0.080 C 
ATOM     17  C   UNL d   1      49.039  34.731  50.672  0.00  0.00     0.021 C 
ENDBRANCH   7  16
ENDBRANCH   5   6
ENDBRANCH   4   5
ENDBRANCH   1   4
BRANCH   1  18
ATOM     18  C   UNL d   1      51.867  34.463  53.141  0.00  0.00     0.310 C 
ATOM     19  O   UNL d   1      52.204  34.611  52.434  0.00  0.00    -0.258 OA
BRANCH  18  20
ATOM     20  O   UNL d   1      52.235  34.620  53.743  0.00  0.00    -0.271 OA
BRANCH  20  21
ATOM     21  C   UNL d   1      52.970  35.099  53.717  0.00  0.00     0.126 C 
ATOM     22  C   UNL d   1      53.372  35.331  54.410  0.00  0.00     0.029 C 
ENDBRANCH  20  21
ENDBRANCH  18  20
ENDBRANCH   1  18
TORSDOF 7
ENDMDL
MODEL 8
REMARK VINA RESULT:      -5.0      3.561      5.210
REMARK  7 active torsions:
REMARK  status: ('A' for Active; 'I' for Inactive)
REMARK    1  A    between atoms: C_14  and  N_1 
REMARK    2  A    between atoms: C_2  and  C_5 
REMARK    3  A    between atoms: C_6  and  C_2 
REMARK    4  A    between atoms: C_7  and  C_3 
REMARK    5  A    between atoms: C_5  and  C_7 
REMARK    6  A    between atoms: O_15  and  C_6 
REMARK    7  A    between atoms: C_18  and  O_15 
ROOT
ATOM      1  C   UNL d   1      51.239  34.086  52.955  0.00  0.00     0.132 C 
ATOM      2  C   UNL d   1      51.737  34.683  53.210  0.00  0.00     0.106 C 
ATOM      3  N   UNL d   1      52.219  35.270  53.455  0.00  0.00    -0.191 NA
ENDROOT
BRANCH   1   4
ATOM      4  C   UNL d   1      50.568  34.251  52.504  0.00  0.00     0.017 C 
BRANCH   4   5
ATOM      5  C   UNL d   1      50.005  34.722  52.797  0.00  0.00     0.018 C 
BRANCH   5   6
ATOM      6  C   UNL d   1      49.332  34.876  52.354  0.00  0.00     0.064 A 
ATOM      7  N   UNL d   1      48.739  35.397  52.648  0.00  0.00    -0.305 N 
ATOM      8  C   UNL d   1      48.060  35.545  52.188  0.00  0.00     0.064 A 
ATOM      9  C   UNL d   1      47.965  35.190  51.453  0.00  0.00     0.016 A 
ATOM     10  C   UNL d   1      47.483  36.058  52.486  0.00  0.00     0.018 A 
ATOM     11  C   UNL d   1      48.554  34.673  51.159  0.00  0.00     0.003 A 
ATOM     12  C   UNL d   1      47.292  35.344  51.009  0.00  0.00     0.001 A 
ATOM     13  C   UNL d   1      49.227  34.518  51.603  0.00  0.00     0.018 A 
ATOM     14  C   UNL d   1      46.704  35.856  51.294  0.00  0.00     0.000 A 
ATOM     15  C   UNL d   1      46.810  36.212  52.042  0.00  0.00     0.002 A 
BRANCH   7  16
ATOM     16  C   UNL d   1      48.827  35.758  53.387  0.00  0.00     0.080 C 
ATOM     17  C   UNL d   1      48.350  35.508  54.022  0.00  0.00     0.021 C 
ENDBRANCH   7  16
ENDBRANCH   5   6
ENDBRANCH   4   5
ENDBRANCH   1   4
BRANCH   1  18
ATOM     18  C   UNL d   1      51.425  33.334  53.158  0.00  0.00     0.310 C 
ATOM     19  O   UNL d   1      50.992  32.959  53.712  0.00  0.00    -0.258 OA
BRANCH  18  20
ATOM     20  O   UNL d   1      51.979  32.984  52.852  0.00  0.00    -0.271 OA
BRANCH  20  21
ATOM     21  C   UNL d   1      52.110  32.128  52.990  0.00  0.00     0.126 C 
ATOM     22  C   UNL d   1      52.854  31.770  52.870  0.00  0.00     0.029 C 
ENDBRANCH  20  21
ENDBRANCH  18  20
ENDBRANCH   1  18
TORSDOF 7
ENDMDL
