MODEL 1
REMARK VINA RESULT:      -1.5      0.000      0.000
REMARK  3 active torsions:
REMARK  status: ('A' for Active; 'I' for Inactive)
REMARK    1  A    between atoms: S_5  and  C_3 
REMARK    2  A    between atoms: C_12  and  S_5 
REMARK    3  A    between atoms: C_23  and  N_6 
ROOT
ATOM      1  C   UNL d   1      32.863  21.469 -22.456  0.00  0.00     0.155 A 
ATOM      2  C   UNL d   1      32.631  20.937 -21.883  0.00  0.00     0.092 A 
ATOM      3  C   UNL d   1      32.675  19.895 -22.838  0.00  0.00     0.124 A 
ATOM      4  N   UNL d   1      32.958  22.261 -22.263  0.00  0.00    -0.210 NA
ATOM      5  N   UNL d   1      33.002  21.226 -23.212  0.00  0.00    -0.273 N 
ATOM      6  C   UNL d   1      32.910  20.434 -23.418  0.00  0.00     0.181 A 
ATOM      7  C   UNL d   1      32.490  21.187 -21.113  0.00  0.00     0.269 A 
ATOM      8  N   UNL d   1      32.585  21.976 -20.924  0.00  0.00    -0.258 N 
ATOM      9  C   UNL d   1      32.536  20.148 -22.073  0.00  0.00     0.022 A 
ATOM     10  C   UNL d   1      32.820  22.514 -21.503  0.00  0.00     0.152 A 
ATOM     11  N   UNL d   1      33.053  20.183 -24.200  0.00  0.00    -0.128 N 
ATOM     12  C   UNL d   1      32.448  22.235 -20.158  0.00  0.00     0.084 A 
ATOM     13  O   UNL d   1      32.253  20.643 -20.527  0.00  0.00    -0.266 OA
ATOM     14  C   UNL d   1      32.915  23.305 -21.311  0.00  0.00     0.038 A 
ATOM     15  C   UNL d   1      32.543  23.020 -19.971  0.00  0.00     0.019 A 
ATOM     16  C   UNL d   1      32.778  23.558 -20.551  0.00  0.00     0.005 A 
ENDROOT
BRANCH   3  17
ATOM     17  S   UNL d   1      32.581  19.090 -23.044  0.00  0.00     0.213 S 
ATOM     18  O   UNL d   1      31.919  19.271 -23.519  0.00  0.00    -0.217 OA
ATOM     19  O   UNL d   1      33.241  18.906 -22.571  0.00  0.00    -0.217 OA
BRANCH  17  20
ATOM     20  C   UNL d   1      32.501  18.282 -23.240  0.00  0.00     0.088 A 
ATOM     21  C   UNL d   1      31.859  18.027 -23.697  0.00  0.00     0.014 A 
ATOM     22  C   UNL d   1      31.784  17.225 -23.888  0.00  0.00     0.030 A 
ATOM     23  C   UNL d   1      32.345  16.674 -23.627  0.00  0.00     0.140 A 
ATOM     24  C   UNL d   1      32.993  16.939 -23.164  0.00  0.00     0.030 A 
ATOM     25  F   UNL d   1      32.270  15.867 -23.820  0.00  0.00    -0.204 F 
ATOM     26  C   UNL d   1      33.069  17.740 -22.972  0.00  0.00     0.014 A 
ENDBRANCH  17  20
ENDBRANCH   3  17
BRANCH   5  27
ATOM     27  C   UNL d   1      33.241  21.773 -23.802  0.00  0.00     0.083 C 
ATOM     28  C   UNL d   1      33.192  21.550 -24.610  0.00  0.00     0.021 C 
ENDBRANCH   5  27
TORSDOF 3
ENDMDL
MODEL 2
REMARK VINA RESULT:      -0.7      1.545      2.609
REMARK  3 active torsions:
REMARK  status: ('A' for Active; 'I' for Inactive)
REMARK    1  A    between atoms: S_5  and  C_3 
REMARK    2  A    between atoms: C_12  and  S_5 
REMARK    3  A    between atoms: C_23  and  N_6 
ROOT
ATOM      1  C   UNL d   1      32.491  22.682 -20.250  0.00  0.00     0.155 A 
ATOM      2  C   UNL d   1      32.775  21.951 -20.026  0.00  0.00     0.092 A 
ATOM      3  C   UNL d   1      32.714  21.520 -21.372  0.00  0.00     0.124 A 
ATOM      4  N   UNL d   1      32.379  23.267 -19.685  0.00  0.00    -0.210 NA
ATOM      5  N   UNL d   1      32.319  22.839 -21.022  0.00  0.00    -0.273 N 
ATOM      6  C   UNL d   1      32.427  22.261 -21.598  0.00  0.00     0.181 A 
ATOM      7  C   UNL d   1      32.950  21.794 -19.239  0.00  0.00     0.269 A 
ATOM      8  N   UNL d   1      32.838  22.377 -18.678  0.00  0.00    -0.258 N 
ATOM      9  C   UNL d   1      32.887  21.368 -20.586  0.00  0.00     0.022 A 
ATOM     10  C   UNL d   1      32.551  23.117 -18.904  0.00  0.00     0.152 A 
ATOM     11  N   UNL d   1      32.248  22.423 -22.395  0.00  0.00    -0.128 N 
ATOM     12  C   UNL d   1      33.010  22.230 -17.890  0.00  0.00     0.084 A 
ATOM     13  O   UNL d   1      33.240  21.046 -19.010  0.00  0.00    -0.266 OA
ATOM     14  C   UNL d   1      32.439  23.701 -18.340  0.00  0.00     0.038 A 
ATOM     15  C   UNL d   1      32.898  22.811 -17.334  0.00  0.00     0.019 A 
ATOM     16  C   UNL d   1      32.611  23.551 -17.560  0.00  0.00     0.005 A 
ENDROOT
BRANCH   3  17
ATOM     17  S   UNL d   1      32.825  20.931 -21.954  0.00  0.00     0.213 S 
ATOM     18  O   UNL d   1      33.241  21.466 -22.441  0.00  0.00    -0.217 OA
ATOM     19  O   UNL d   1      32.410  20.394 -21.471  0.00  0.00    -0.217 OA
BRANCH  17  20
ATOM     20  C   UNL d   1      32.927  20.331 -22.526  0.00  0.00     0.088 A 
ATOM     21  C   UNL d   1      33.114  20.530 -23.308  0.00  0.00     0.014 A 
ATOM     22  C   UNL d   1      33.215  19.932 -23.871  0.00  0.00     0.030 A 
ATOM     23  C   UNL d   1      33.129  19.135 -23.661  0.00  0.00     0.140 A 
ATOM     24  C   UNL d   1      32.939  18.940 -22.867  0.00  0.00     0.030 A 
ATOM     25  F   UNL d   1      33.230  18.532 -24.228  0.00  0.00    -0.204 F 
ATOM     26  C   UNL d   1      32.839  19.536 -22.303  0.00  0.00     0.014 A 
ENDBRANCH  17  20
ENDBRANCH   3  17
BRANCH   5  27
ATOM     27  C   UNL d   1      32.027  23.591 -21.252  0.00  0.00     0.083 C 
ATOM     28  C   UNL d   1      31.354  23.632 -21.753  0.00  0.00     0.021 C 
ENDBRANCH   5  27
TORSDOF 3
ENDMDL
MODEL 3
REMARK VINA RESULT:       1.3      1.312      2.123
REMARK  3 active torsions:
REMARK  status: ('A' for Active; 'I' for Inactive)
REMARK    1  A    between atoms: S_5  and  C_3 
REMARK    2  A    between atoms: C_12  and  S_5 
REMARK    3  A    between atoms: C_23  and  N_6 
ROOT
ATOM      1  C   UNL d   1      33.225  20.826 -22.221  0.00  0.00     0.155 A 
ATOM      2  C   UNL d   1      33.212  20.819 -23.037  0.00  0.00     0.092 A 
ATOM      3  C   UNL d   1      33.206  19.406 -23.022  0.00  0.00     0.124 A 
ATOM      4  N   UNL d   1      33.234  21.541 -21.818  0.00  0.00    -0.210 NA
ATOM      5  N   UNL d   1      33.228  20.136 -21.803  0.00  0.00    -0.273 N 
ATOM      6  C   UNL d   1      33.218  19.412 -22.196  0.00  0.00     0.181 A 
ATOM      7  C   UNL d   1      33.209  21.524 -23.459  0.00  0.00     0.269 A 
ATOM      8  N   UNL d   1      33.218  22.234 -23.057  0.00  0.00    -0.258 N 
ATOM      9  C   UNL d   1      33.203  20.109 -23.439  0.00  0.00     0.022 A 
ATOM     10  C   UNL d   1      33.231  22.241 -22.232  0.00  0.00     0.152 A 
ATOM     11  N   UNL d   1      33.222  18.699 -21.764  0.00  0.00    -0.128 N 
ATOM     12  C   UNL d   1      33.215  22.942 -23.470  0.00  0.00     0.084 A 
ATOM     13  O   UNL d   1      33.196  21.518 -24.293  0.00  0.00    -0.266 OA
ATOM     14  C   UNL d   1      33.241  22.955 -21.829  0.00  0.00     0.038 A 
ATOM     15  C   UNL d   1      33.225  23.648 -23.068  0.00  0.00     0.019 A 
ATOM     16  C   UNL d   1      33.238  23.655 -22.243  0.00  0.00     0.005 A 
ENDROOT
BRANCH   3  17
ATOM     17  S   UNL d   1      33.196  18.672 -23.423  0.00  0.00     0.213 S 
ATOM     18  O   UNL d   1      33.199  18.257 -22.700  0.00  0.00    -0.217 OA
ATOM     19  O   UNL d   1      33.194  19.084 -24.147  0.00  0.00    -0.217 OA
BRANCH  17  20
ATOM     20  C   UNL d   1      33.187  17.948 -23.839  0.00  0.00     0.088 A 
ATOM     21  C   UNL d   1      33.161  17.232 -23.426  0.00  0.00     0.014 A 
ATOM     22  C   UNL d   1      33.152  16.517 -23.842  0.00  0.00     0.030 A 
ATOM     23  C   UNL d   1      33.168  16.510 -24.671  0.00  0.00     0.140 A 
ATOM     24  C   UNL d   1      33.194  17.240 -25.085  0.00  0.00     0.030 A 
ATOM     25  F   UNL d   1      33.158  15.791 -25.091  0.00  0.00    -0.204 F 
ATOM     26  C   UNL d   1      33.203  17.955 -24.669  0.00  0.00     0.014 A 
ENDBRANCH  17  20
ENDBRANCH   3  17
BRANCH   5  27
ATOM     27  C   UNL d   1      33.241  20.142 -20.965  0.00  0.00     0.083 C 
ATOM     28  C   UNL d   1      32.535  20.323 -20.547  0.00  0.00     0.021 C 
ENDBRANCH   5  27
TORSDOF 3
ENDMDL
