MODEL 1
REMARK VINA RESULT:      -8.7      0.000      0.000
REMARK  3 active torsions:
REMARK  status: ('A' for Active; 'I' for Inactive)
REMARK    1  A    between atoms: S_3  and  C_1 
REMARK    2  A    between atoms: C_7  and  N_2 
REMARK    3  A    between atoms: C_11  and  C_7 
ROOT
ATOM      1  C   UNL d   1     -46.811  13.009  22.849  0.00  0.00     0.255 A 
ATOM      2  N   UNL d   1     -47.546  13.078  22.517  0.00  0.00    -0.278 N 
ATOM      3  N   UNL d   1     -46.791  12.367  23.338  0.00  0.00    -0.215 NA
ATOM      4  C   UNL d   1     -48.015  12.451  22.808  0.00  0.00     0.084 A 
ATOM      5  C   UNL d   1     -47.545  12.007  23.320  0.00  0.00     0.100 A 
ATOM      6  C   UNL d   1     -48.799  12.231  22.673  0.00  0.00     0.019 A 
ATOM      7  C   UNL d   1     -47.857  11.343  23.697  0.00  0.00     0.021 A 
ATOM      8  C   UNL d   1     -49.112  11.567  23.051  0.00  0.00     0.002 A 
ATOM      9  C   UNL d   1     -48.641  11.123  23.563  0.00  0.00     0.002 A 
ENDROOT
BRANCH   2  10
ATOM     10  C   UNL d   1     -47.808  13.658  21.982  0.00  0.00     0.082 C 
BRANCH  10  11
ATOM     11  C   UNL d   1     -48.396  14.184  22.199  0.00  0.00     0.018 A 
ATOM     12  C   UNL d   1     -48.275  14.726  22.817  0.00  0.00     0.002 A 
ATOM     13  C   UNL d   1     -48.860  15.254  23.037  0.00  0.00     0.000 A 
ATOM     14  C   UNL d   1     -49.575  15.254  22.649  0.00  0.00     0.000 A 
ATOM     15  C   UNL d   1     -49.701  14.712  22.028  0.00  0.00     0.000 A 
ATOM     16  C   UNL d   1     -49.113  14.186  21.812  0.00  0.00     0.002 A 
ENDBRANCH  10  11
ENDBRANCH   2  10
BRANCH   1  17
ATOM     17  S   UNL d   1     -46.178  13.519  22.709  0.00  0.00     0.174 S 
ATOM     18  O   UNL d   1     -46.155  13.273  21.922  0.00  0.00    -0.589 OA
ATOM     19  O   UNL d   1     -45.545  14.029  22.569  0.00  0.00    -0.589 OA
ATOM     20  O   UNL d   1     -46.202  13.765  23.497  0.00  0.00    -0.589 OA
ENDBRANCH   1  17
TORSDOF 3
ENDMDL
MODEL 2
REMARK VINA RESULT:      -8.5      1.875      2.411
REMARK  3 active torsions:
REMARK  status: ('A' for Active; 'I' for Inactive)
REMARK    1  A    between atoms: S_3  and  C_1 
REMARK    2  A    between atoms: C_7  and  N_2 
REMARK    3  A    between atoms: C_11  and  C_7 
ROOT
ATOM      1  C   UNL d   1     -48.620  12.285  22.903  0.00  0.00     0.255 A 
ATOM      2  N   UNL d   1     -48.532  13.037  22.616  0.00  0.00    -0.278 N 
ATOM      3  N   UNL d   1     -47.924  12.028  23.218  0.00  0.00    -0.215 NA
ATOM      4  C   UNL d   1     -47.741  13.269  22.756  0.00  0.00     0.084 A 
ATOM      5  C   UNL d   1     -47.362  12.640  23.131  0.00  0.00     0.100 A 
ATOM      6  C   UNL d   1     -47.326  13.963  22.591  0.00  0.00     0.019 A 
ATOM      7  C   UNL d   1     -46.567  12.704  23.343  0.00  0.00     0.021 A 
ATOM      8  C   UNL d   1     -46.530  14.027  22.802  0.00  0.00     0.002 A 
ATOM      9  C   UNL d   1     -46.151  13.398  23.178  0.00  0.00     0.002 A 
ENDROOT
BRANCH   2  10
ATOM     10  C   UNL d   1     -49.107  13.510  22.247  0.00  0.00     0.082 C 
BRANCH  10  11
ATOM     11  C   UNL d   1     -49.380  14.188  22.612  0.00  0.00     0.018 A 
ATOM     12  C   UNL d   1     -49.799  14.146  23.329  0.00  0.00     0.002 A 
ATOM     13  C   UNL d   1     -50.075  14.822  23.698  0.00  0.00     0.000 A 
ATOM     14  C   UNL d   1     -49.941  15.552  23.365  0.00  0.00     0.000 A 
ATOM     15  C   UNL d   1     -49.521  15.599  22.646  0.00  0.00     0.000 A 
ATOM     16  C   UNL d   1     -49.247  14.921  22.280  0.00  0.00     0.002 A 
ENDBRANCH  10  11
ENDBRANCH   2  10
BRANCH   1  17
ATOM     17  S   UNL d   1     -49.319  11.848  22.876  0.00  0.00     0.174 S 
ATOM     18  O   UNL d   1     -49.258  11.800  22.054  0.00  0.00    -0.589 OA
ATOM     19  O   UNL d   1     -50.018  11.411  22.849  0.00  0.00    -0.589 OA
ATOM     20  O   UNL d   1     -49.381  11.896  23.698  0.00  0.00    -0.589 OA
ENDBRANCH   1  17
TORSDOF 3
ENDMDL
MODEL 3
REMARK VINA RESULT:      -8.5      0.732      2.659
REMARK  3 active torsions:
REMARK  status: ('A' for Active; 'I' for Inactive)
REMARK    1  A    between atoms: S_3  and  C_1 
REMARK    2  A    between atoms: C_7  and  N_2 
REMARK    3  A    between atoms: C_11  and  C_7 
ROOT
ATOM      1  C   UNL d   1     -46.878  13.563  22.734  0.00  0.00     0.255 A 
ATOM      2  N   UNL d   1     -47.588  13.338  22.416  0.00  0.00    -0.278 N 
ATOM      3  N   UNL d   1     -46.882  14.356  22.880  0.00  0.00    -0.215 NA
ATOM      4  C   UNL d   1     -48.066  14.021  22.356  0.00  0.00     0.084 A 
ATOM      5  C   UNL d   1     -47.626  14.656  22.645  0.00  0.00     0.100 A 
ATOM      6  C   UNL d   1     -48.833  14.142  22.079  0.00  0.00     0.019 A 
ATOM      7  C   UNL d   1     -47.953  15.413  22.658  0.00  0.00     0.021 A 
ATOM      8  C   UNL d   1     -49.161  14.900  22.092  0.00  0.00     0.002 A 
ATOM      9  C   UNL d   1     -48.722  15.535  22.381  0.00  0.00     0.002 A 
ENDROOT
BRANCH   2  10
ATOM     10  C   UNL d   1     -47.820  12.575  22.183  0.00  0.00     0.082 C 
BRANCH  10  11
ATOM     11  C   UNL d   1     -48.436  12.196  22.565  0.00  0.00     0.018 A 
ATOM     12  C   UNL d   1     -49.175  12.109  22.194  0.00  0.00     0.002 A 
ATOM     13  C   UNL d   1     -49.795  11.731  22.572  0.00  0.00     0.000 A 
ATOM     14  C   UNL d   1     -49.695  11.433  23.322  0.00  0.00     0.000 A 
ATOM     15  C   UNL d   1     -48.955  11.519  23.698  0.00  0.00     0.000 A 
ATOM     16  C   UNL d   1     -48.338  11.898  23.316  0.00  0.00     0.002 A 
ENDBRANCH  10  11
ENDBRANCH   2  10
BRANCH   1  17
ATOM     17  S   UNL d   1     -46.246  13.056  22.886  0.00  0.00     0.174 S 
ATOM     18  O   UNL d   1     -46.351  13.169  23.697  0.00  0.00    -0.589 OA
ATOM     19  O   UNL d   1     -45.614  12.548  23.039  0.00  0.00    -0.589 OA
ATOM     20  O   UNL d   1     -46.141  12.942  22.075  0.00  0.00    -0.589 OA
ENDBRANCH   1  17
TORSDOF 3
ENDMDL
MODEL 4
REMARK VINA RESULT:      -8.5      2.049      2.972
REMARK  3 active torsions:
REMARK  status: ('A' for Active; 'I' for Inactive)
REMARK    1  A    between atoms: S_3  and  C_1 
REMARK    2  A    between atoms: C_7  and  N_2 
REMARK    3  A    between atoms: C_11  and  C_7 
ROOT
ATOM      1  C   UNL d   1     -48.678  14.873  22.639  0.00  0.00     0.255 A 
ATOM      2  N   UNL d   1     -48.683  14.108  22.376  0.00  0.00    -0.278 N 
ATOM      3  N   UNL d   1     -47.931  15.081  22.862  0.00  0.00    -0.215 NA
ATOM      4  C   UNL d   1     -47.902  13.815  22.435  0.00  0.00     0.084 A 
ATOM      5  C   UNL d   1     -47.433  14.422  22.738  0.00  0.00     0.100 A 
ATOM      6  C   UNL d   1     -47.566  13.084  22.253  0.00  0.00     0.019 A 
ATOM      7  C   UNL d   1     -46.627  14.299  22.860  0.00  0.00     0.021 A 
ATOM      8  C   UNL d   1     -46.759  12.960  22.376  0.00  0.00     0.002 A 
ATOM      9  C   UNL d   1     -46.289  13.567  22.679  0.00  0.00     0.002 A 
ENDROOT
BRANCH   2  10
ATOM     10  C   UNL d   1     -49.333  13.673  22.094  0.00  0.00     0.082 C 
BRANCH  10  11
ATOM     11  C   UNL d   1     -49.617  13.034  22.518  0.00  0.00     0.018 A 
ATOM     12  C   UNL d   1     -49.614  12.271  22.189  0.00  0.00     0.002 A 
ATOM     13  C   UNL d   1     -49.898  11.628  22.610  0.00  0.00     0.000 A 
ATOM     14  C   UNL d   1     -50.189  11.730  23.362  0.00  0.00     0.000 A 
ATOM     15  C   UNL d   1     -50.193  12.494  23.696  0.00  0.00     0.000 A 
ATOM     16  C   UNL d   1     -49.909  13.134  23.273  0.00  0.00     0.002 A 
ENDBRANCH  10  11
ENDBRANCH   2  10
BRANCH   1  17
ATOM     17  S   UNL d   1     -49.338  15.367  22.673  0.00  0.00     0.174 S 
ATOM     18  O   UNL d   1     -49.355  15.401  21.848  0.00  0.00    -0.589 OA
ATOM     19  O   UNL d   1     -49.998  15.860  22.707  0.00  0.00    -0.589 OA
ATOM     20  O   UNL d   1     -49.321  15.332  23.498  0.00  0.00    -0.589 OA
ENDBRANCH   1  17
TORSDOF 3
ENDMDL
MODEL 5
REMARK VINA RESULT:      -8.4      2.145      3.341
REMARK  3 active torsions:
REMARK  status: ('A' for Active; 'I' for Inactive)
REMARK    1  A    between atoms: S_3  and  C_1 
REMARK    2  A    between atoms: C_7  and  N_2 
REMARK    3  A    between atoms: C_11  and  C_7 
ROOT
ATOM      1  C   UNL d   1     -49.705  12.876  22.946  0.00  0.00     0.255 A 
ATOM      2  N   UNL d   1     -49.102  13.327  22.650  0.00  0.00    -0.278 N 
ATOM      3  N   UNL d   1     -50.247  13.347  23.313  0.00  0.00    -0.215 NA
ATOM      4  C   UNL d   1     -49.269  14.125  22.836  0.00  0.00     0.084 A 
ATOM      5  C   UNL d   1     -49.983  14.138  23.249  0.00  0.00     0.100 A 
ATOM      6  C   UNL d   1     -48.868  14.830  22.684  0.00  0.00     0.019 A 
ATOM      7  C   UNL d   1     -50.297  14.855  23.511  0.00  0.00     0.021 A 
ATOM      8  C   UNL d   1     -49.181  15.547  22.945  0.00  0.00     0.002 A 
ATOM      9  C   UNL d   1     -49.895  15.560  23.359  0.00  0.00     0.002 A 
ENDROOT
BRANCH   2  10
ATOM     10  C   UNL d   1     -48.432  13.068  22.233  0.00  0.00     0.082 C 
BRANCH  10  11
ATOM     11  C   UNL d   1     -47.688  13.130  22.568  0.00  0.00     0.018 A 
ATOM     12  C   UNL d   1     -47.496  12.707  23.257  0.00  0.00     0.002 A 
ATOM     13  C   UNL d   1     -46.753  12.766  23.596  0.00  0.00     0.000 A 
ATOM     14  C   UNL d   1     -46.188  13.244  23.259  0.00  0.00     0.000 A 
ATOM     15  C   UNL d   1     -46.377  13.670  22.567  0.00  0.00     0.000 A 
ATOM     16  C   UNL d   1     -47.121  13.609  22.232  0.00  0.00     0.002 A 
ENDBRANCH  10  11
ENDBRANCH   2  10
BRANCH   1  17
ATOM     17  S   UNL d   1     -49.756  12.055  22.883  0.00  0.00     0.174 S 
ATOM     18  O   UNL d   1     -49.873  12.124  22.070  0.00  0.00    -0.589 OA
ATOM     19  O   UNL d   1     -49.807  11.234  22.820  0.00  0.00    -0.589 OA
ATOM     20  O   UNL d   1     -49.639  11.985  23.698  0.00  0.00    -0.589 OA
ENDBRANCH   1  17
TORSDOF 3
ENDMDL
MODEL 6
REMARK VINA RESULT:      -8.3      2.069      2.793
REMARK  3 active torsions:
REMARK  status: ('A' for Active; 'I' for Inactive)
REMARK    1  A    between atoms: S_3  and  C_1 
REMARK    2  A    between atoms: C_7  and  N_2 
REMARK    3  A    between atoms: C_11  and  C_7 
ROOT
ATOM      1  C   UNL d   1     -49.660  14.287  22.857  0.00  0.00     0.255 A 
ATOM      2  N   UNL d   1     -49.150  13.736  22.555  0.00  0.00    -0.278 N 
ATOM      3  N   UNL d   1     -50.208  13.927  23.326  0.00  0.00    -0.215 NA
ATOM      4  C   UNL d   1     -49.386  12.988  22.846  0.00  0.00     0.084 A 
ATOM      5  C   UNL d   1     -50.046  13.107  23.327  0.00  0.00     0.100 A 
ATOM      6  C   UNL d   1     -49.088  12.227  22.735  0.00  0.00     0.019 A 
ATOM      7  C   UNL d   1     -50.408  12.466  23.697  0.00  0.00     0.021 A 
ATOM      8  C   UNL d   1     -49.451  11.584  23.105  0.00  0.00     0.002 A 
ATOM      9  C   UNL d   1     -50.110  11.704  23.587  0.00  0.00     0.002 A 
ENDROOT
BRANCH   2  10
ATOM     10  C   UNL d   1     -48.505  13.865  22.047  0.00  0.00     0.082 C 
BRANCH  10  11
ATOM     11  C   UNL d   1     -47.742  13.727  22.306  0.00  0.00     0.018 A 
ATOM     12  C   UNL d   1     -47.405  14.196  22.903  0.00  0.00     0.002 A 
ATOM     13  C   UNL d   1     -46.641  14.061  23.165  0.00  0.00     0.000 A 
ATOM     14  C   UNL d   1     -46.198  13.461  22.841  0.00  0.00     0.000 A 
ATOM     15  C   UNL d   1     -46.533  12.988  22.241  0.00  0.00     0.000 A 
ATOM     16  C   UNL d   1     -47.297  13.126  21.982  0.00  0.00     0.002 A 
ENDBRANCH  10  11
ENDBRANCH   2  10
BRANCH   1  17
ATOM     17  S   UNL d   1     -49.622  15.098  22.707  0.00  0.00     0.174 S 
ATOM     18  O   UNL d   1     -49.428  15.235  23.497  0.00  0.00    -0.589 OA
ATOM     19  O   UNL d   1     -49.585  15.908  22.557  0.00  0.00    -0.589 OA
ATOM     20  O   UNL d   1     -49.817  14.960  21.916  0.00  0.00    -0.589 OA
ENDBRANCH   1  17
TORSDOF 3
ENDMDL
