MODEL 1
REMARK VINA RESULT:      39.1      0.000      0.000
REMARK  1 active torsions:
REMARK  status: ('A' for Active; 'I' for Inactive)
REMARK    1  A    between atoms: N_11  and  C_4 
ROOT
ATOM      1  N   UNL d   1      14.262  13.600  -2.150  0.00  0.00    -0.195 N 
ATOM      2  C   UNL d   1      14.645  13.784  -1.437  0.00  0.00     0.168 A 
ATOM      3  C   UNL d   1      14.838  14.558  -1.254  0.00  0.00     0.073 A 
ATOM      4  C   UNL d   1      14.077  12.822  -2.315  0.00  0.00     0.153 A 
ATOM      5  N   UNL d   1      14.262  14.963  -2.501  0.00  0.00    -0.143 NA
ATOM      6  C   UNL d   1      14.645  15.146  -1.788  0.00  0.00     0.185 A 
ATOM      7  N   UNL d   1      14.833  13.183  -0.909  0.00  0.00    -0.227 NA
ATOM      8  C   UNL d   1      15.217  14.739  -0.549  0.00  0.00     0.007 A 
ATOM      9  N   UNL d   1      14.834  15.935  -1.617  0.00  0.00    -0.225 NA
ATOM     10  C   UNL d   1      14.261  12.224  -1.796  0.00  0.00     0.057 A 
ATOM     11  C   UNL d   1      15.410  15.512  -0.366  0.00  0.00     0.019 A 
ATOM     12  C   UNL d   1      14.644  12.408  -1.083  0.00  0.00     0.086 A 
ATOM     13  C   UNL d   1      15.217  16.118  -0.904  0.00  0.00     0.083 A 
ATOM     14  C   UNL d   1      15.406  14.135  -0.019  0.00  0.00     0.000 C 
ATOM     15  C   UNL d   1      14.839  11.781  -0.536  0.00  0.00     0.021 C 
ATOM     16  C   UNL d   1      15.407  16.890  -0.728  0.00  0.00     0.021 C 
ENDROOT
BRANCH   4  17
ATOM     17  N   UNL d   1      13.682  12.641  -3.053  0.00  0.00    -0.285 N 
ATOM     18  C   UNL d   1      13.161  11.957  -3.102  0.00  0.00     0.108 A 
ATOM     19  C   UNL d   1      12.772  11.782  -3.834  0.00  0.00     0.142 A 
ATOM     20  O   UNL d   1      12.895  12.279  -4.514  0.00  0.00    -0.300 OA
ATOM     21  C   UNL d   1      13.410  12.953  -4.459  0.00  0.00     0.142 A 
ATOM     22  C   UNL d   1      13.800  13.128  -3.728  0.00  0.00     0.108 A 
ENDBRANCH   4  17
TORSDOF 1
ENDMDL
