MODEL 1
REMARK VINA RESULT:      -5.1      0.000      0.000
REMARK  2 active torsions:
REMARK  status: ('A' for Active; 'I' for Inactive)
REMARK    1  A    between atoms: N_10  and  C_1 
REMARK       I    between atoms: C_12  and  N_10 
REMARK    2  A    between atoms: C_17  and  C_12 
ROOT
ATOM      1  C   UNL d   1     -41.233-122.285 -53.284  0.00  0.00     0.197 A 
ATOM      2  C   UNL d   1     -41.283-122.390 -51.963  0.00  0.00     0.057 A 
ATOM      3  C   UNL d   1     -41.334-122.622 -51.197  0.00  0.00     0.056 A 
ATOM      4  N   UNL d   1     -41.147-121.540 -53.001  0.00  0.00    -0.221 NA
ATOM      5  S   UNL d   1     -41.321-122.843 -52.668  0.00  0.00    -0.046 SA
ATOM      6  N   UNL d   1     -41.350-122.456 -49.882  0.00  0.00    -0.238 NA
ATOM      7  S   UNL d   1     -41.436-123.346 -50.843  0.00  0.00    -0.066 SA
ATOM      8  C   UNL d   1     -41.178-121.600 -52.165  0.00  0.00     0.090 A 
ATOM      9  C   UNL d   1     -41.281-122.067 -50.583  0.00  0.00     0.088 A 
ATOM     10  C   UNL d   1     -41.446-123.233 -49.988  0.00  0.00     0.111 A 
ATOM     11  C   UNL d   1     -41.123-121.034 -51.568  0.00  0.00     0.021 A 
ATOM     12  C   UNL d   1     -41.175-121.270 -50.758  0.00  0.00     0.021 A 
ATOM     13  C   UNL d   1     -41.536-123.817 -49.393  0.00  0.00     0.028 C 
ENDROOT
BRANCH   1  14
ATOM     14  N   UNL d   1     -41.237-122.496 -54.114  0.00  0.00    -0.183 NA
ATOM     15  C   UNL d   1     -41.910-122.342 -54.554  0.00  0.00     0.281 C 
ATOM     16  O   UNL d   1     -42.560-121.975 -54.134  0.00  0.00    -0.265 OA
BRANCH  15  17
ATOM     17  C   UNL d   1     -41.913-122.536 -55.317  0.00  0.00     0.063 C 
ATOM     18  C   UNL d   1     -42.374-121.973 -55.939  0.00  0.00     0.005 C 
ENDBRANCH  15  17
ENDBRANCH   1  14
TORSDOF 2
ENDMDL
MODEL 2
REMARK VINA RESULT:      -4.5      1.750      2.967
REMARK  2 active torsions:
REMARK  status: ('A' for Active; 'I' for Inactive)
REMARK    1  A    between atoms: N_10  and  C_1 
REMARK       I    between atoms: C_12  and  N_10 
REMARK    2  A    between atoms: C_17  and  C_12 
ROOT
ATOM      1  C   UNL d   1     -41.841-122.443 -50.577  0.00  0.00     0.197 A 
ATOM      2  C   UNL d   1     -41.999-122.960 -49.366  0.00  0.00     0.057 A 
ATOM      3  C   UNL d   1     -41.925-123.238 -48.616  0.00  0.00     0.056 A 
ATOM      4  N   UNL d   1     -42.614-122.650 -50.525  0.00  0.00    -0.221 NA
ATOM      5  S   UNL d   1     -41.424-122.620 -49.874  0.00  0.00    -0.046 SA
ATOM      6  N   UNL d   1     -42.343-123.785 -47.484  0.00  0.00    -0.238 NA
ATOM      7  S   UNL d   1     -41.298-123.289 -48.104  0.00  0.00    -0.066 SA
ATOM      8  C   UNL d   1     -42.720-122.978 -49.760  0.00  0.00     0.090 A 
ATOM      9  C   UNL d   1     -42.580-123.553 -48.217  0.00  0.00     0.088 A 
ATOM     10  C   UNL d   1     -41.574-123.646 -47.369  0.00  0.00     0.111 A 
ATOM     11  C   UNL d   1     -43.382-123.288 -49.378  0.00  0.00     0.021 A 
ATOM     12  C   UNL d   1     -43.313-123.583 -48.589  0.00  0.00     0.021 A 
ATOM     13  C   UNL d   1     -41.128-123.811 -46.678  0.00  0.00     0.028 C 
ENDROOT
BRANCH   1  14
ATOM     14  N   UNL d   1     -41.475-122.085 -51.262  0.00  0.00    -0.183 NA
ATOM     15  C   UNL d   1     -41.463-122.505 -51.964  0.00  0.00     0.281 C 
ATOM     16  O   UNL d   1     -41.826-123.280 -51.947  0.00  0.00    -0.265 OA
BRANCH  15  17
ATOM     17  C   UNL d   1     -41.127-122.175 -52.595  0.00  0.00     0.063 C 
ATOM     18  C   UNL d   1     -41.174-122.626 -53.438  0.00  0.00     0.005 C 
ENDBRANCH  15  17
ENDBRANCH   1  14
TORSDOF 2
ENDMDL
