MODEL 1
REMARK VINA RESULT:      -9.2      0.000      0.000
REMARK  4 active torsions:
REMARK  status: ('A' for Active; 'I' for Inactive)
REMARK       I    between atoms: C_2  and  N_1 
REMARK       I    between atoms: N_8  and  C_2 
REMARK    1  A    between atoms: C_14  and  N_8 
REMARK    2  A    between atoms: C_15  and  N_8 
REMARK    3  A    between atoms: C_17  and  C_14 
REMARK    4  A    between atoms: C_16  and  C_15 
ROOT
ATOM      1  N   UNL d   1     -48.133  13.423  23.079  0.00  0.00    -0.259 N 
ATOM      2  C   UNL d   1     -48.632  14.075  23.000  0.00  0.00     0.339 C 
ATOM      3  S   UNL d   1     -47.136  12.110  23.240  0.00  0.00    -0.084 SA
ATOM      4  C   UNL d   1     -47.322  13.498  22.954  0.00  0.00     0.074 A 
ATOM      5  C   UNL d   1     -48.452  12.685  23.287  0.00  0.00     0.074 A 
ATOM      6  C   UNL d   1     -46.817  12.851  23.032  0.00  0.00     0.046 A 
ATOM      7  C   UNL d   1     -47.946  12.033  23.365  0.00  0.00     0.046 A 
ATOM      8  N   UNL d   1     -49.444  14.000  23.126  0.00  0.00    -0.258 N 
ATOM      9  O   UNL d   1     -48.317  14.814  22.793  0.00  0.00    -0.245 OA
ATOM     10  C   UNL d   1     -47.005  14.237  22.747  0.00  0.00     0.018 A 
ATOM     11  C   UNL d   1     -49.254  12.603  23.412  0.00  0.00     0.018 A 
ATOM     12  C   UNL d   1     -48.257  11.297  23.571  0.00  0.00     0.008 A 
ATOM     13  C   UNL d   1     -46.009  12.916  22.909  0.00  0.00     0.008 A 
ATOM     14  C   UNL d   1     -49.571  11.864  23.620  0.00  0.00     0.002 A 
ATOM     15  C   UNL d   1     -46.197  14.304  22.624  0.00  0.00     0.002 A 
ATOM     16  C   UNL d   1     -45.702  13.661  22.702  0.00  0.00     0.001 A 
ATOM     17  C   UNL d   1     -49.069  11.221  23.696  0.00  0.00     0.001 A 
ENDROOT
BRANCH   8  18
ATOM     18  C   UNL d   1     -49.762  13.259  23.333  0.00  0.00     0.085 C 
BRANCH  18  19
ATOM     19  C   UNL d   1     -50.550  13.210  23.524  0.00  0.00     0.019 C 
ATOM     20  C   UNL d   1     -51.060  12.825  23.000  0.00  0.00     0.002 C 
ENDBRANCH  18  19
ENDBRANCH   8  18
BRANCH   8  21
ATOM     21  C   UNL d   1     -49.936  14.655  23.045  0.00  0.00     0.085 C 
BRANCH  21  22
ATOM     22  C   UNL d   1     -49.937  15.252  23.624  0.00  0.00     0.019 C 
ATOM     23  C   UNL d   1     -50.388  15.922  23.526  0.00  0.00     0.002 C 
ENDBRANCH  21  22
ENDBRANCH   8  21
TORSDOF 4
ENDMDL
MODEL 2
REMARK VINA RESULT:      -9.2      0.994      3.059
REMARK  4 active torsions:
REMARK  status: ('A' for Active; 'I' for Inactive)
REMARK       I    between atoms: C_2  and  N_1 
REMARK       I    between atoms: N_8  and  C_2 
REMARK    1  A    between atoms: C_14  and  N_8 
REMARK    2  A    between atoms: C_15  and  N_8 
REMARK    3  A    between atoms: C_17  and  C_14 
REMARK    4  A    between atoms: C_16  and  C_15 
ROOT
ATOM      1  N   UNL d   1     -48.390  13.538  23.031  0.00  0.00    -0.259 N 
ATOM      2  C   UNL d   1     -47.577  13.628  22.934  0.00  0.00     0.339 C 
ATOM      3  S   UNL d   1     -50.025  13.352  23.227  0.00  0.00    -0.084 SA
ATOM      4  C   UNL d   1     -48.899  14.176  22.919  0.00  0.00     0.074 A 
ATOM      5  C   UNL d   1     -48.699  12.797  23.245  0.00  0.00     0.074 A 
ATOM      6  C   UNL d   1     -49.714  14.094  23.014  0.00  0.00     0.046 A 
ATOM      7  C   UNL d   1     -49.518  12.712  23.341  0.00  0.00     0.046 A 
ATOM      8  N   UNL d   1     -47.067  12.989  23.047  0.00  0.00    -0.258 N 
ATOM      9  O   UNL d   1     -47.264  14.367  22.721  0.00  0.00    -0.245 OA
ATOM     10  C   UNL d   1     -48.589  14.917  22.705  0.00  0.00     0.018 A 
ATOM     11  C   UNL d   1     -48.202  12.160  23.358  0.00  0.00     0.018 A 
ATOM     12  C   UNL d   1     -49.830  11.979  23.552  0.00  0.00     0.008 A 
ATOM     13  C   UNL d   1     -50.228  14.723  22.903  0.00  0.00     0.008 A 
ATOM     14  C   UNL d   1     -48.512  11.420  23.571  0.00  0.00     0.002 A 
ATOM     15  C   UNL d   1     -49.101  15.547  22.595  0.00  0.00     0.002 A 
ATOM     16  C   UNL d   1     -49.906  15.461  22.690  0.00  0.00     0.001 A 
ATOM     17  C   UNL d   1     -49.321  11.339  23.666  0.00  0.00     0.001 A 
ENDROOT
BRANCH   8  18
ATOM     18  C   UNL d   1     -47.378  12.247  23.261  0.00  0.00     0.085 C 
BRANCH  18  19
ATOM     19  C   UNL d   1     -46.917  11.739  23.697  0.00  0.00     0.019 C 
ATOM     20  C   UNL d   1     -46.645  11.047  23.337  0.00  0.00     0.002 C 
ENDBRANCH  18  19
ENDBRANCH   8  18
BRANCH   8  21
ATOM     21  C   UNL d   1     -46.256  13.086  22.949  0.00  0.00     0.085 C 
BRANCH  21  22
ATOM     22  C   UNL d   1     -45.941  13.249  22.197  0.00  0.00     0.019 C 
ATOM     23  C   UNL d   1     -45.137  13.298  22.085  0.00  0.00     0.002 C 
ENDBRANCH  21  22
ENDBRANCH   8  21
TORSDOF 4
ENDMDL
MODEL 3
REMARK VINA RESULT:      -9.2      1.318      3.858
REMARK  4 active torsions:
REMARK  status: ('A' for Active; 'I' for Inactive)
REMARK       I    between atoms: C_2  and  N_1 
REMARK       I    between atoms: N_8  and  C_2 
REMARK    1  A    between atoms: C_14  and  N_8 
REMARK    2  A    between atoms: C_15  and  N_8 
REMARK    3  A    between atoms: C_17  and  C_14 
REMARK    4  A    between atoms: C_16  and  C_15 
ROOT
ATOM      1  N   UNL d   1     -48.730  12.846  23.142  0.00  0.00    -0.259 N 
ATOM      2  C   UNL d   1     -48.141  12.269  23.147  0.00  0.00     0.339 C 
ATOM      3  S   UNL d   1     -49.911  14.008  23.130  0.00  0.00    -0.084 SA
ATOM      4  C   UNL d   1     -49.510  12.650  23.325  0.00  0.00     0.074 A 
ATOM      5  C   UNL d   1     -48.536  13.630  22.950  0.00  0.00     0.074 A 
ATOM      6  C   UNL d   1     -50.105  13.221  23.322  0.00  0.00     0.046 A 
ATOM      7  C   UNL d   1     -49.133  14.205  22.947  0.00  0.00     0.046 A 
ATOM      8  N   UNL d   1     -47.360  12.465  22.963  0.00  0.00    -0.258 N 
ATOM      9  O   UNL d   1     -48.331  11.484  23.338  0.00  0.00    -0.245 OA
ATOM     10  C   UNL d   1     -49.702  11.865  23.516  0.00  0.00     0.018 A 
ATOM     11  C   UNL d   1     -47.767  13.832  22.768  0.00  0.00     0.018 A 
ATOM     12  C   UNL d   1     -48.946  14.986  22.757  0.00  0.00     0.008 A 
ATOM     13  C   UNL d   1     -50.882  13.036  23.503  0.00  0.00     0.008 A 
ATOM     14  C   UNL d   1     -47.574  14.616  22.576  0.00  0.00     0.002 A 
ATOM     15  C   UNL d   1     -50.480  11.677  23.698  0.00  0.00     0.002 A 
ATOM     16  C   UNL d   1     -51.064  12.246  23.693  0.00  0.00     0.001 A 
ATOM     17  C   UNL d   1     -48.166  15.183  22.573  0.00  0.00     0.001 A 
ENDROOT
BRANCH   8  18
ATOM     18  C   UNL d   1     -47.168  13.252  22.772  0.00  0.00     0.085 C 
BRANCH  18  19
ATOM     19  C   UNL d   1     -46.577  13.391  22.230  0.00  0.00     0.019 C 
ATOM     20  C   UNL d   1     -45.871  13.728  22.495  0.00  0.00     0.002 C 
ENDBRANCH  18  19
ENDBRANCH   8  18
BRANCH   8  21
ATOM     21  C   UNL d   1     -46.777  11.884  22.971  0.00  0.00     0.085 C 
BRANCH  21  22
ATOM     22  C   UNL d   1     -46.531  11.546  23.689  0.00  0.00     0.019 C 
ATOM     23  C   UNL d   1     -45.994  10.936  23.697  0.00  0.00     0.002 C 
ENDBRANCH  21  22
ENDBRANCH   8  21
TORSDOF 4
ENDMDL
MODEL 4
REMARK VINA RESULT:      -8.0      1.034      2.935
REMARK  4 active torsions:
REMARK  status: ('A' for Active; 'I' for Inactive)
REMARK       I    between atoms: C_2  and  N_1 
REMARK       I    between atoms: N_8  and  C_2 
REMARK    1  A    between atoms: C_14  and  N_8 
REMARK    2  A    between atoms: C_15  and  N_8 
REMARK    3  A    between atoms: C_17  and  C_14 
REMARK    4  A    between atoms: C_16  and  C_15 
ROOT
ATOM      1  N   UNL d   1     -48.518  12.815  23.212  0.00  0.00    -0.259 N 
ATOM      2  C   UNL d   1     -48.498  13.603  22.973  0.00  0.00     0.339 C 
ATOM      3  S   UNL d   1     -48.553  11.230  23.694  0.00  0.00    -0.084 SA
ATOM      4  C   UNL d   1     -49.238  12.432  23.335  0.00  0.00     0.074 A 
ATOM      5  C   UNL d   1     -47.807  12.403  23.331  0.00  0.00     0.074 A 
ATOM      6  C   UNL d   1     -49.266  11.644  23.574  0.00  0.00     0.046 A 
ATOM      7  C   UNL d   1     -47.833  11.611  23.572  0.00  0.00     0.046 A 
ATOM      8  N   UNL d   1     -47.777  13.986  22.851  0.00  0.00    -0.258 N 
ATOM      9  O   UNL d   1     -49.207  14.018  22.853  0.00  0.00    -0.245 OA
ATOM     10  C   UNL d   1     -49.948  12.845  23.215  0.00  0.00     0.018 A 
ATOM     11  C   UNL d   1     -47.090  12.775  23.213  0.00  0.00     0.018 A 
ATOM     12  C   UNL d   1     -47.130  11.197  23.692  0.00  0.00     0.008 A 
ATOM     13  C   UNL d   1     -49.977  11.255  23.698  0.00  0.00     0.008 A 
ATOM     14  C   UNL d   1     -46.380  12.362  23.332  0.00  0.00     0.002 A 
ATOM     15  C   UNL d   1     -50.661  12.458  23.338  0.00  0.00     0.002 A 
ATOM     16  C   UNL d   1     -50.683  11.678  23.575  0.00  0.00     0.001 A 
ATOM     17  C   UNL d   1     -46.409  11.579  23.570  0.00  0.00     0.001 A 
ENDROOT
BRANCH   8  18
ATOM     18  C   UNL d   1     -47.065  13.572  22.970  0.00  0.00     0.085 C 
BRANCH  18  19
ATOM     19  C   UNL d   1     -46.382  13.994  23.096  0.00  0.00     0.019 C 
ATOM     20  C   UNL d   1     -45.802  13.990  22.509  0.00  0.00     0.002 C 
ENDBRANCH  18  19
ENDBRANCH   8  18
BRANCH   8  21
ATOM     21  C   UNL d   1     -47.765  14.774  22.611  0.00  0.00     0.085 C 
BRANCH  21  22
ATOM     22  C   UNL d   1     -48.420  15.103  22.219  0.00  0.00     0.019 C 
ATOM     23  C   UNL d   1     -48.508  15.910  22.166  0.00  0.00     0.002 C 
ENDBRANCH  21  22
ENDBRANCH   8  21
TORSDOF 4
ENDMDL
MODEL 5
REMARK VINA RESULT:      -7.9      1.183      3.604
REMARK  4 active torsions:
REMARK  status: ('A' for Active; 'I' for Inactive)
REMARK       I    between atoms: C_2  and  N_1 
REMARK       I    between atoms: N_8  and  C_2 
REMARK    1  A    between atoms: C_14  and  N_8 
REMARK    2  A    between atoms: C_15  and  N_8 
REMARK    3  A    between atoms: C_17  and  C_14 
REMARK    4  A    between atoms: C_16  and  C_15 
ROOT
ATOM      1  N   UNL d   1     -48.549  13.110  23.105  0.00  0.00    -0.259 N 
ATOM      2  C   UNL d   1     -47.734  12.985  23.110  0.00  0.00     0.339 C 
ATOM      3  S   UNL d   1     -50.185  13.368  23.093  0.00  0.00    -0.084 SA
ATOM      4  C   UNL d   1     -49.069  12.501  23.300  0.00  0.00     0.074 A 
ATOM      5  C   UNL d   1     -48.847  13.857  22.901  0.00  0.00     0.074 A 
ATOM      6  C   UNL d   1     -49.884  12.619  23.298  0.00  0.00     0.046 A 
ATOM      7  C   UNL d   1     -49.667  13.978  22.897  0.00  0.00     0.046 A 
ATOM      8  N   UNL d   1     -47.214  13.594  22.914  0.00  0.00    -0.258 N 
ATOM      9  O   UNL d   1     -47.432  12.239  23.314  0.00  0.00    -0.245 OA
ATOM     10  C   UNL d   1     -48.768  11.754  23.504  0.00  0.00     0.018 A 
ATOM     11  C   UNL d   1     -48.340  14.466  22.706  0.00  0.00     0.018 A 
ATOM     12  C   UNL d   1     -49.970  14.719  22.695  0.00  0.00     0.008 A 
ATOM     13  C   UNL d   1     -50.409  12.019  23.491  0.00  0.00     0.008 A 
ATOM     14  C   UNL d   1     -48.640  15.212  22.502  0.00  0.00     0.002 A 
ATOM     15  C   UNL d   1     -49.291  11.153  23.698  0.00  0.00     0.002 A 
ATOM     16  C   UNL d   1     -50.097  11.275  23.693  0.00  0.00     0.001 A 
ATOM     17  C   UNL d   1     -49.451  15.329  22.499  0.00  0.00     0.001 A 
ENDROOT
BRANCH   8  18
ATOM     18  C   UNL d   1     -47.515  14.343  22.710  0.00  0.00     0.085 C 
BRANCH  18  19
ATOM     19  C   UNL d   1     -47.062  15.002  22.856  0.00  0.00     0.019 C 
ATOM     20  C   UNL d   1     -46.750  15.416  22.213  0.00  0.00     0.002 C 
ENDBRANCH  18  19
ENDBRANCH   8  18
BRANCH   8  21
ATOM     21  C   UNL d   1     -46.402  13.461  22.922  0.00  0.00     0.085 C 
BRANCH  21  22
ATOM     22  C   UNL d   1     -46.039  13.050  22.297  0.00  0.00     0.019 C 
ATOM     23  C   UNL d   1     -45.262  12.814  22.352  0.00  0.00     0.002 C 
ENDBRANCH  21  22
ENDBRANCH   8  21
TORSDOF 4
ENDMDL
MODEL 6
REMARK VINA RESULT:      -7.5      1.158      2.483
REMARK  4 active torsions:
REMARK  status: ('A' for Active; 'I' for Inactive)
REMARK       I    between atoms: C_2  and  N_1 
REMARK       I    between atoms: N_8  and  C_2 
REMARK    1  A    between atoms: C_14  and  N_8 
REMARK    2  A    between atoms: C_15  and  N_8 
REMARK    3  A    between atoms: C_17  and  C_14 
REMARK    4  A    between atoms: C_16  and  C_15 
ROOT
ATOM      1  N   UNL d   1     -48.329  13.550  22.788  0.00  0.00    -0.259 N 
ATOM      2  C   UNL d   1     -48.753  12.845  22.847  0.00  0.00     0.339 C 
ATOM      3  S   UNL d   1     -47.483  14.970  22.668  0.00  0.00    -0.084 SA
ATOM      4  C   UNL d   1     -47.506  13.549  22.822  0.00  0.00     0.074 A 
ATOM      5  C   UNL d   1     -48.737  14.267  22.693  0.00  0.00     0.074 A 
ATOM      6  C   UNL d   1     -47.075  14.250  22.764  0.00  0.00     0.046 A 
ATOM      7  C   UNL d   1     -48.306  14.972  22.634  0.00  0.00     0.046 A 
ATOM      8  N   UNL d   1     -49.577  12.847  22.813  0.00  0.00    -0.258 N 
ATOM      9  O   UNL d   1     -48.349  12.126  22.942  0.00  0.00    -0.245 OA
ATOM     10  C   UNL d   1     -47.100  12.830  22.918  0.00  0.00     0.018 A 
ATOM     11  C   UNL d   1     -49.552  14.277  22.658  0.00  0.00     0.018 A 
ATOM     12  C   UNL d   1     -48.706  15.688  22.539  0.00  0.00     0.008 A 
ATOM     13  C   UNL d   1     -46.256  14.258  22.797  0.00  0.00     0.008 A 
ATOM     14  C   UNL d   1     -49.958  14.994  22.563  0.00  0.00     0.002 A 
ATOM     15  C   UNL d   1     -46.280  12.837  22.951  0.00  0.00     0.002 A 
ATOM     16  C   UNL d   1     -45.859  13.533  22.893  0.00  0.00     0.001 A 
ATOM     17  C   UNL d   1     -49.530  15.690  22.505  0.00  0.00     0.001 A 
ENDROOT
BRANCH   8  18
ATOM     18  C   UNL d   1     -49.984  13.566  22.717  0.00  0.00     0.085 C 
BRANCH  18  19
ATOM     19  C   UNL d   1     -50.775  13.548  22.530  0.00  0.00     0.019 C 
ATOM     20  C   UNL d   1     -50.999  13.244  21.796  0.00  0.00     0.002 C 
ENDBRANCH  18  19
ENDBRANCH   8  18
BRANCH   8  21
ATOM     21  C   UNL d   1     -49.993  12.139  22.873  0.00  0.00     0.085 C 
BRANCH  21  22
ATOM     22  C   UNL d   1     -50.025  11.731  23.597  0.00  0.00     0.019 C 
ATOM     23  C   UNL d   1     -50.517  11.090  23.690  0.00  0.00     0.002 C 
ENDBRANCH  21  22
ENDBRANCH   8  21
TORSDOF 4
ENDMDL
MODEL 7
REMARK VINA RESULT:      -7.2      1.483      4.033
REMARK  4 active torsions:
REMARK  status: ('A' for Active; 'I' for Inactive)
REMARK       I    between atoms: C_2  and  N_1 
REMARK       I    between atoms: N_8  and  C_2 
REMARK    1  A    between atoms: C_14  and  N_8 
REMARK    2  A    between atoms: C_15  and  N_8 
REMARK    3  A    between atoms: C_17  and  C_14 
REMARK    4  A    between atoms: C_16  and  C_15 
ROOT
ATOM      1  N   UNL d   1     -47.763  12.440  23.198  0.00  0.00    -0.259 N 
ATOM      2  C   UNL d   1     -47.134  11.930  23.358  0.00  0.00     0.339 C 
ATOM      3  S   UNL d   1     -49.022  13.467  22.877  0.00  0.00    -0.084 SA
ATOM      4  C   UNL d   1     -48.541  12.193  23.311  0.00  0.00     0.074 A 
ATOM      5  C   UNL d   1     -47.609  13.207  22.923  0.00  0.00     0.074 A 
ATOM      6  C   UNL d   1     -49.175  12.697  23.154  0.00  0.00     0.046 A 
ATOM      7  C   UNL d   1     -48.244  13.715  22.764  0.00  0.00     0.046 A 
ATOM      8  N   UNL d   1     -46.355  12.177  23.245  0.00  0.00    -0.258 N 
ATOM      9  O   UNL d   1     -47.284  11.162  23.633  0.00  0.00    -0.245 OA
ATOM     10  C   UNL d   1     -48.693  11.425  23.587  0.00  0.00     0.018 A 
ATOM     11  C   UNL d   1     -46.841  13.459  22.809  0.00  0.00     0.018 A 
ATOM     12  C   UNL d   1     -48.098  14.480  22.490  0.00  0.00     0.008 A 
ATOM     13  C   UNL d   1     -49.952  12.461  23.262  0.00  0.00     0.008 A 
ATOM     14  C   UNL d   1     -46.689  14.227  22.533  0.00  0.00     0.002 A 
ATOM     15  C   UNL d   1     -49.470  11.186  23.696  0.00  0.00     0.002 A 
ATOM     16  C   UNL d   1     -50.093  11.688  23.539  0.00  0.00     0.001 A 
ATOM     17  C   UNL d   1     -47.319  14.727  22.377  0.00  0.00     0.001 A 
ENDROOT
BRANCH   8  18
ATOM     18  C   UNL d   1     -46.203  12.947  22.969  0.00  0.00     0.085 C 
BRANCH  18  19
ATOM     19  C   UNL d   1     -45.437  13.219  22.964  0.00  0.00     0.019 C 
ATOM     20  C   UNL d   1     -45.085  13.394  22.238  0.00  0.00     0.002 C 
ENDBRANCH  18  19
ENDBRANCH   8  18
BRANCH   8  21
ATOM     21  C   UNL d   1     -45.733  11.663  23.406  0.00  0.00     0.085 C 
BRANCH  21  22
ATOM     22  C   UNL d   1     -45.877  10.852  23.517  0.00  0.00     0.019 C 
ATOM     23  C   UNL d   1     -45.269  10.343  23.698  0.00  0.00     0.002 C 
ENDBRANCH  21  22
ENDBRANCH   8  21
TORSDOF 4
ENDMDL
MODEL 8
REMARK VINA RESULT:      -6.8      1.212      3.715
REMARK  4 active torsions:
REMARK  status: ('A' for Active; 'I' for Inactive)
REMARK       I    between atoms: C_2  and  N_1 
REMARK       I    between atoms: N_8  and  C_2 
REMARK    1  A    between atoms: C_14  and  N_8 
REMARK    2  A    between atoms: C_15  and  N_8 
REMARK    3  A    between atoms: C_17  and  C_14 
REMARK    4  A    between atoms: C_16  and  C_15 
ROOT
ATOM      1  N   UNL d   1     -48.892  13.971  23.160  0.00  0.00    -0.259 N 
ATOM      2  C   UNL d   1     -48.842  13.191  23.423  0.00  0.00     0.339 C 
ATOM      3  S   UNL d   1     -48.987  15.538  22.631  0.00  0.00    -0.084 SA
ATOM      4  C   UNL d   1     -49.613  14.370  23.167  0.00  0.00     0.074 A 
ATOM      5  C   UNL d   1     -48.209  14.356  22.886  0.00  0.00     0.074 A 
ATOM      6  C   UNL d   1     -49.671  15.150  22.905  0.00  0.00     0.046 A 
ATOM      7  C   UNL d   1     -48.266  15.140  22.623  0.00  0.00     0.046 A 
ATOM      8  N   UNL d   1     -48.120  12.792  23.416  0.00  0.00    -0.258 N 
ATOM      9  O   UNL d   1     -49.522  12.802  23.697  0.00  0.00    -0.245 OA
ATOM     10  C   UNL d   1     -50.295  13.983  23.441  0.00  0.00     0.018 A 
ATOM     11  C   UNL d   1     -47.492  13.969  22.877  0.00  0.00     0.018 A 
ATOM     12  C   UNL d   1     -47.591  15.529  22.350  0.00  0.00     0.008 A 
ATOM     13  C   UNL d   1     -50.384  15.555  22.908  0.00  0.00     0.008 A 
ATOM     14  C   UNL d   1     -46.810  14.355  22.603  0.00  0.00     0.002 A 
ATOM     15  C   UNL d   1     -51.009  14.386  23.445  0.00  0.00     0.002 A 
ATOM     16  C   UNL d   1     -51.061  15.157  23.185  0.00  0.00     0.001 A 
ATOM     17  C   UNL d   1     -46.869  15.130  22.343  0.00  0.00     0.001 A 
ENDROOT
BRANCH   8  18
ATOM     18  C   UNL d   1     -47.437  13.180  23.141  0.00  0.00     0.085 C 
BRANCH  18  19
ATOM     19  C   UNL d   1     -46.724  13.019  23.497  0.00  0.00     0.019 C 
ATOM     20  C   UNL d   1     -46.131  12.659  23.048  0.00  0.00     0.002 C 
ENDBRANCH  18  19
ENDBRANCH   8  18
BRANCH   8  21
ATOM     21  C   UNL d   1     -48.077  12.013  23.680  0.00  0.00     0.085 C 
BRANCH  21  22
ATOM     22  C   UNL d   1     -48.372  11.394  23.209  0.00  0.00     0.019 C 
ATOM     23  C   UNL d   1     -48.625  10.700  23.549  0.00  0.00     0.002 C 
ENDBRANCH  21  22
ENDBRANCH   8  21
TORSDOF 4
ENDMDL
MODEL 9
REMARK VINA RESULT:      -6.8      1.062      1.907
REMARK  4 active torsions:
REMARK  status: ('A' for Active; 'I' for Inactive)
REMARK       I    between atoms: C_2  and  N_1 
REMARK       I    between atoms: N_8  and  C_2 
REMARK    1  A    between atoms: C_14  and  N_8 
REMARK    2  A    between atoms: C_15  and  N_8 
REMARK    3  A    between atoms: C_17  and  C_14 
REMARK    4  A    between atoms: C_16  and  C_15 
ROOT
ATOM      1  N   UNL d   1     -48.464  12.751  23.105  0.00  0.00    -0.259 N 
ATOM      2  C   UNL d   1     -48.221  13.482  22.813  0.00  0.00     0.339 C 
ATOM      3  S   UNL d   1     -48.958  11.282  23.692  0.00  0.00    -0.084 SA
ATOM      4  C   UNL d   1     -47.915  12.153  23.251  0.00  0.00     0.074 A 
ATOM      5  C   UNL d   1     -49.270  12.615  23.253  0.00  0.00     0.074 A 
ATOM      6  C   UNL d   1     -48.150  11.419  23.543  0.00  0.00     0.046 A 
ATOM      7  C   UNL d   1     -49.509  11.878  23.547  0.00  0.00     0.046 A 
ATOM      8  N   UNL d   1     -48.771  14.080  22.667  0.00  0.00    -0.258 N 
ATOM      9  O   UNL d   1     -47.417  13.621  22.663  0.00  0.00    -0.245 OA
ATOM     10  C   UNL d   1     -47.109  12.291  23.101  0.00  0.00     0.018 A 
ATOM     11  C   UNL d   1     -49.820  13.201  23.112  0.00  0.00     0.018 A 
ATOM     12  C   UNL d   1     -50.308  11.737  23.697  0.00  0.00     0.008 A 
ATOM     13  C   UNL d   1     -47.611  10.820  23.691  0.00  0.00     0.008 A 
ATOM     14  C   UNL d   1     -50.625  13.064  23.261  0.00  0.00     0.002 A 
ATOM     15  C   UNL d   1     -46.569  11.692  23.249  0.00  0.00     0.002 A 
ATOM     16  C   UNL d   1     -46.807  10.968  23.538  0.00  0.00     0.001 A 
ATOM     17  C   UNL d   1     -50.858  12.334  23.551  0.00  0.00     0.001 A 
ENDROOT
BRANCH   8  18
ATOM     18  C   UNL d   1     -49.578  13.942  22.816  0.00  0.00     0.085 C 
BRANCH  18  19
ATOM     19  C   UNL d   1     -50.097  14.567  22.780  0.00  0.00     0.019 C 
ATOM     20  C   UNL d   1     -50.581  14.640  22.115  0.00  0.00     0.002 C 
ENDBRANCH  18  19
ENDBRANCH   8  18
BRANCH   8  21
ATOM     21  C   UNL d   1     -48.521  14.807  22.375  0.00  0.00     0.085 C 
BRANCH  21  22
ATOM     22  C   UNL d   1     -47.864  15.191  22.711  0.00  0.00     0.019 C 
ATOM     23  C   UNL d   1     -47.445  15.744  22.287  0.00  0.00     0.002 C 
ENDBRANCH  21  22
ENDBRANCH   8  21
TORSDOF 4
ENDMDL
