MODEL 1
REMARK VINA RESULT:      76.2      0.000      0.000
REMARK  10 active torsions:
REMARK  status: ('A' for Active; 'I' for Inactive)
REMARK    1  A    between atoms: C_11  and  C_1 
REMARK    2  A    between atoms: C_21  and  N_5 
REMARK    3  A    between atoms: N_20  and  C_8 
REMARK    4  A    between atoms: C_9  and  C_11 
REMARK    5  A    between atoms: C_25  and  N_20 
REMARK    6  A    between atoms: C_28  and  C_21 
REMARK    7  A    between atoms: C_22  and  C_25 
REMARK    8  A    between atoms: C_26  and  C_22 
REMARK    9  A    between atoms: O_24  and  C_26 
REMARK   10  A    between atoms: C_27  and  O_24 
ROOT
ATOM      1  C   UNL d   1     -56.143 -99.584 -43.983  0.00  0.00     0.093 A 
ATOM      2  N   UNL d   1     -55.797-100.626 -44.911  0.00  0.00    -0.258 N 
ATOM      3  N   UNL d   1     -55.418-100.748 -43.528  0.00  0.00    -0.209 NA
ATOM      4  C   UNL d   1     -55.427-101.057 -44.295  0.00  0.00     0.152 A 
ATOM      5  C   UNL d   1     -56.156 -99.892 -44.765  0.00  0.00     0.269 A 
ATOM      6  C   UNL d   1     -55.774-100.012 -43.364  0.00  0.00     0.169 A 
ATOM      7  C   UNL d   1     -55.075-101.782 -44.454  0.00  0.00     0.035 A 
ATOM      8  C   UNL d   1     -55.806-100.935 -45.678  0.00  0.00     0.084 A 
ATOM      9  O   UNL d   1     -56.515 -99.475 -45.367  0.00  0.00    -0.266 OA
ATOM     10  C   UNL d   1     -55.449-101.666 -45.827  0.00  0.00     0.019 A 
ATOM     11  C   UNL d   1     -55.085-102.087 -45.218  0.00  0.00     0.005 A 
ATOM     12  C   UNL d   1     -54.712-102.204 -43.845  0.00  0.00     0.003 C 
ENDROOT
BRANCH   1  13
ATOM     13  C   UNL d   1     -56.493 -98.861 -43.821  0.00  0.00     0.019 C 
BRANCH  13  14
ATOM     14  C   UNL d   1     -57.297 -98.830 -43.637  0.00  0.00     0.088 A 
ATOM     15  C   UNL d   1     -57.917 -98.811 -44.182  0.00  0.00     0.272 A 
ATOM     16  N   UNL d   1     -58.628 -98.782 -43.763  0.00  0.00    -0.259 N 
ATOM     17  O   UNL d   1     -57.841 -98.819 -45.008  0.00  0.00    -0.266 OA
ATOM     18  C   UNL d   1     -58.443 -98.783 -42.951  0.00  0.00     0.153 A 
ATOM     19  S   UNL d   1     -57.619 -98.813 -42.883  0.00  0.00    -0.053 SA
ATOM     20  S   UNL d   1     -58.981 -98.759 -42.336  0.00  0.00    -0.052 SA
BRANCH  16  21
ATOM     21  C   UNL d   1     -59.385 -98.756 -44.082  0.00  0.00     0.084 C 
BRANCH  21  22
ATOM     22  C   UNL d   1     -59.485 -98.794 -44.905  0.00  0.00     0.019 C 
ATOM     23  C   UNL d   1     -59.423 -99.518 -45.297  0.00  0.00     0.002 C 
ENDBRANCH  21  22
ENDBRANCH  16  21
ENDBRANCH  13  14
ENDBRANCH   1  13
BRANCH   6  24
ATOM     24  N   UNL d   1     -55.764 -99.706 -42.600  0.00  0.00    -0.225 NA
BRANCH  24  25
ATOM     25  C   UNL d   1     -55.113 -99.819 -42.117  0.00  0.00     0.103 C 
BRANCH  25  26
ATOM     26  C   UNL d   1     -55.208-100.101 -41.349  0.00  0.00     0.047 C 
BRANCH  26  27
ATOM     27  C   UNL d   1     -54.712-100.689 -41.062  0.00  0.00     0.124 C 
BRANCH  27  28
ATOM     28  O   UNL d   1     -54.941-101.142 -40.413  0.00  0.00    -0.303 OA
BRANCH  28  29
ATOM     29  C   UNL d   1     -54.722-101.941 -40.366  0.00  0.00     0.123 C 
ATOM     30  C   UNL d   1     -54.967-102.469 -40.951  0.00  0.00     0.029 C 
ENDBRANCH  28  29
ENDBRANCH  27  28
ENDBRANCH  26  27
ENDBRANCH  25  26
ENDBRANCH  24  25
ENDBRANCH   6  24
TORSDOF 10
ENDMDL
