MODEL 1
REMARK VINA RESULT:      13.8      0.000      0.000
REMARK  3 active torsions:
REMARK  status: ('A' for Active; 'I' for Inactive)
REMARK       I    between atoms: C_2  and  N_1 
REMARK    1  A    between atoms: C_3  and  C_2 
REMARK    2  A    between atoms: S_5  and  C_3 
REMARK    3  A    between atoms: C_7  and  S_5 
ROOT
ATOM      1  C   UNL d   1      45.781 -16.545  44.092  0.00  0.00     0.125 C 
ENDROOT
BRANCH   1   2
ATOM      2  C   UNL d   1      45.355 -15.977  44.512  0.00  0.00     0.259 C 
ATOM      3  N   UNL d   1      45.592 -15.179  44.492  0.00  0.00    -0.268 N 
ATOM      4  C   UNL d   1      46.256 -14.967  44.049  0.00  0.00     0.110 A 
ATOM      5  C   UNL d   1      45.173 -14.604  44.907  0.00  0.00     0.110 A 
ATOM      6  C   UNL d   1      46.500 -14.179  44.023  0.00  0.00     0.142 A 
ATOM      7  O   UNL d   1      46.080 -13.604  44.439  0.00  0.00    -0.300 OA
ATOM      8  C   UNL d   1      45.417 -13.816  44.881  0.00  0.00     0.142 A 
ATOM      9  O   UNL d   1      44.689 -16.192  44.955  0.00  0.00    -0.267 OA
ENDBRANCH   1   2
BRANCH   1  10
ATOM     10  S   UNL d   1      45.961 -17.256  44.456  0.00  0.00    -0.095 SA
BRANCH  10  11
ATOM     11  C   UNL d   1      46.132 -17.920  43.997  0.00  0.00     0.029 A 
ATOM     12  C   UNL d   1      46.121 -17.866  43.174  0.00  0.00     0.007 A 
ATOM     13  C   UNL d   1      46.292 -18.530  42.715  0.00  0.00     0.012 A 
ATOM     14  C   UNL d   1      46.474 -19.247  43.079  0.00  0.00     0.058 A 
ATOM     15  C   UNL d   1      46.485 -19.301  43.902  0.00  0.00     0.012 A 
ATOM     16 CL   UNL d   1      46.647 -19.918  42.632  0.00  0.00    -0.082 Cl
ATOM     17  C   UNL d   1      46.314 -18.637  44.362  0.00  0.00     0.007 A 
ENDBRANCH  10  11
ENDBRANCH   1  10
TORSDOF 3
ENDMDL
MODEL 2
REMARK VINA RESULT:      16.5      2.291      4.253
REMARK  3 active torsions:
REMARK  status: ('A' for Active; 'I' for Inactive)
REMARK       I    between atoms: C_2  and  N_1 
REMARK    1  A    between atoms: C_3  and  C_2 
REMARK    2  A    between atoms: S_5  and  C_3 
REMARK    3  A    between atoms: C_7  and  S_5 
ROOT
ATOM      1  C   UNL d   1      46.104 -16.725  43.829  0.00  0.00     0.125 C 
ENDROOT
BRANCH   1   2
ATOM      2  C   UNL d   1      46.140 -17.491  44.133  0.00  0.00     0.259 C 
ATOM      3  N   UNL d   1      46.307 -18.132  43.629  0.00  0.00    -0.268 N 
ATOM      4  C   UNL d   1      46.436 -17.991  42.826  0.00  0.00     0.110 A 
ATOM      5  C   UNL d   1      46.345 -18.901  43.924  0.00  0.00     0.110 A 
ATOM      6  C   UNL d   1      46.603 -18.619  42.319  0.00  0.00     0.142 A 
ATOM      7  O   UNL d   1      46.641 -19.388  42.613  0.00  0.00    -0.300 OA
ATOM      8  C   UNL d   1      46.512 -19.530  43.415  0.00  0.00     0.142 A 
ATOM      9  O   UNL d   1      46.010 -17.630  44.939  0.00  0.00    -0.267 OA
ENDBRANCH   1   2
BRANCH   1  10
ATOM     10  S   UNL d   1      46.327 -16.097  44.304  0.00  0.00    -0.095 SA
BRANCH  10  11
ATOM     11  C   UNL d   1      45.828 -15.445  44.383  0.00  0.00     0.029 A 
ATOM     12  C   UNL d   1      45.112 -15.520  44.785  0.00  0.00     0.007 A 
ATOM     13  C   UNL d   1      44.613 -14.868  44.864  0.00  0.00     0.012 A 
ATOM     14  C   UNL d   1      44.831 -14.141  44.542  0.00  0.00     0.058 A 
ATOM     15  C   UNL d   1      45.548 -14.065  44.140  0.00  0.00     0.012 A 
ATOM     16 CL   UNL d   1      44.342 -13.481  44.614  0.00  0.00    -0.082 Cl
ATOM     17  C   UNL d   1      46.047 -14.717  44.061  0.00  0.00     0.007 A 
ENDBRANCH  10  11
ENDBRANCH   1  10
TORSDOF 3
ENDMDL
