MODEL 1
REMARK VINA RESULT:      -5.2      0.000      0.000
REMARK  4 active torsions:
REMARK  status: ('A' for Active; 'I' for Inactive)
REMARK    1  A    between atoms: C_6  and  C_1 
REMARK    2  A    between atoms: C_3  and  C_5 
REMARK    3  A    between atoms: C_5  and  C_6 
REMARK    4  A    between atoms: C_17  and  C_13 
ROOT
ATOM      1  C   UNL d   1      57.964  -0.246  30.339  0.00  0.00     0.202 C 
ATOM      2  O   UNL d   1      57.818  -1.063  30.451  0.00  0.00    -0.286 OA
ENDROOT
BRANCH   1   3
ATOM      3  C   UNL d   1      58.627  -0.019  29.871  0.00  0.00     0.078 A 
ATOM      4  C   UNL d   1      58.502   0.137  29.043  0.00  0.00     0.202 A 
ATOM      5  C   UNL d   1      59.152   0.359  28.586  0.00  0.00     0.084 A 
ATOM      6  O   UNL d   1      57.748   0.066  28.717  0.00  0.00    -0.286 OA
ATOM      7  C   UNL d   1      59.897   0.428  28.913  0.00  0.00     0.199 A 
ATOM      8  C   UNL d   1      60.019   0.274  29.727  0.00  0.00     0.039 A 
ATOM      9  O   UNL d   1      60.556   0.652  28.455  0.00  0.00    -0.286 OA
ATOM     10  C   UNL d   1      59.373   0.048  30.208  0.00  0.00     0.010 A 
BRANCH   8  11
ATOM     11  C   UNL d   1      60.771   0.343  30.063  0.00  0.00     0.003 C 
ATOM     12  C   UNL d   1      60.866   0.639  30.847  0.00  0.00     0.000 C 
ENDBRANCH   8  11
ENDBRANCH   1   3
BRANCH   1  13
ATOM     13  C   UNL d   1      57.472   0.323  30.678  0.00  0.00     0.081 C 
BRANCH  13  14
ATOM     14  C   UNL d   1      57.027   0.129  31.359  0.00  0.00     0.166 A 
ATOM     15  N   UNL d   1      56.696  -0.600  31.522  0.00  0.00    -0.225 NA
ATOM     16  C   UNL d   1      56.306  -0.545  32.252  0.00  0.00     0.101 A 
ATOM     17  C   UNL d   1      55.881  -1.100  32.686  0.00  0.00     0.021 A 
ATOM     18  C   UNL d   1      56.401   0.219  32.532  0.00  0.00     0.101 A 
ATOM     19  C   UNL d   1      55.541  -0.904  33.410  0.00  0.00     0.002 A 
ATOM     20  C   UNL d   1      55.638  -0.127  33.693  0.00  0.00     0.002 A 
ATOM     21  C   UNL d   1      56.066   0.432  33.256  0.00  0.00     0.021 A 
ATOM     22  N   UNL d   1      56.844   0.647  31.990  0.00  0.00    -0.225 NA
ENDBRANCH  13  14
ENDBRANCH   1  13
TORSDOF 4
ENDMDL
MODEL 2
REMARK VINA RESULT:      -4.7      1.445      4.583
REMARK  4 active torsions:
REMARK  status: ('A' for Active; 'I' for Inactive)
REMARK    1  A    between atoms: C_6  and  C_1 
REMARK    2  A    between atoms: C_3  and  C_5 
REMARK    3  A    between atoms: C_5  and  C_6 
REMARK    4  A    between atoms: C_17  and  C_13 
ROOT
ATOM      1  C   UNL d   1      57.161  -0.460  31.483  0.00  0.00     0.202 C 
ATOM      2  O   UNL d   1      57.468  -1.196  31.230  0.00  0.00    -0.286 OA
ENDROOT
BRANCH   1   3
ATOM      3  C   UNL d   1      56.750  -0.430  32.218  0.00  0.00     0.078 A 
ATOM      4  C   UNL d   1      56.113  -0.982  32.347  0.00  0.00     0.202 A 
ATOM      5  C   UNL d   1      55.712  -0.952  33.067  0.00  0.00     0.084 A 
ATOM      6  O   UNL d   1      55.912  -1.527  31.762  0.00  0.00    -0.286 OA
ATOM      7  C   UNL d   1      55.914  -0.410  33.644  0.00  0.00     0.199 A 
ATOM      8  C   UNL d   1      56.540   0.133  33.516  0.00  0.00     0.039 A 
ATOM      9  O   UNL d   1      55.511  -0.376  34.373  0.00  0.00    -0.286 OA
ATOM     10  C   UNL d   1      56.960   0.118  32.792  0.00  0.00     0.010 A 
BRANCH   8  11
ATOM     11  C   UNL d   1      56.748   0.682  34.096  0.00  0.00     0.003 C 
ATOM     12  C   UNL d   1      57.514   0.663  34.451  0.00  0.00     0.000 C 
ENDBRANCH   8  11
ENDBRANCH   1   3
BRANCH   1  13
ATOM     13  C   UNL d   1      57.257   0.220  31.026  0.00  0.00     0.081 C 
BRANCH  13  14
ATOM     14  C   UNL d   1      57.905   0.273  30.499  0.00  0.00     0.166 A 
ATOM     15  N   UNL d   1      58.660   0.518  30.693  0.00  0.00    -0.225 NA
ATOM     16  C   UNL d   1      59.123   0.485  30.006  0.00  0.00     0.101 A 
ATOM     17  C   UNL d   1      59.915   0.665  29.872  0.00  0.00     0.021 A 
ATOM     18  C   UNL d   1      58.647   0.218  29.394  0.00  0.00     0.101 A 
ATOM     19  C   UNL d   1      60.250   0.584  29.124  0.00  0.00     0.002 A 
ATOM     20  C   UNL d   1      59.765   0.313  28.504  0.00  0.00     0.002 A 
ATOM     21  C   UNL d   1      58.968   0.131  28.638  0.00  0.00     0.021 A 
ATOM     22  N   UNL d   1      57.892   0.083  29.684  0.00  0.00    -0.225 NA
ENDBRANCH  13  14
ENDBRANCH   1  13
TORSDOF 4
ENDMDL
MODEL 3
REMARK VINA RESULT:      -4.7      1.321      1.713
REMARK  4 active torsions:
REMARK  status: ('A' for Active; 'I' for Inactive)
REMARK    1  A    between atoms: C_6  and  C_1 
REMARK    2  A    between atoms: C_3  and  C_5 
REMARK    3  A    between atoms: C_5  and  C_6 
REMARK    4  A    between atoms: C_17  and  C_13 
ROOT
ATOM      1  C   UNL d   1      57.879  -0.136  30.470  0.00  0.00     0.202 C 
ATOM      2  O   UNL d   1      57.183   0.152  30.106  0.00  0.00    -0.286 OA
ENDROOT
BRANCH   1   3
ATOM      3  C   UNL d   1      58.456  -0.513  29.986  0.00  0.00     0.078 A 
ATOM      4  C   UNL d   1      59.167  -0.084  29.796  0.00  0.00     0.202 A 
ATOM      5  C   UNL d   1      59.731  -0.454  29.322  0.00  0.00     0.084 A 
ATOM      6  O   UNL d   1      59.279   0.681  30.084  0.00  0.00    -0.286 OA
ATOM      7  C   UNL d   1      59.617  -1.211  29.039  0.00  0.00     0.199 A 
ATOM      8  C   UNL d   1      58.917  -1.633  29.225  0.00  0.00     0.039 A 
ATOM      9  O   UNL d   1      60.184  -1.590  28.559  0.00  0.00    -0.286 OA
ATOM     10  C   UNL d   1      58.333  -1.275  29.705  0.00  0.00     0.010 A 
BRANCH   8  11
ATOM     11  C   UNL d   1      58.797  -2.399  28.942  0.00  0.00     0.003 C 
ATOM     12  C   UNL d   1      58.090  -2.820  29.128  0.00  0.00     0.000 C 
ENDBRANCH   8  11
ENDBRANCH   1   3
BRANCH   1  13
ATOM     13  C   UNL d   1      57.999  -0.053  31.282  0.00  0.00     0.081 C 
BRANCH  13  14
ATOM     14  C   UNL d   1      57.341  -0.066  31.798  0.00  0.00     0.166 A 
ATOM     15  N   UNL d   1      57.103  -0.701  32.255  0.00  0.00    -0.225 NA
ATOM     16  C   UNL d   1      56.429  -0.471  32.679  0.00  0.00     0.101 A 
ATOM     17  C   UNL d   1      55.959  -0.878  33.218  0.00  0.00     0.021 A 
ATOM     18  C   UNL d   1      56.258   0.305  32.480  0.00  0.00     0.101 A 
ATOM     19  C   UNL d   1      55.306  -0.520  33.571  0.00  0.00     0.002 A 
ATOM     20  C   UNL d   1      55.134   0.269  33.367  0.00  0.00     0.002 A 
ATOM     21  C   UNL d   1      55.607   0.679  32.824  0.00  0.00     0.021 A 
ATOM     22  N   UNL d   1      56.813   0.568  31.937  0.00  0.00    -0.225 NA
ENDBRANCH  13  14
ENDBRANCH   1  13
TORSDOF 4
ENDMDL
MODEL 4
REMARK VINA RESULT:      -3.9      1.791      4.856
REMARK  4 active torsions:
REMARK  status: ('A' for Active; 'I' for Inactive)
REMARK    1  A    between atoms: C_6  and  C_1 
REMARK    2  A    between atoms: C_3  and  C_5 
REMARK    3  A    between atoms: C_5  and  C_6 
REMARK    4  A    between atoms: C_17  and  C_13 
ROOT
ATOM      1  C   UNL d   1      57.346   0.353  32.211  0.00  0.00     0.202 C 
ATOM      2  O   UNL d   1      58.120   0.671  32.172  0.00  0.00    -0.286 OA
ENDROOT
BRANCH   1   3
ATOM      3  C   UNL d   1      56.917   0.434  32.932  0.00  0.00     0.078 A 
ATOM      4  C   UNL d   1      57.353   0.603  33.644  0.00  0.00     0.202 A 
ATOM      5  C   UNL d   1      56.932   0.682  34.349  0.00  0.00     0.084 A 
ATOM      6  O   UNL d   1      58.174   0.682  33.619  0.00  0.00    -0.286 OA
ATOM      7  C   UNL d   1      56.119   0.602  34.369  0.00  0.00     0.199 A 
ATOM      8  C   UNL d   1      55.691   0.437  33.668  0.00  0.00     0.039 A 
ATOM      9  O   UNL d   1      55.690   0.682  35.079  0.00  0.00    -0.286 OA
ATOM     10  C   UNL d   1      56.100   0.353  32.943  0.00  0.00     0.010 A 
BRANCH   8  11
ATOM     11  C   UNL d   1      54.870   0.356  33.683  0.00  0.00     0.003 C 
ATOM     12  C   UNL d   1      54.507  -0.379  33.482  0.00  0.00     0.000 C 
ENDBRANCH   8  11
ENDBRANCH   1   3
BRANCH   1  13
ATOM     13  C   UNL d   1      57.012  -0.030  31.561  0.00  0.00     0.081 C 
BRANCH  13  14
ATOM     14  C   UNL d   1      57.467  -0.136  30.867  0.00  0.00     0.166 A 
ATOM     15  N   UNL d   1      57.721   0.459  30.367  0.00  0.00    -0.225 NA
ATOM     16  C   UNL d   1      58.152   0.106  29.753  0.00  0.00     0.101 A 
ATOM     17  C   UNL d   1      58.534   0.431  29.099  0.00  0.00     0.021 A 
ATOM     18  C   UNL d   1      58.159  -0.703  29.881  0.00  0.00     0.101 A 
ATOM     19  C   UNL d   1      58.932  -0.046  28.558  0.00  0.00     0.002 A 
ATOM     20  C   UNL d   1      58.938  -0.869  28.690  0.00  0.00     0.002 A 
ATOM     21  C   UNL d   1      58.554  -1.195  29.348  0.00  0.00     0.021 A 
ATOM     22  N   UNL d   1      57.740  -0.867  30.566  0.00  0.00    -0.225 NA
ENDBRANCH  13  14
ENDBRANCH   1  13
TORSDOF 4
ENDMDL
MODEL 5
REMARK VINA RESULT:      -2.4      9.660      9.901
REMARK  4 active torsions:
REMARK  status: ('A' for Active; 'I' for Inactive)
REMARK    1  A    between atoms: C_6  and  C_1 
REMARK    2  A    between atoms: C_3  and  C_5 
REMARK    3  A    between atoms: C_5  and  C_6 
REMARK    4  A    between atoms: C_17  and  C_13 
ROOT
ATOM      1  C   UNL d   1      58.515  -9.568  32.593  0.00  0.00     0.202 C 
ATOM      2  O   UNL d   1      57.841  -9.248  32.974  0.00  0.00    -0.286 OA
ENDROOT
BRANCH   1   3
ATOM      3  C   UNL d   1      58.507  -9.628  31.753  0.00  0.00     0.078 A 
ATOM      4  C   UNL d   1      57.753  -9.620  31.355  0.00  0.00     0.202 A 
ATOM      5  C   UNL d   1      57.747  -9.679  30.532  0.00  0.00     0.084 A 
ATOM      6  O   UNL d   1      57.055  -9.555  31.789  0.00  0.00    -0.286 OA
ATOM      7  C   UNL d   1      58.440  -9.744  30.105  0.00  0.00     0.199 A 
ATOM      8  C   UNL d   1      59.181  -9.752  30.497  0.00  0.00     0.039 A 
ATOM      9  O   UNL d   1      58.438  -9.804  29.274  0.00  0.00    -0.286 OA
ATOM     10  C   UNL d   1      59.208  -9.693  31.331  0.00  0.00     0.010 A 
BRANCH   8  11
ATOM     11  C   UNL d   1      59.884  -9.817  30.071  0.00  0.00     0.003 C 
ATOM     12  C   UNL d   1      60.621  -9.599  30.420  0.00  0.00     0.000 C 
ENDBRANCH   8  11
ENDBRANCH   1   3
BRANCH   1  13
ATOM     13  C   UNL d   1      59.170  -9.818  33.028  0.00  0.00     0.081 C 
BRANCH  13  14
ATOM     14  C   UNL d   1      59.335  -9.459  33.766  0.00  0.00     0.166 A 
ATOM     15  N   UNL d   1      59.894  -8.879  33.900  0.00  0.00    -0.225 NA
ATOM     16  C   UNL d   1      59.871  -8.685  34.706  0.00  0.00     0.101 A 
ATOM     17  C   UNL d   1      60.304  -8.145  35.150  0.00  0.00     0.021 A 
ATOM     18  C   UNL d   1      59.296  -9.149  35.060  0.00  0.00     0.101 A 
ATOM     19  C   UNL d   1      60.174  -8.054  35.958  0.00  0.00     0.002 A 
ATOM     20  C   UNL d   1      59.588  -8.527  36.316  0.00  0.00     0.002 A 
ATOM     21  C   UNL d   1      59.152  -9.071  35.870  0.00  0.00     0.021 A 
ATOM     22  N   UNL d   1      58.956  -9.632  34.491  0.00  0.00    -0.225 NA
ENDBRANCH  13  14
ENDBRANCH   1  13
TORSDOF 4
ENDMDL
MODEL 6
REMARK VINA RESULT:      -2.3      1.876      4.672
REMARK  4 active torsions:
REMARK  status: ('A' for Active; 'I' for Inactive)
REMARK    1  A    between atoms: C_6  and  C_1 
REMARK    2  A    between atoms: C_3  and  C_5 
REMARK    3  A    between atoms: C_5  and  C_6 
REMARK    4  A    between atoms: C_17  and  C_13 
ROOT
ATOM      1  C   UNL d   1      57.388  -0.934  30.860  0.00  0.00     0.202 C 
ATOM      2  O   UNL d   1      57.129  -1.668  30.551  0.00  0.00    -0.286 OA
ENDROOT
BRANCH   1   3
ATOM      3  C   UNL d   1      56.953  -0.593  31.496  0.00  0.00     0.078 A 
ATOM      4  C   UNL d   1      56.755   0.235  31.451  0.00  0.00     0.202 A 
ATOM      5  C   UNL d   1      56.329   0.567  32.074  0.00  0.00     0.084 A 
ATOM      6  O   UNL d   1      56.987   0.682  30.799  0.00  0.00    -0.286 OA
ATOM      7  C   UNL d   1      56.101   0.120  32.719  0.00  0.00     0.199 A 
ATOM      8  C   UNL d   1      56.296  -0.694  32.762  0.00  0.00     0.039 A 
ATOM      9  O   UNL d   1      55.670   0.452  33.350  0.00  0.00    -0.286 OA
ATOM     10  C   UNL d   1      56.727  -1.049  32.140  0.00  0.00     0.010 A 
BRANCH   8  11
ATOM     11  C   UNL d   1      56.067  -1.149  33.411  0.00  0.00     0.003 C 
ATOM     12  C   UNL d   1      55.453  -1.723  33.338  0.00  0.00     0.000 C 
ENDBRANCH   8  11
ENDBRANCH   1   3
BRANCH   1  13
ATOM     13  C   UNL d   1      58.052  -0.554  30.550  0.00  0.00     0.081 C 
BRANCH  13  14
ATOM     14  C   UNL d   1      58.584  -0.983  30.068  0.00  0.00     0.166 A 
ATOM     15  N   UNL d   1      59.251  -0.679  29.706  0.00  0.00    -0.225 NA
ATOM     16  C   UNL d   1      59.614  -1.295  29.285  0.00  0.00     0.101 A 
ATOM     17  C   UNL d   1      60.294  -1.312  28.822  0.00  0.00     0.021 A 
ATOM     18  C   UNL d   1      59.166  -1.972  29.393  0.00  0.00     0.101 A 
ATOM     19  C   UNL d   1      60.542  -2.006  28.455  0.00  0.00     0.002 A 
ATOM     20  C   UNL d   1      60.085  -2.694  28.566  0.00  0.00     0.002 A 
ATOM     21  C   UNL d   1      59.401  -2.677  29.032  0.00  0.00     0.021 A 
ATOM     22  N   UNL d   1      58.527  -1.795  29.875  0.00  0.00    -0.225 NA
ENDBRANCH  13  14
ENDBRANCH   1  13
TORSDOF 4
ENDMDL
