MODEL 1
REMARK VINA RESULT:     116.8      0.000      0.000
REMARK  6 active torsions:
REMARK  status: ('A' for Active; 'I' for Inactive)
REMARK    1  A    between atoms: C_10  and  N_4 
REMARK    2  A    between atoms: C_12  and  C_9 
REMARK    3  A    between atoms: C_15  and  C_10 
REMARK    4  A    between atoms: C_17  and  N_11 
REMARK    5  A    between atoms: N_13  and  C_12 
REMARK    6  A    between atoms: O_30  and  C_27 
ROOT
ATOM      1  C   UNL d   1     -47.381  30.284  35.779  0.00  0.00     0.157 A 
ATOM      2  C   UNL d   1     -47.671  29.576  36.083  0.00  0.00     0.174 A 
ATOM      3  N   UNL d   1     -47.599  29.418  36.892  0.00  0.00    -0.240 N 
ATOM      4  N   UNL d   1     -47.525  30.296  34.968  0.00  0.00    -0.283 N 
ATOM      5  N   UNL d   1     -46.950  30.673  37.080  0.00  0.00    -0.223 N 
ATOM      6  C   UNL d   1     -47.240  29.963  37.388  0.00  0.00     0.343 A 
ATOM      7  C   UNL d   1     -47.016  30.845  36.272  0.00  0.00     0.287 A 
ATOM      8  N   UNL d   1     -47.996  29.147  35.459  0.00  0.00    -0.207 NA
ATOM      9  C   UNL d   1     -47.906  29.593  34.770  0.00  0.00     0.167 A 
ATOM     10  O   UNL d   1     -47.168  29.803  38.198  0.00  0.00    -0.245 OA
ATOM     11  O   UNL d   1     -46.728  31.547  35.967  0.00  0.00    -0.265 OA
ATOM     12  C   UNL d   1     -47.889  28.707  37.201  0.00  0.00     0.105 C 
ATOM     13  C   UNL d   1     -46.588  31.224  37.581  0.00  0.00     0.107 C 
ENDROOT
BRANCH   9  14
ATOM     14  C   UNL d   1     -48.154  29.370  34.013  0.00  0.00     0.118 C 
BRANCH  14  15
ATOM     15  N   UNL d   1     -48.710  28.777  33.923  0.00  0.00    -0.297 N 
ATOM     16  C   UNL d   1     -49.516  28.954  33.910  0.00  0.00     0.100 A 
ATOM     17  C   UNL d   1     -50.084  28.360  33.819  0.00  0.00     0.100 A 
ATOM     18  N   UNL d   1     -49.839  27.569  33.739  0.00  0.00    -0.301 N 
ATOM     19  C   UNL d   1     -49.031  27.385  33.751  0.00  0.00     0.100 A 
ATOM     20  C   UNL d   1     -48.470  27.989  33.843  0.00  0.00     0.100 A 
BRANCH  18  21
ATOM     21  C   UNL d   1     -50.402  26.974  33.648  0.00  0.00     0.064 A 
ATOM     22  C   UNL d   1     -51.165  27.168  33.424  0.00  0.00     0.020 A 
ATOM     23  C   UNL d   1     -51.735  26.570  33.331  0.00  0.00     0.026 A 
ATOM     24  C   UNL d   1     -51.528  25.781  33.466  0.00  0.00     0.094 A 
ATOM     25  C   UNL d   1     -50.752  25.595  33.693  0.00  0.00     0.026 A 
ATOM     26  C   UNL d   1     -50.189  26.190  33.784  0.00  0.00     0.020 A 
BRANCH  24  27
ATOM     27  O   UNL d   1     -52.081  25.180  33.378  0.00  0.00    -0.328 OA
ATOM     28  C   UNL d   1     -51.823  24.396  33.360  0.00  0.00     0.181 C 
ENDBRANCH  24  27
ENDBRANCH  18  21
ENDBRANCH  14  15
ENDBRANCH   9  14
BRANCH   4  29
ATOM     29  C   UNL d   1     -47.324  30.906  34.445  0.00  0.00     0.082 C 
BRANCH  29  30
ATOM     30  C   UNL d   1     -47.833  31.535  34.346  0.00  0.00     0.018 A 
ATOM     31  C   UNL d   1     -47.613  32.147  33.852  0.00  0.00     0.001 A 
ATOM     32  C   UNL d   1     -46.893  32.139  33.455  0.00  0.00     0.000 C 
ATOM     33  C   UNL d   1     -48.131  32.792  33.748  0.00  0.00     0.000 A 
ATOM     34  C   UNL d   1     -48.856  32.811  34.140  0.00  0.00     0.000 A 
ATOM     35  C   UNL d   1     -49.071  32.194  34.635  0.00  0.00     0.000 A 
ATOM     36  C   UNL d   1     -48.562  31.555  34.740  0.00  0.00     0.002 A 
ENDBRANCH  29  30
ENDBRANCH   4  29
TORSDOF 6
ENDMDL
MODEL 2
REMARK VINA RESULT:     117.8      1.121      2.659
REMARK  6 active torsions:
REMARK  status: ('A' for Active; 'I' for Inactive)
REMARK    1  A    between atoms: C_10  and  N_4 
REMARK    2  A    between atoms: C_12  and  C_9 
REMARK    3  A    between atoms: C_15  and  C_10 
REMARK    4  A    between atoms: C_17  and  N_11 
REMARK    5  A    between atoms: N_13  and  C_12 
REMARK    6  A    between atoms: O_30  and  C_27 
ROOT
ATOM      1  C   UNL d   1     -47.769  30.978  34.631  0.00  0.00     0.157 A 
ATOM      2  C   UNL d   1     -48.422  30.821  34.155  0.00  0.00     0.174 A 
ATOM      3  N   UNL d   1     -48.832  31.449  33.802  0.00  0.00    -0.240 N 
ATOM      4  N   UNL d   1     -47.472  30.261  34.907  0.00  0.00    -0.283 N 
ATOM      5  N   UNL d   1     -47.931  32.375  34.404  0.00  0.00    -0.223 N 
ATOM      6  C   UNL d   1     -48.588  32.221  33.925  0.00  0.00     0.343 A 
ATOM      7  C   UNL d   1     -47.512  31.758  34.764  0.00  0.00     0.287 A 
ATOM      8  N   UNL d   1     -48.532  30.005  34.135  0.00  0.00    -0.207 NA
ATOM      9  C   UNL d   1     -47.944  29.659  34.600  0.00  0.00     0.167 A 
ATOM     10  O   UNL d   1     -48.998  32.848  33.572  0.00  0.00    -0.245 OA
ATOM     11  O   UNL d   1     -46.863  31.909  35.237  0.00  0.00    -0.265 OA
ATOM     12  C   UNL d   1     -49.488  31.295  33.323  0.00  0.00     0.105 C 
ATOM     13  C   UNL d   1     -47.684  33.156  34.529  0.00  0.00     0.107 C 
ENDROOT
BRANCH   9  14
ATOM     14  C   UNL d   1     -47.847  28.849  34.734  0.00  0.00     0.118 C 
BRANCH  14  15
ATOM     15  N   UNL d   1     -48.442  28.326  34.530  0.00  0.00    -0.297 N 
ATOM     16  C   UNL d   1     -48.999  28.084  35.089  0.00  0.00     0.100 A 
ATOM     17  C   UNL d   1     -49.604  27.556  34.891  0.00  0.00     0.100 A 
ATOM     18  N   UNL d   1     -49.652  27.262  34.115  0.00  0.00    -0.301 N 
ATOM     19  C   UNL d   1     -49.095  27.501  33.549  0.00  0.00     0.100 A 
ATOM     20  C   UNL d   1     -48.493  28.031  33.759  0.00  0.00     0.100 A 
BRANCH  18  21
ATOM     21  C   UNL d   1     -50.253  26.735  33.914  0.00  0.00     0.064 A 
ATOM     22  C   UNL d   1     -51.026  27.001  33.869  0.00  0.00     0.020 A 
ATOM     23  C   UNL d   1     -51.635  26.472  33.666  0.00  0.00     0.026 A 
ATOM     24  C   UNL d   1     -51.456  25.680  33.510  0.00  0.00     0.094 A 
ATOM     25  C   UNL d   1     -50.669  25.421  33.558  0.00  0.00     0.026 A 
ATOM     26  C   UNL d   1     -50.067  25.948  33.759  0.00  0.00     0.020 A 
BRANCH  24  27
ATOM     27  O   UNL d   1     -52.047  25.147  33.308  0.00  0.00    -0.328 OA
ATOM     28  C   UNL d   1     -52.648  24.988  33.851  0.00  0.00     0.181 C 
ENDBRANCH  24  27
ENDBRANCH  18  21
ENDBRANCH  14  15
ENDBRANCH   9  14
BRANCH   4  29
ATOM     29  C   UNL d   1     -46.817  30.162  35.404  0.00  0.00     0.082 C 
BRANCH  29  30
ATOM     30  C   UNL d   1     -46.933  30.039  36.201  0.00  0.00     0.018 A 
ATOM     31  C   UNL d   1     -46.433  29.529  36.598  0.00  0.00     0.001 A 
ATOM     32  C   UNL d   1     -45.820  29.141  36.210  0.00  0.00     0.000 C 
ATOM     33  C   UNL d   1     -46.548  29.400  37.414  0.00  0.00     0.000 A 
ATOM     34  C   UNL d   1     -47.159  29.783  37.814  0.00  0.00     0.000 A 
ATOM     35  C   UNL d   1     -47.657  30.293  37.410  0.00  0.00     0.000 A 
ATOM     36  C   UNL d   1     -47.546  30.423  36.604  0.00  0.00     0.002 A 
ENDBRANCH  29  30
ENDBRANCH   4  29
TORSDOF 6
ENDMDL
