MODEL 1
REMARK VINA RESULT:      39.0      0.000      0.000
REMARK  4 active torsions:
REMARK  status: ('A' for Active; 'I' for Inactive)
REMARK    1  A    between atoms: C_2  and  C_3 
REMARK    2  A    between atoms: N_4  and  C_2 
REMARK    3  A    between atoms: C_12  and  N_4 
REMARK    4  A    between atoms: N_8  and  C_7 
ROOT
ATOM      1  C   UNL d   1     -54.732-101.518 -40.102  0.00  0.00     0.153 C 
ATOM      2  S   UNL d   1     -54.739-100.786 -39.723  0.00  0.00    -0.056 SA
ENDROOT
BRANCH   1   3
ATOM      3  C   UNL d   1     -54.729-101.551 -40.925  0.00  0.00     0.109 A 
ATOM      4  N   UNL d   1     -54.733-100.852 -41.368  0.00  0.00    -0.243 NA
ATOM      5  C   UNL d   1     -54.730-100.885 -42.190  0.00  0.00     0.081 A 
ATOM      6  C   UNL d   1     -54.723-101.615 -42.574  0.00  0.00     0.018 A 
ATOM      7  C   UNL d   1     -54.734-100.185 -42.636  0.00  0.00     0.019 A 
ATOM      8  C   UNL d   1     -54.719-102.316 -42.138  0.00  0.00     0.003 A 
ATOM      9  C   UNL d   1     -54.720-101.645 -43.404  0.00  0.00     0.002 A 
ATOM     10  C   UNL d   1     -54.722-102.285 -41.312  0.00  0.00     0.021 A 
ATOM     11  C   UNL d   1     -54.725-100.948 -43.842  0.00  0.00     0.000 A 
ATOM     12  C   UNL d   1     -54.732-100.218 -43.458  0.00  0.00     0.002 A 
ENDBRANCH   1   3
BRANCH   1  13
ATOM     13  N   UNL d   1     -54.728-102.216 -39.662  0.00  0.00    -0.233 NA
BRANCH  13  14
ATOM     14  C   UNL d   1     -54.779-102.183 -38.843  0.00  0.00     0.083 A 
ATOM     15  C   UNL d   1     -54.730-101.450 -38.460  0.00  0.00     0.021 A 
ATOM     16  C   UNL d   1     -54.782-101.419 -37.639  0.00  0.00     0.019 A 
ATOM     17  C   UNL d   1     -54.882-102.121 -37.201  0.00  0.00     0.064 A 
ATOM     18  C   UNL d   1     -54.929-102.846 -37.587  0.00  0.00     0.019 A 
ATOM     19  C   UNL d   1     -54.878-102.877 -38.409  0.00  0.00     0.021 A 
BRANCH  17  20
ATOM     20  N   UNL d   1     -54.933-102.084 -36.369  0.00  0.00    -0.301 N 
ATOM     21  C   UNL d   1     -54.988-101.357 -36.001  0.00  0.00     0.100 C 
ATOM     22  C   UNL d   1     -54.929-102.772 -35.925  0.00  0.00     0.100 C 
ENDBRANCH  17  20
ENDBRANCH  13  14
ENDBRANCH   1  13
TORSDOF 4
ENDMDL
