MODEL 1
REMARK VINA RESULT:      38.8      0.000      0.000
REMARK  5 active torsions:
REMARK  status: ('A' for Active; 'I' for Inactive)
REMARK    1  A    between atoms: C_6  and  S_1 
REMARK    2  A    between atoms: N_7  and  S_1 
REMARK    3  A    between atoms: C_15  and  N_7 
REMARK    4  A    between atoms: O_21  and  C_16 
REMARK    5  A    between atoms: C_22  and  O_21 
ROOT
ATOM      1  S   UNL d   1      45.951 -18.392  40.836  0.00  0.00     0.327 S 
ATOM      2  O   UNL d   1      46.504 -18.298  40.235  0.00  0.00    -0.186 OA
ATOM      3  O   UNL d   1      45.216 -18.031  40.779  0.00  0.00    -0.186 OA
ENDROOT
BRANCH   1   4
ATOM      4  C   UNL d   1      46.133 -18.848  41.494  0.00  0.00     0.118 A 
ATOM      5  C   UNL d   1      46.093 -18.517  42.243  0.00  0.00     0.035 A 
ATOM      6  C   UNL d   1      46.275 -18.973  42.910  0.00  0.00     0.105 A 
ATOM      7  N   UNL d   1      46.285 -18.800  43.716  0.00  0.00    -0.189 NA
ATOM      8  C   UNL d   1      46.500 -19.768  42.817  0.00  0.00     0.104 A 
ATOM      9  C   UNL d   1      46.516 -19.487  44.127  0.00  0.00     0.369 A 
ATOM     10  O   UNL d   1      46.598 -19.559  44.942  0.00  0.00    -0.242 OA
ATOM     11  N   UNL d   1      46.647 -20.080  43.566  0.00  0.00    -0.189 NA
ATOM     12  C   UNL d   1      46.540 -20.098  42.058  0.00  0.00     0.022 A 
ATOM     13  C   UNL d   1      46.356 -19.635  41.401  0.00  0.00     0.016 A 
ENDBRANCH   1   4
BRANCH   1  14
ATOM     14  N   UNL d   1      45.761 -17.935  40.181  0.00  0.00    -0.317 NA
BRANCH  14  15
ATOM     15  C   UNL d   1      45.566 -17.467  39.513  0.00  0.00     0.146 A 
ATOM     16  C   UNL d   1      44.770 -17.396  39.284  0.00  0.00     0.035 A 
ATOM     17  C   UNL d   1      44.581 -16.933  38.624  0.00  0.00     0.027 A 
ATOM     18  C   UNL d   1      45.179 -16.550  38.202  0.00  0.00     0.100 A 
ATOM     19  C   UNL d   1      45.963 -16.627  38.438  0.00  0.00     0.027 A 
ATOM     20  C   UNL d   1      46.154 -17.087  39.095  0.00  0.00     0.035 A 
BRANCH  18  21
ATOM     21  O   UNL d   1      44.994 -16.088  37.544  0.00  0.00    -0.305 OA
BRANCH  21  22
ATOM     22  C   UNL d   1      44.234 -16.068  37.257  0.00  0.00     0.123 C 
ATOM     23  C   UNL d   1      44.097 -15.884  36.465  0.00  0.00     0.029 C 
ENDBRANCH  21  22
ENDBRANCH  18  21
ENDBRANCH  14  15
ENDBRANCH   1  14
TORSDOF 5
ENDMDL
MODEL 2
REMARK VINA RESULT:      41.0      1.463      5.577
REMARK  5 active torsions:
REMARK  status: ('A' for Active; 'I' for Inactive)
REMARK    1  A    between atoms: C_6  and  S_1 
REMARK    2  A    between atoms: N_7  and  S_1 
REMARK    3  A    between atoms: C_15  and  N_7 
REMARK    4  A    between atoms: O_21  and  C_16 
REMARK    5  A    between atoms: C_22  and  O_21 
ROOT
ATOM      1  S   UNL d   1      45.690 -17.442  39.529  0.00  0.00     0.327 S 
ATOM      2  O   UNL d   1      45.104 -17.895  39.886  0.00  0.00    -0.186 OA
ATOM      3  O   UNL d   1      46.458 -17.459  39.820  0.00  0.00    -0.186 OA
ENDROOT
BRANCH   1   4
ATOM      4  C   UNL d   1      45.509 -16.972  38.881  0.00  0.00     0.118 A 
ATOM      5  C   UNL d   1      44.748 -16.975  38.574  0.00  0.00     0.035 A 
ATOM      6  C   UNL d   1      44.561 -16.503  37.920  0.00  0.00     0.105 A 
ATOM      7  N   UNL d   1      43.862 -16.391  37.497  0.00  0.00    -0.189 NA
ATOM      8  C   UNL d   1      45.147 -16.024  37.576  0.00  0.00     0.104 A 
ATOM      9  C   UNL d   1      44.011 -15.842  36.889  0.00  0.00     0.369 A 
ATOM     10  O   UNL d   1      43.465 -15.572  36.335  0.00  0.00    -0.242 OA
ATOM     11  N   UNL d   1      44.805 -15.620  36.943  0.00  0.00    -0.189 NA
ATOM     12  C   UNL d   1      45.913 -16.023  37.890  0.00  0.00     0.022 A 
ATOM     13  C   UNL d   1      46.089 -16.497  38.541  0.00  0.00     0.016 A 
ENDBRANCH   1   4
BRANCH   1  14
ATOM     14  N   UNL d   1      45.880 -17.909  40.176  0.00  0.00    -0.317 NA
BRANCH  14  15
ATOM     15  C   UNL d   1      46.074 -18.386  40.838  0.00  0.00     0.146 A 
ATOM     16  C   UNL d   1      45.874 -18.124  41.601  0.00  0.00     0.035 A 
ATOM     17  C   UNL d   1      46.066 -18.597  42.252  0.00  0.00     0.027 A 
ATOM     18  C   UNL d   1      46.453 -19.319  42.140  0.00  0.00     0.100 A 
ATOM     19  C   UNL d   1      46.647 -19.568  41.380  0.00  0.00     0.027 A 
ATOM     20  C   UNL d   1      46.456 -19.098  40.730  0.00  0.00     0.035 A 
BRANCH  18  21
ATOM     21  O   UNL d   1      46.647 -19.794  42.787  0.00  0.00    -0.305 OA
BRANCH  21  22
ATOM     22  C   UNL d   1      46.374 -19.607  43.529  0.00  0.00     0.123 C 
ATOM     23  C   UNL d   1      46.390 -20.172  44.129  0.00  0.00     0.029 C 
ENDBRANCH  21  22
ENDBRANCH  18  21
ENDBRANCH  14  15
ENDBRANCH   1  14
TORSDOF 5
ENDMDL
