MODEL 1
REMARK VINA RESULT:      -3.0      0.000      0.000
REMARK  2 active torsions:
REMARK  status: ('A' for Active; 'I' for Inactive)
REMARK    1  A    between atoms: C_12  and  N_1 
REMARK    2  A    between atoms: N_6  and  C_13 
ROOT
ATOM      1  N   UNL d   1      30.594  16.530 -23.955  0.00  0.00    -0.242 N 
ATOM      2  C   UNL d   1      31.311  16.151 -23.600  0.00  0.00     0.263 A 
ATOM      3  C   UNL d   1      30.807  17.172 -24.354  0.00  0.00     0.263 A 
ATOM      4  C   UNL d   1      31.643  17.299 -24.323  0.00  0.00     0.039 A 
ATOM      5  C   UNL d   1      31.980  16.748 -23.906  0.00  0.00     0.039 A 
ATOM      6  C   UNL d   1      32.754  16.721 -23.781  0.00  0.00     0.049 A 
ATOM      7  C   UNL d   1      32.127  17.881 -24.645  0.00  0.00     0.049 A 
ATOM      8  C   UNL d   1      33.238  17.278 -24.086  0.00  0.00    -0.026 A 
ATOM      9  C   UNL d   1      32.911  17.869 -24.527  0.00  0.00    -0.026 A 
ATOM     10  C   UNL d   1      32.094  17.111 -24.134  0.00  0.00     0.018 A 
ATOM     11  O   UNL d   1      30.297  17.671 -24.760  0.00  0.00    -0.267 OA
ATOM     12  O   UNL d   1      31.405  15.566 -23.196  0.00  0.00    -0.267 OA
ENDROOT
BRANCH   1  13
ATOM     13  C   UNL d   1      29.809  16.292 -23.904  0.00  0.00     0.070 A 
ATOM     14  C   UNL d   1      29.498  15.765 -24.463  0.00  0.00     0.019 A 
ATOM     15  C   UNL d   1      28.706  15.519 -24.419  0.00  0.00     0.018 A 
ATOM     16  C   UNL d   1      28.215  15.806 -23.802  0.00  0.00     0.096 A 
ATOM     17  C   UNL d   1      28.534  16.330 -23.250  0.00  0.00     0.018 A 
ATOM     18  C   UNL d   1      29.330  16.573 -23.302  0.00  0.00     0.019 A 
BRANCH  16  19
ATOM     19  N   UNL d   1      27.432  15.571 -23.748  0.00  0.00     0.037 NA
ATOM     20  O   UNL d   1      27.824  16.214 -23.429  0.00  0.00    -0.084 OA
ATOM     21  O   UNL d   1      26.582  15.453 -23.599  0.00  0.00    -0.084 OA
ENDBRANCH  16  19
ENDBRANCH   1  13
TORSDOF 2
ENDMDL
MODEL 2
REMARK VINA RESULT:      -2.5      4.334      5.693
REMARK  2 active torsions:
REMARK  status: ('A' for Active; 'I' for Inactive)
REMARK    1  A    between atoms: C_12  and  N_1 
REMARK    2  A    between atoms: N_6  and  C_13 
ROOT
ATOM      1  N   UNL d   1      32.849  20.100 -22.131  0.00  0.00    -0.242 N 
ATOM      2  C   UNL d   1      33.084  19.310 -21.807  0.00  0.00     0.263 A 
ATOM      3  C   UNL d   1      32.740  20.044 -22.907  0.00  0.00     0.263 A 
ATOM      4  C   UNL d   1      32.879  19.258 -23.188  0.00  0.00     0.039 A 
ATOM      5  C   UNL d   1      33.077  18.798 -22.605  0.00  0.00     0.039 A 
ATOM      6  C   UNL d   1      33.240  18.036 -22.699  0.00  0.00     0.049 A 
ATOM      7  C   UNL d   1      32.839  18.923 -23.938  0.00  0.00     0.049 A 
ATOM      8  C   UNL d   1      33.206  17.695 -23.421  0.00  0.00    -0.026 A 
ATOM      9  C   UNL d   1      33.000  18.155 -24.050  0.00  0.00    -0.026 A 
ATOM     10  C   UNL d   1      33.015  18.773 -23.043  0.00  0.00     0.018 A 
ATOM     11  O   UNL d   1      32.520  20.660 -23.402  0.00  0.00    -0.267 OA
ATOM     12  O   UNL d   1      33.241  19.079 -21.147  0.00  0.00    -0.267 OA
ENDROOT
BRANCH   1  13
ATOM     13  C   UNL d   1      32.747  20.810 -21.729  0.00  0.00     0.070 A 
ATOM     14  C   UNL d   1      33.236  21.456 -21.898  0.00  0.00     0.019 A 
ATOM     15  C   UNL d   1      33.140  22.177 -21.495  0.00  0.00     0.018 A 
ATOM     16  C   UNL d   1      32.540  22.250 -20.912  0.00  0.00     0.096 A 
ATOM     17  C   UNL d   1      32.059  21.600 -20.752  0.00  0.00     0.018 A 
ATOM     18  C   UNL d   1      32.162  20.880 -21.160  0.00  0.00     0.019 A 
BRANCH  16  19
ATOM     19  N   UNL d   1      32.435  22.955 -20.509  0.00  0.00     0.037 NA
ATOM     20  O   UNL d   1      31.899  22.464 -20.882  0.00  0.00    -0.084 OA
ATOM     21  O   UNL d   1      32.168  23.685 -20.115  0.00  0.00    -0.084 OA
ENDBRANCH  16  19
ENDBRANCH   1  13
TORSDOF 2
ENDMDL
MODEL 3
REMARK VINA RESULT:      -2.4      4.666      5.892
REMARK  2 active torsions:
REMARK  status: ('A' for Active; 'I' for Inactive)
REMARK    1  A    between atoms: C_12  and  N_1 
REMARK    2  A    between atoms: N_6  and  C_13 
ROOT
ATOM      1  N   UNL d   1      32.604  21.001 -21.807  0.00  0.00    -0.242 N 
ATOM      2  C   UNL d   1      32.200  21.205 -21.046  0.00  0.00     0.263 A 
ATOM      3  C   UNL d   1      32.844  21.659 -22.161  0.00  0.00     0.263 A 
ATOM      4  C   UNL d   1      32.646  22.349 -21.713  0.00  0.00     0.039 A 
ATOM      5  C   UNL d   1      32.278  22.149 -21.068  0.00  0.00     0.039 A 
ATOM      6  C   UNL d   1      32.025  22.674 -20.541  0.00  0.00     0.049 A 
ATOM      7  C   UNL d   1      32.774  23.150 -21.843  0.00  0.00     0.049 A 
ATOM      8  C   UNL d   1      32.142  23.456 -20.653  0.00  0.00    -0.026 A 
ATOM      9  C   UNL d   1      32.525  23.693 -21.322  0.00  0.00    -0.026 A 
ATOM     10  C   UNL d   1      32.416  22.517 -21.273  0.00  0.00     0.018 A 
ATOM     11  O   UNL d   1      33.241  21.696 -22.879  0.00  0.00    -0.267 OA
ATOM     12  O   UNL d   1      31.891  20.808 -20.534  0.00  0.00    -0.267 OA
ENDROOT
BRANCH   1  13
ATOM     13  C   UNL d   1      32.733  20.259 -22.136  0.00  0.00     0.070 A 
ATOM     14  C   UNL d   1      32.481  20.098 -22.909  0.00  0.00     0.019 A 
ATOM     15  C   UNL d   1      32.608  19.350 -23.249  0.00  0.00     0.018 A 
ATOM     16  C   UNL d   1      32.994  18.752 -22.805  0.00  0.00     0.096 A 
ATOM     17  C   UNL d   1      33.241  18.922 -22.036  0.00  0.00     0.018 A 
ATOM     18  C   UNL d   1      33.110  19.675 -21.702  0.00  0.00     0.019 A 
BRANCH  16  19
ATOM     19  N   UNL d   1      33.125  18.011 -23.129  0.00  0.00     0.037 NA
ATOM     20  O   UNL d   1      32.464  18.333 -22.772  0.00  0.00    -0.084 OA
ATOM     21  O   UNL d   1      33.112  17.194 -23.430  0.00  0.00    -0.084 OA
ENDBRANCH  16  19
ENDBRANCH   1  13
TORSDOF 2
ENDMDL
MODEL 4
REMARK VINA RESULT:      -2.0      4.403      5.756
REMARK  2 active torsions:
REMARK  status: ('A' for Active; 'I' for Inactive)
REMARK    1  A    between atoms: C_12  and  N_1 
REMARK    2  A    between atoms: N_6  and  C_13 
ROOT
ATOM      1  N   UNL d   1      32.905  20.768 -22.070  0.00  0.00    -0.242 N 
ATOM      2  C   UNL d   1      33.069  21.534 -22.484  0.00  0.00     0.263 A 
ATOM      3  C   UNL d   1      32.741  20.909 -21.314  0.00  0.00     0.263 A 
ATOM      4  C   UNL d   1      32.771  21.734 -21.133  0.00  0.00     0.039 A 
ATOM      5  C   UNL d   1      32.953  22.138 -21.762  0.00  0.00     0.039 A 
ATOM      6  C   UNL d   1      33.021  22.920 -21.762  0.00  0.00     0.049 A 
ATOM      7  C   UNL d   1      32.645  22.154 -20.438  0.00  0.00     0.049 A 
ATOM      8  C   UNL d   1      32.902  23.342 -21.095  0.00  0.00    -0.026 A 
ATOM      9  C   UNL d   1      32.710  22.944 -20.421  0.00  0.00    -0.026 A 
ATOM     10  C   UNL d   1      32.859  22.210 -21.335  0.00  0.00     0.018 A 
ATOM     11  O   UNL d   1      32.560  20.337 -20.753  0.00  0.00    -0.267 OA
ATOM     12  O   UNL d   1      33.241  21.697 -23.160  0.00  0.00    -0.267 OA
ENDROOT
BRANCH   1  13
ATOM     13  C   UNL d   1      32.911  20.007 -22.379  0.00  0.00     0.070 A 
ATOM     14  C   UNL d   1      33.232  19.383 -21.938  0.00  0.00     0.019 A 
ATOM     15  C   UNL d   1      33.241  18.610 -22.244  0.00  0.00     0.018 A 
ATOM     16  C   UNL d   1      32.923  18.460 -23.006  0.00  0.00     0.096 A 
ATOM     17  C   UNL d   1      32.606  19.089 -23.436  0.00  0.00     0.018 A 
ATOM     18  C   UNL d   1      32.600  19.862 -23.123  0.00  0.00     0.019 A 
BRANCH  16  19
ATOM     19  N   UNL d   1      32.926  17.703 -23.318  0.00  0.00     0.037 NA
ATOM     20  O   UNL d   1      32.485  18.363 -23.513  0.00  0.00    -0.084 OA
ATOM     21  O   UNL d   1      32.816  16.954 -23.749  0.00  0.00    -0.084 OA
ENDBRANCH  16  19
ENDBRANCH   1  13
TORSDOF 2
ENDMDL
MODEL 5
REMARK VINA RESULT:      -1.6      4.468      6.032
REMARK  2 active torsions:
REMARK  status: ('A' for Active; 'I' for Inactive)
REMARK    1  A    between atoms: C_12  and  N_1 
REMARK    2  A    between atoms: N_6  and  C_13 
ROOT
ATOM      1  N   UNL d   1      33.045  20.461 -22.489  0.00  0.00    -0.242 N 
ATOM      2  C   UNL d   1      33.149  20.456 -23.369  0.00  0.00     0.263 A 
ATOM      3  C   UNL d   1      33.009  19.723 -22.225  0.00  0.00     0.263 A 
ATOM      4  C   UNL d   1      33.080  19.159 -22.852  0.00  0.00     0.039 A 
ATOM      5  C   UNL d   1      33.162  19.521 -23.526  0.00  0.00     0.039 A 
ATOM      6  C   UNL d   1      33.241  19.140 -24.208  0.00  0.00     0.049 A 
ATOM      7  C   UNL d   1      33.077  18.337 -22.862  0.00  0.00     0.049 A 
ATOM      8  C   UNL d   1      33.239  18.342 -24.234  0.00  0.00    -0.026 A 
ATOM      9  C   UNL d   1      33.155  17.937 -23.542  0.00  0.00    -0.026 A 
ATOM     10  C   UNL d   1      33.142  19.107 -23.370  0.00  0.00     0.018 A 
ATOM     11  O   UNL d   1      32.915  19.503 -21.440  0.00  0.00    -0.267 OA
ATOM     12  O   UNL d   1      33.210  20.977 -23.857  0.00  0.00    -0.267 OA
ENDROOT
BRANCH   1  13
ATOM     13  C   UNL d   1      32.989  21.107 -21.984  0.00  0.00     0.070 A 
ATOM     14  C   UNL d   1      32.677  21.011 -21.222  0.00  0.00     0.019 A 
ATOM     15  C   UNL d   1      32.617  21.659 -20.705  0.00  0.00     0.018 A 
ATOM     16  C   UNL d   1      32.875  22.417 -20.956  0.00  0.00     0.096 A 
ATOM     17  C   UNL d   1      33.183  22.501 -21.717  0.00  0.00     0.018 A 
ATOM     18  C   UNL d   1      33.240  21.847 -22.230  0.00  0.00     0.019 A 
BRANCH  16  19
ATOM     19  N   UNL d   1      32.821  23.063 -20.456  0.00  0.00     0.037 NA
ATOM     20  O   UNL d   1      32.369  22.384 -20.508  0.00  0.00    -0.084 OA
ATOM     21  O   UNL d   1      32.637  23.672 -19.861  0.00  0.00    -0.084 OA
ENDBRANCH  16  19
ENDBRANCH   1  13
TORSDOF 2
ENDMDL
MODEL 6
REMARK VINA RESULT:      -0.9      1.415      4.210
REMARK  2 active torsions:
REMARK  status: ('A' for Active; 'I' for Inactive)
REMARK    1  A    between atoms: C_12  and  N_1 
REMARK    2  A    between atoms: N_6  and  C_13 
ROOT
ATOM      1  N   UNL d   1      29.518  17.063 -23.929  0.00  0.00    -0.242 N 
ATOM      2  C   UNL d   1      28.798  17.523 -23.698  0.00  0.00     0.263 A 
ATOM      3  C   UNL d   1      29.359  16.295 -23.900  0.00  0.00     0.263 A 
ATOM      4  C   UNL d   1      28.561  16.147 -23.662  0.00  0.00     0.039 A 
ATOM      5  C   UNL d   1      28.195  16.811 -23.534  0.00  0.00     0.039 A 
ATOM      6  C   UNL d   1      27.445  16.848 -23.305  0.00  0.00     0.049 A 
ATOM      7  C   UNL d   1      28.135  15.453 -23.551  0.00  0.00     0.049 A 
ATOM      8  C   UNL d   1      27.017  16.182 -23.193  0.00  0.00    -0.026 A 
ATOM      9  C   UNL d   1      27.377  15.472 -23.320  0.00  0.00    -0.026 A 
ATOM     10  C   UNL d   1      28.111  16.376 -23.520  0.00  0.00     0.018 A 
ATOM     11  O   UNL d   1      29.888  15.692 -24.077  0.00  0.00    -0.267 OA
ATOM     12  O   UNL d   1      28.664  18.225 -23.640  0.00  0.00    -0.267 OA
ENDROOT
BRANCH   1  13
ATOM     13  C   UNL d   1      30.259  17.345 -24.147  0.00  0.00     0.070 A 
ATOM     14  C   UNL d   1      30.901  17.267 -23.629  0.00  0.00     0.019 A 
ATOM     15  C   UNL d   1      31.653  17.550 -23.842  0.00  0.00     0.018 A 
ATOM     16  C   UNL d   1      31.764  17.917 -24.588  0.00  0.00     0.096 A 
ATOM     17  C   UNL d   1      31.118  17.989 -25.096  0.00  0.00     0.018 A 
ATOM     18  C   UNL d   1      30.366  17.703 -24.875  0.00  0.00     0.019 A 
BRANCH  16  19
ATOM     19  N   UNL d   1      32.500  18.199 -24.810  0.00  0.00     0.037 NA
ATOM     20  O   UNL d   1      31.763  18.552 -24.823  0.00  0.00    -0.084 OA
ATOM     21  O   UNL d   1      33.204  18.634 -25.082  0.00  0.00    -0.084 OA
ENDBRANCH  16  19
ENDBRANCH   1  13
TORSDOF 2
ENDMDL
MODEL 7
REMARK VINA RESULT:      -0.8      3.817      5.132
REMARK  2 active torsions:
REMARK  status: ('A' for Active; 'I' for Inactive)
REMARK    1  A    between atoms: C_12  and  N_1 
REMARK    2  A    between atoms: N_6  and  C_13 
ROOT
ATOM      1  N   UNL d   1      33.028  19.978 -22.219  0.00  0.00    -0.242 N 
ATOM      2  C   UNL d   1      33.152  20.047 -21.344  0.00  0.00     0.263 A 
ATOM      3  C   UNL d   1      32.974  20.695 -22.534  0.00  0.00     0.263 A 
ATOM      4  C   UNL d   1      33.050  21.302 -21.950  0.00  0.00     0.039 A 
ATOM      5  C   UNL d   1      33.153  20.990 -21.254  0.00  0.00     0.039 A 
ATOM      6  C   UNL d   1      33.241  21.420 -20.603  0.00  0.00     0.049 A 
ATOM      7  C   UNL d   1      33.032  22.123 -21.998  0.00  0.00     0.049 A 
ATOM      8  C   UNL d   1      33.226  22.218 -20.633  0.00  0.00    -0.026 A 
ATOM      9  C   UNL d   1      33.119  22.571 -21.350  0.00  0.00    -0.026 A 
ATOM     10  C   UNL d   1      33.122  21.392 -21.439  0.00  0.00     0.018 A 
ATOM     11  O   UNL d   1      32.858  20.857 -23.330  0.00  0.00    -0.267 OA
ATOM     12  O   UNL d   1      33.233  19.563 -20.823  0.00  0.00    -0.267 OA
ENDROOT
BRANCH   1  13
ATOM     13  C   UNL d   1      32.971  19.297 -22.676  0.00  0.00     0.070 A 
ATOM     14  C   UNL d   1      32.650  19.335 -23.439  0.00  0.00     0.019 A 
ATOM     15  C   UNL d   1      32.589  18.652 -23.907  0.00  0.00     0.018 A 
ATOM     16  C   UNL d   1      32.856  17.915 -23.605  0.00  0.00     0.096 A 
ATOM     17  C   UNL d   1      33.175  17.889 -22.845  0.00  0.00     0.018 A 
ATOM     18  C   UNL d   1      33.233  18.579 -22.381  0.00  0.00     0.019 A 
BRANCH  16  19
ATOM     19  N   UNL d   1      32.802  17.235 -24.058  0.00  0.00     0.037 NA
ATOM     20  O   UNL d   1      32.835  18.023 -24.274  0.00  0.00    -0.084 OA
ATOM     21  O   UNL d   1      32.744  16.612 -24.664  0.00  0.00    -0.084 OA
ENDBRANCH  16  19
ENDBRANCH   1  13
TORSDOF 2
ENDMDL
