MODEL 1
REMARK VINA RESULT:      -5.6      0.000      0.000
REMARK  7 active torsions:
REMARK  status: ('A' for Active; 'I' for Inactive)
REMARK    1  A    between atoms: C_2  and  S_1 
REMARK    2  A    between atoms: N_11  and  S_1 
REMARK    3  A    between atoms: O_14  and  C_4 
REMARK    4  A    between atoms: N_10  and  C_15 
REMARK    5  A    between atoms: C_19  and  N_11 
REMARK    6  A    between atoms: C_15  and  C_16 
REMARK    7  A    between atoms: C_16  and  C_19 
ROOT
ATOM      1  S   UNL d   1     -48.310  13.416  22.643  0.00  0.00     0.287 S 
ATOM      2  O   UNL d   1     -48.464  13.596  21.857  0.00  0.00    -0.198 OA
ATOM      3  O   UNL d   1     -48.154  13.235  23.436  0.00  0.00    -0.198 OA
ENDROOT
BRANCH   1   4
ATOM      4  C   UNL d   1     -48.991  13.815  22.868  0.00  0.00     0.128 A 
ATOM      5  C   UNL d   1     -48.967  14.636  22.982  0.00  0.00     0.026 A 
ATOM      6  C   UNL d   1     -49.658  15.041  23.210  0.00  0.00     0.059 A 
ATOM      7 CL   UNL d   1     -49.634  15.848  23.321  0.00  0.00    -0.082 Cl
ATOM      8  C   UNL d   1     -50.364  14.618  23.322  0.00  0.00     0.013 A 
ATOM      9  C   UNL d   1     -50.381  13.807  23.208  0.00  0.00     0.026 A 
ATOM     10  C   UNL d   1     -51.045  15.017  23.547  0.00  0.00     0.001 C 
ATOM     11  C   UNL d   1     -49.690  13.402  22.979  0.00  0.00     0.106 A 
BRANCH  11  12
ATOM     12  O   UNL d   1     -49.711  12.587  22.866  0.00  0.00    -0.327 OA
ATOM     13  C   UNL d   1     -50.425  12.187  22.935  0.00  0.00     0.181 C 
ENDBRANCH  11  12
ENDBRANCH   1   4
BRANCH   1  14
ATOM     14  N   UNL d   1     -47.622  13.013  22.416  0.00  0.00    -0.157 NA
BRANCH  14  15
ATOM     15  C   UNL d   1     -46.882  13.377  22.510  0.00  0.00     0.114 C 
BRANCH  15  16
ATOM     16  C   UNL d   1     -46.193  12.943  22.378  0.00  0.00     0.041 C 
BRANCH  16  17
ATOM     17  C   UNL d   1     -45.494  13.329  22.198  0.00  0.00     0.082 C 
BRANCH  17  18
ATOM     18  N   UNL d   1     -44.799  12.901  22.110  0.00  0.00    -0.299 N 
ATOM     19  C   UNL d   1     -44.235  13.129  21.540  0.00  0.00     0.107 A 
ATOM     20  C   UNL d   1     -43.541  12.702  21.452  0.00  0.00     0.142 A 
ATOM     21  O   UNL d   1     -43.395  12.046  21.925  0.00  0.00    -0.300 OA
ATOM     22  C   UNL d   1     -43.951  11.813  22.495  0.00  0.00     0.142 A 
ATOM     23  C   UNL d   1     -44.657  12.248  22.584  0.00  0.00     0.107 A 
ENDBRANCH  17  18
ENDBRANCH  16  17
ENDBRANCH  15  16
ENDBRANCH  14  15
ENDBRANCH   1  14
TORSDOF 7
ENDMDL
MODEL 2
REMARK VINA RESULT:      -5.6      1.615      2.185
REMARK  7 active torsions:
REMARK  status: ('A' for Active; 'I' for Inactive)
REMARK    1  A    between atoms: C_2  and  S_1 
REMARK    2  A    between atoms: N_11  and  S_1 
REMARK    3  A    between atoms: O_14  and  C_4 
REMARK    4  A    between atoms: N_10  and  C_15 
REMARK    5  A    between atoms: C_19  and  N_11 
REMARK    6  A    between atoms: C_15  and  C_16 
REMARK    7  A    between atoms: C_16  and  C_19 
ROOT
ATOM      1  S   UNL d   1     -47.877  13.193  22.545  0.00  0.00     0.287 S 
ATOM      2  O   UNL d   1     -48.115  13.055  23.319  0.00  0.00    -0.198 OA
ATOM      3  O   UNL d   1     -47.638  13.332  21.765  0.00  0.00    -0.198 OA
ENDROOT
BRANCH   1   4
ATOM      4  C   UNL d   1     -48.652  13.370  22.339  0.00  0.00     0.128 A 
ATOM      5  C   UNL d   1     -49.183  12.755  22.172  0.00  0.00     0.026 A 
ATOM      6  C   UNL d   1     -49.969  12.935  21.963  0.00  0.00     0.059 A 
ATOM      7 CL   UNL d   1     -50.490  12.330  21.799  0.00  0.00    -0.082 Cl
ATOM      8  C   UNL d   1     -50.212  13.727  21.923  0.00  0.00     0.013 A 
ATOM      9  C   UNL d   1     -49.683  14.331  22.089  0.00  0.00     0.026 A 
ATOM     10  C   UNL d   1     -50.986  13.905  21.717  0.00  0.00     0.001 C 
ATOM     11  C   UNL d   1     -48.897  14.150  22.299  0.00  0.00     0.106 A 
BRANCH  11  12
ATOM     12  O   UNL d   1     -48.367  14.759  22.465  0.00  0.00    -0.327 OA
ATOM     13  C   UNL d   1     -48.640  15.532  22.510  0.00  0.00     0.181 C 
ENDBRANCH  11  12
ENDBRANCH   1   4
BRANCH   1  14
ATOM     14  N   UNL d   1     -47.095  13.013  22.754  0.00  0.00    -0.157 NA
BRANCH  14  15
ATOM     15  C   UNL d   1     -46.903  12.247  23.007  0.00  0.00     0.114 C 
BRANCH  15  16
ATOM     16  C   UNL d   1     -46.111  12.023  23.067  0.00  0.00     0.041 C 
BRANCH  16  17
ATOM     17  C   UNL d   1     -45.915  11.285  23.363  0.00  0.00     0.082 C 
BRANCH  17  18
ATOM     18  N   UNL d   1     -45.134  11.031  23.349  0.00  0.00    -0.299 N 
ATOM     19  C   UNL d   1     -44.924  10.304  23.698  0.00  0.00     0.107 A 
ATOM     20  C   UNL d   1     -44.144  10.050  23.684  0.00  0.00     0.142 A 
ATOM     21  O   UNL d   1     -43.565  10.509  23.327  0.00  0.00    -0.300 OA
ATOM     22  C   UNL d   1     -43.766  11.234  22.977  0.00  0.00     0.142 A 
ATOM     23  C   UNL d   1     -44.559  11.492  22.992  0.00  0.00     0.107 A 
ENDBRANCH  17  18
ENDBRANCH  16  17
ENDBRANCH  15  16
ENDBRANCH  14  15
ENDBRANCH   1  14
TORSDOF 7
ENDMDL
MODEL 3
REMARK VINA RESULT:      -5.5      2.002      5.255
REMARK  7 active torsions:
REMARK  status: ('A' for Active; 'I' for Inactive)
REMARK    1  A    between atoms: C_2  and  S_1 
REMARK    2  A    between atoms: N_11  and  S_1 
REMARK    3  A    between atoms: O_14  and  C_4 
REMARK    4  A    between atoms: N_10  and  C_15 
REMARK    5  A    between atoms: C_19  and  N_11 
REMARK    6  A    between atoms: C_15  and  C_16 
REMARK    7  A    between atoms: C_16  and  C_19 
ROOT
ATOM      1  S   UNL d   1     -46.542  13.098  22.905  0.00  0.00     0.287 S 
ATOM      2  O   UNL d   1     -46.218  13.503  23.541  0.00  0.00    -0.198 OA
ATOM      3  O   UNL d   1     -46.869  12.690  22.263  0.00  0.00    -0.198 OA
ENDROOT
BRANCH   1   4
ATOM      4  C   UNL d   1     -45.793  12.849  22.681  0.00  0.00     0.128 A 
ATOM      5  C   UNL d   1     -45.350  13.308  22.149  0.00  0.00     0.026 A 
ATOM      6  C   UNL d   1     -44.590  13.055  21.922  0.00  0.00     0.059 A 
ATOM      7 CL   UNL d   1     -44.156  13.506  21.399  0.00  0.00    -0.082 Cl
ATOM      8  C   UNL d   1     -44.282  12.348  22.229  0.00  0.00     0.013 A 
ATOM      9  C   UNL d   1     -44.724  11.900  22.754  0.00  0.00     0.026 A 
ATOM     10  C   UNL d   1     -43.534  12.100  22.005  0.00  0.00     0.001 C 
ATOM     11  C   UNL d   1     -45.485  12.153  22.981  0.00  0.00     0.106 A 
BRANCH  11  12
ATOM     12  O   UNL d   1     -45.926  11.700  23.509  0.00  0.00    -0.327 OA
ATOM     13  C   UNL d   1     -45.677  10.941  23.698  0.00  0.00     0.181 C 
ENDBRANCH  11  12
ENDBRANCH   1   4
BRANCH   1  14
ATOM     14  N   UNL d   1     -47.299  13.349  23.131  0.00  0.00    -0.157 NA
BRANCH  14  15
ATOM     15  C   UNL d   1     -47.572  14.097  22.896  0.00  0.00     0.114 C 
BRANCH  15  16
ATOM     16  C   UNL d   1     -48.341  14.329  23.082  0.00  0.00     0.041 C 
BRANCH  16  17
ATOM     17  C   UNL d   1     -48.745  14.844  22.590  0.00  0.00     0.082 C 
BRANCH  17  18
ATOM     18  N   UNL d   1     -49.503  15.091  22.786  0.00  0.00    -0.299 N 
ATOM     19  C   UNL d   1     -49.615  15.675  23.371  0.00  0.00     0.107 A 
ATOM     20  C   UNL d   1     -50.372  15.922  23.567  0.00  0.00     0.142 A 
ATOM     21  O   UNL d   1     -51.025  15.597  23.190  0.00  0.00    -0.300 OA
ATOM     22  C   UNL d   1     -50.921  15.015  22.608  0.00  0.00     0.142 A 
ATOM     23  C   UNL d   1     -50.152  14.764  22.408  0.00  0.00     0.107 A 
ENDBRANCH  17  18
ENDBRANCH  16  17
ENDBRANCH  15  16
ENDBRANCH  14  15
ENDBRANCH   1  14
TORSDOF 7
ENDMDL
MODEL 4
REMARK VINA RESULT:      -5.1      1.140      1.562
REMARK  7 active torsions:
REMARK  status: ('A' for Active; 'I' for Inactive)
REMARK    1  A    between atoms: C_2  and  S_1 
REMARK    2  A    between atoms: N_11  and  S_1 
REMARK    3  A    between atoms: O_14  and  C_4 
REMARK    4  A    between atoms: N_10  and  C_15 
REMARK    5  A    between atoms: C_19  and  N_11 
REMARK    6  A    between atoms: C_15  and  C_16 
REMARK    7  A    between atoms: C_16  and  C_19 
ROOT
ATOM      1  S   UNL d   1     -47.930  13.594  22.873  0.00  0.00     0.287 S 
ATOM      2  O   UNL d   1     -48.121  13.671  22.078  0.00  0.00    -0.198 OA
ATOM      3  O   UNL d   1     -47.738  13.515  23.674  0.00  0.00    -0.198 OA
ENDROOT
BRANCH   1   4
ATOM      4  C   UNL d   1     -48.711  13.403  23.041  0.00  0.00     0.128 A 
ATOM      5  C   UNL d   1     -48.938  12.607  23.088  0.00  0.00     0.026 A 
ATOM      6  C   UNL d   1     -49.730  12.414  23.259  0.00  0.00     0.059 A 
ATOM      7 CL   UNL d   1     -49.952  11.631  23.305  0.00  0.00    -0.082 Cl
ATOM      8  C   UNL d   1     -50.284  13.020  23.380  0.00  0.00     0.013 A 
ATOM      9  C   UNL d   1     -50.053  13.805  23.333  0.00  0.00     0.026 A 
ATOM     10  C   UNL d   1     -51.063  12.830  23.549  0.00  0.00     0.001 C 
ATOM     11  C   UNL d   1     -49.261  13.998  23.162  0.00  0.00     0.106 A 
BRANCH  11  12
ATOM     12  O   UNL d   1     -49.033  14.787  23.115  0.00  0.00    -0.327 OA
ATOM     13  C   UNL d   1     -49.594  15.378  23.216  0.00  0.00     0.181 C 
ENDBRANCH  11  12
ENDBRANCH   1   4
BRANCH   1  14
ATOM     14  N   UNL d   1     -47.142  13.786  22.703  0.00  0.00    -0.157 NA
BRANCH  14  15
ATOM     15  C   UNL d   1     -46.666  13.244  22.292  0.00  0.00     0.114 C 
BRANCH  15  16
ATOM     16  C   UNL d   1     -45.853  13.225  22.433  0.00  0.00     0.041 C 
BRANCH  16  17
ATOM     17  C   UNL d   1     -45.330  13.170  21.806  0.00  0.00     0.082 C 
BRANCH  17  18
ATOM     18  N   UNL d   1     -44.621  12.767  21.896  0.00  0.00    -0.299 N 
ATOM     19  C   UNL d   1     -43.961  12.969  21.429  0.00  0.00     0.107 A 
ATOM     20  C   UNL d   1     -43.252  12.566  21.519  0.00  0.00     0.142 A 
ATOM     21  O   UNL d   1     -43.187  11.960  22.070  0.00  0.00    -0.300 OA
ATOM     22  C   UNL d   1     -43.839  11.753  22.538  0.00  0.00     0.142 A 
ATOM     23  C   UNL d   1     -44.560  12.163  22.446  0.00  0.00     0.107 A 
ENDBRANCH  17  18
ENDBRANCH  16  17
ENDBRANCH  15  16
ENDBRANCH  14  15
ENDBRANCH   1  14
TORSDOF 7
ENDMDL
MODEL 5
REMARK VINA RESULT:      -4.4      8.835      9.931
REMARK  7 active torsions:
REMARK  status: ('A' for Active; 'I' for Inactive)
REMARK    1  A    between atoms: C_2  and  S_1 
REMARK    2  A    between atoms: N_11  and  S_1 
REMARK    3  A    between atoms: O_14  and  C_4 
REMARK    4  A    between atoms: N_10  and  C_15 
REMARK    5  A    between atoms: C_19  and  N_11 
REMARK    6  A    between atoms: C_15  and  C_16 
REMARK    7  A    between atoms: C_16  and  C_19 
ROOT
ATOM      1  S   UNL d   1     -39.655  14.517  18.799  0.00  0.00     0.287 S 
ATOM      2  O   UNL d   1     -40.201  13.906  18.757  0.00  0.00    -0.198 OA
ATOM      3  O   UNL d   1     -39.103  15.133  18.841  0.00  0.00    -0.198 OA
ENDROOT
BRANCH   1   4
ATOM      4  C   UNL d   1     -39.377  14.319  18.052  0.00  0.00     0.128 A 
ATOM      5  C   UNL d   1     -38.805  13.723  17.972  0.00  0.00     0.026 A 
ATOM      6  C   UNL d   1     -38.523  13.522  17.214  0.00  0.00     0.059 A 
ATOM      7 CL   UNL d   1     -37.962  12.937  17.136  0.00  0.00    -0.082 Cl
ATOM      8  C   UNL d   1     -38.817  13.920  16.548  0.00  0.00     0.013 A 
ATOM      9  C   UNL d   1     -39.381  14.508  16.633  0.00  0.00     0.026 A 
ATOM     10  C   UNL d   1     -38.539  13.723  15.802  0.00  0.00     0.001 C 
ATOM     11  C   UNL d   1     -39.663  14.709  17.391  0.00  0.00     0.106 A 
BRANCH  11  12
ATOM     12  O   UNL d   1     -40.230  15.300  17.474  0.00  0.00    -0.327 OA
ATOM     13  C   UNL d   1     -40.539  15.661  16.804  0.00  0.00     0.181 C 
ENDBRANCH  11  12
ENDBRANCH   1   4
BRANCH   1  14
ATOM     14  N   UNL d   1     -39.935  14.717  19.553  0.00  0.00    -0.157 NA
BRANCH  14  15
ATOM     15  C   UNL d   1     -39.643  14.318  20.219  0.00  0.00     0.114 C 
BRANCH  15  16
ATOM     16  C   UNL d   1     -39.598  14.711  20.943  0.00  0.00     0.041 C 
BRANCH  16  17
ATOM     17  C   UNL d   1     -39.584  14.283  21.641  0.00  0.00     0.082 C 
BRANCH  17  18
ATOM     18  N   UNL d   1     -39.183  14.575  22.295  0.00  0.00    -0.299 N 
ATOM     19  C   UNL d   1     -38.677  14.077  22.733  0.00  0.00     0.107 A 
ATOM     20  C   UNL d   1     -38.276  14.369  23.386  0.00  0.00     0.142 A 
ATOM     21  O   UNL d   1     -38.368  15.154  23.613  0.00  0.00    -0.300 OA
ATOM     22  C   UNL d   1     -38.868  15.655  23.182  0.00  0.00     0.142 A 
ATOM     23  C   UNL d   1     -39.277  15.358  22.518  0.00  0.00     0.107 A 
ENDBRANCH  17  18
ENDBRANCH  16  17
ENDBRANCH  15  16
ENDBRANCH  14  15
ENDBRANCH   1  14
TORSDOF 7
ENDMDL
MODEL 6
REMARK VINA RESULT:      -3.7      1.691      2.486
REMARK  7 active torsions:
REMARK  status: ('A' for Active; 'I' for Inactive)
REMARK    1  A    between atoms: C_2  and  S_1 
REMARK    2  A    between atoms: N_11  and  S_1 
REMARK    3  A    between atoms: O_14  and  C_4 
REMARK    4  A    between atoms: N_10  and  C_15 
REMARK    5  A    between atoms: C_19  and  N_11 
REMARK    6  A    between atoms: C_15  and  C_16 
REMARK    7  A    between atoms: C_16  and  C_19 
ROOT
ATOM      1  S   UNL d   1     -45.960  13.170  22.667  0.00  0.00     0.287 S 
ATOM      2  O   UNL d   1     -46.130  12.944  21.897  0.00  0.00    -0.198 OA
ATOM      3  O   UNL d   1     -45.789  13.398  23.445  0.00  0.00    -0.198 OA
ENDROOT
BRANCH   1   4
ATOM      4  C   UNL d   1     -46.738  13.411  22.768  0.00  0.00     0.128 A 
ATOM      5  C   UNL d   1     -46.953  14.190  22.583  0.00  0.00     0.026 A 
ATOM      6  C   UNL d   1     -47.743  14.435  22.685  0.00  0.00     0.059 A 
ATOM      7 CL   UNL d   1     -47.954  15.201  22.502  0.00  0.00    -0.082 Cl
ATOM      8  C   UNL d   1     -48.306  13.897  22.971  0.00  0.00     0.013 A 
ATOM      9  C   UNL d   1     -48.087  13.128  23.153  0.00  0.00     0.026 A 
ATOM     10  C   UNL d   1     -49.084  14.137  23.072  0.00  0.00     0.001 C 
ATOM     11  C   UNL d   1     -47.298  12.883  23.050  0.00  0.00     0.106 A 
BRANCH  11  12
ATOM     12  O   UNL d   1     -47.081  12.111  23.234  0.00  0.00    -0.327 OA
ATOM     13  C   UNL d   1     -47.644  11.592  23.529  0.00  0.00     0.181 C 
ENDBRANCH  11  12
ENDBRANCH   1   4
BRANCH   1  14
ATOM     14  N   UNL d   1     -45.174  12.927  22.566  0.00  0.00    -0.157 NA
BRANCH  14  15
ATOM     15  C   UNL d   1     -44.755  13.161  21.889  0.00  0.00     0.114 C 
BRANCH  15  16
ATOM     16  C   UNL d   1     -43.934  13.084  21.869  0.00  0.00     0.041 C 
BRANCH  16  17
ATOM     17  C   UNL d   1     -43.532  13.160  21.159  0.00  0.00     0.082 C 
BRANCH  17  18
ATOM     18  N   UNL d   1     -42.751  13.412  21.154  0.00  0.00    -0.299 N 
ATOM     19  C   UNL d   1     -42.142  12.893  21.390  0.00  0.00     0.107 A 
ATOM     20  C   UNL d   1     -41.362  13.144  21.385  0.00  0.00     0.142 A 
ATOM     21  O   UNL d   1     -41.173  13.908  21.148  0.00  0.00    -0.300 OA
ATOM     22  C   UNL d   1     -41.773  14.430  20.912  0.00  0.00     0.142 A 
ATOM     23  C   UNL d   1     -42.567  14.174  20.917  0.00  0.00     0.107 A 
ENDBRANCH  17  18
ENDBRANCH  16  17
ENDBRANCH  15  16
ENDBRANCH  14  15
ENDBRANCH   1  14
TORSDOF 7
ENDMDL
MODEL 7
REMARK VINA RESULT:      -2.8      4.760      8.316
REMARK  7 active torsions:
REMARK  status: ('A' for Active; 'I' for Inactive)
REMARK    1  A    between atoms: C_2  and  S_1 
REMARK    2  A    between atoms: N_11  and  S_1 
REMARK    3  A    between atoms: O_14  and  C_4 
REMARK    4  A    between atoms: N_10  and  C_15 
REMARK    5  A    between atoms: C_19  and  N_11 
REMARK    6  A    between atoms: C_15  and  C_16 
REMARK    7  A    between atoms: C_16  and  C_19 
ROOT
ATOM      1  S   UNL d   1     -40.722  14.667  20.469  0.00  0.00     0.287 S 
ATOM      2  O   UNL d   1     -41.224  15.292  20.290  0.00  0.00    -0.198 OA
ATOM      3  O   UNL d   1     -40.216  14.037  20.650  0.00  0.00    -0.198 OA
ENDROOT
BRANCH   1   4
ATOM      4  C   UNL d   1     -40.173  14.953  19.930  0.00  0.00     0.128 A 
ATOM      5  C   UNL d   1     -40.279  14.808  19.120  0.00  0.00     0.026 A 
ATOM      6  C   UNL d   1     -39.722  15.098  18.573  0.00  0.00     0.059 A 
ATOM      7 CL   UNL d   1     -39.827  14.954  17.778  0.00  0.00    -0.082 Cl
ATOM      8  C   UNL d   1     -39.066  15.529  18.844  0.00  0.00     0.013 A 
ATOM      9  C   UNL d   1     -38.967  15.670  19.645  0.00  0.00     0.026 A 
ATOM     10  C   UNL d   1     -38.518  15.815  18.306  0.00  0.00     0.001 C 
ATOM     11  C   UNL d   1     -39.525  15.380  20.192  0.00  0.00     0.106 A 
BRANCH  11  12
ATOM     12  O   UNL d   1     -39.422  15.522  20.997  0.00  0.00    -0.327 OA
ATOM     13  C   UNL d   1     -38.753  15.922  21.255  0.00  0.00     0.181 C 
ENDBRANCH  11  12
ENDBRANCH   1   4
BRANCH   1  14
ATOM     14  N   UNL d   1     -41.277  14.378  21.013  0.00  0.00    -0.157 NA
BRANCH  14  15
ATOM     15  C   UNL d   1     -41.789  13.764  20.792  0.00  0.00     0.114 C 
BRANCH  15  16
ATOM     16  C   UNL d   1     -42.393  13.532  21.303  0.00  0.00     0.041 C 
BRANCH  16  17
ATOM     17  C   UNL d   1     -42.894  12.918  21.093  0.00  0.00     0.082 C 
BRANCH  17  18
ATOM     18  N   UNL d   1     -43.518  12.711  21.585  0.00  0.00    -0.299 N 
ATOM     19  C   UNL d   1     -44.229  13.146  21.565  0.00  0.00     0.107 A 
ATOM     20  C   UNL d   1     -44.853  12.939  22.056  0.00  0.00     0.142 A 
ATOM     21  O   UNL d   1     -44.782  12.303  22.571  0.00  0.00    -0.300 OA
ATOM     22  C   UNL d   1     -44.078  11.865  22.596  0.00  0.00     0.142 A 
ATOM     23  C   UNL d   1     -43.444  12.076  22.096  0.00  0.00     0.107 A 
ENDBRANCH  17  18
ENDBRANCH  16  17
ENDBRANCH  15  16
ENDBRANCH  14  15
ENDBRANCH   1  14
TORSDOF 7
ENDMDL
