MODEL 1
REMARK VINA RESULT:      -6.8      0.000      0.000
REMARK  8 active torsions:
REMARK  status: ('A' for Active; 'I' for Inactive)
REMARK    1  A    between atoms: C_6  and  C_1 
REMARK    2  A    between atoms: S_11  and  C_3 
REMARK    3  A    between atoms: C_8  and  C_4 
REMARK       I    between atoms: N_10  and  C_6 
REMARK    4  A    between atoms: C_22  and  N_10 
REMARK    5  A    between atoms: C_21  and  S_11 
REMARK    6  A    between atoms: C_13  and  C_21 
REMARK    7  A    between atoms: O_20  and  C_13 
REMARK    8  A    between atoms: C_24  and  O_20 
ROOT
ATOM      1  C   UNL d   1      52.516  32.192  53.456  0.00  0.00     0.078 A 
ATOM      2  C   UNL d   1      52.351  33.584  53.575  0.00  0.00     0.094 A 
ATOM      3  C   UNL d   1      51.635  33.534  53.167  0.00  0.00     0.120 A 
ATOM      4  C   UNL d   1      52.797  32.914  53.722  0.00  0.00     0.041 A 
ATOM      5  C   UNL d   1      51.800  32.142  53.048  0.00  0.00     0.087 A 
ATOM      6  N   UNL d   1      51.354  32.813  52.901  0.00  0.00    -0.238 NA
ATOM      7  C   UNL d   1      52.626  34.348  53.845  0.00  0.00     0.103 C 
ATOM      8  N   UNL d   1      52.908  35.091  54.115  0.00  0.00    -0.191 NA
ATOM      9  C   UNL d   1      51.500  31.399  52.767  0.00  0.00     0.021 C 
ENDROOT
BRANCH   4  10
ATOM     10  C   UNL d   1      53.494  32.963  54.119  0.00  0.00     0.101 A 
ATOM     11  O   UNL d   1      53.565  32.926  54.941  0.00  0.00    -0.305 OA
ATOM     12  C   UNL d   1      54.353  32.994  55.141  0.00  0.00     0.123 A 
ATOM     13  C   UNL d   1      54.760  33.072  54.452  0.00  0.00     0.029 A 
ATOM     14  C   UNL d   1      54.261  33.056  53.822  0.00  0.00     0.027 A 
ENDBRANCH   4  10
BRANCH   3  15
ATOM     15  S   UNL d   1      51.165  34.221  53.009  0.00  0.00    -0.061 SA
BRANCH  15  16
ATOM     16  C   UNL d   1      50.370  34.129  52.781  0.00  0.00     0.105 C 
BRANCH  16  17
ATOM     17  C   UNL d   1      49.909  34.789  52.623  0.00  0.00     0.307 C 
ATOM     18  O   UNL d   1      49.700  35.291  53.239  0.00  0.00    -0.258 OA
BRANCH  17  19
ATOM     19  O   UNL d   1      49.659  34.943  51.847  0.00  0.00    -0.273 OA
BRANCH  19  20
ATOM     20  C   UNL d   1      48.861  34.969  51.669  0.00  0.00     0.103 C 
ATOM     21  C   UNL d   1      48.341  35.382  52.158  0.00  0.00     0.027 C 
ATOM     22  C   UNL d   1      48.586  34.579  50.996  0.00  0.00     0.027 C 
ENDBRANCH  19  20
ENDBRANCH  17  19
ENDBRANCH  16  17
ENDBRANCH  15  16
ENDBRANCH   3  15
BRANCH   1  23
ATOM     23  C   UNL d   1      52.966  31.484  53.600  0.00  0.00     0.281 C 
ATOM     24  N   UNL d   1      52.612  30.846  53.971  0.00  0.00    -0.208 NA
ATOM     25  O   UNL d   1      53.756  31.450  53.363  0.00  0.00    -0.265 OA
BRANCH  24  26
ATOM     26  C   UNL d   1      53.062  30.154  54.110  0.00  0.00     0.085 A 
ATOM     27  C   UNL d   1      53.518  29.829  53.504  0.00  0.00     0.019 A 
ATOM     28  C   UNL d   1      53.959  29.140  53.657  0.00  0.00     0.002 A 
ATOM     29  C   UNL d   1      53.937  28.794  54.402  0.00  0.00     0.000 A 
ATOM     30  C   UNL d   1      53.475  29.136  54.989  0.00  0.00     0.002 A 
ATOM     31  C   UNL d   1      53.042  29.806  54.851  0.00  0.00     0.019 A 
ENDBRANCH  24  26
ENDBRANCH   1  23
TORSDOF 8
ENDMDL
MODEL 2
REMARK VINA RESULT:      -6.4      1.282      4.991
REMARK  8 active torsions:
REMARK  status: ('A' for Active; 'I' for Inactive)
REMARK    1  A    between atoms: C_6  and  C_1 
REMARK    2  A    between atoms: S_11  and  C_3 
REMARK    3  A    between atoms: C_8  and  C_4 
REMARK       I    between atoms: N_10  and  C_6 
REMARK    4  A    between atoms: C_22  and  N_10 
REMARK    5  A    between atoms: C_21  and  S_11 
REMARK    6  A    between atoms: C_13  and  C_21 
REMARK    7  A    between atoms: O_20  and  C_13 
REMARK    8  A    between atoms: C_24  and  O_20 
ROOT
ATOM      1  C   UNL d   1      51.885  33.374  53.128  0.00  0.00     0.078 A 
ATOM      2  C   UNL d   1      53.109  32.988  53.703  0.00  0.00     0.094 A 
ATOM      3  C   UNL d   1      52.981  32.212  53.456  0.00  0.00     0.120 A 
ATOM      4  C   UNL d   1      52.563  33.576  53.542  0.00  0.00     0.041 A 
ATOM      5  C   UNL d   1      51.756  32.598  52.881  0.00  0.00     0.087 A 
ATOM      6  N   UNL d   1      52.303  32.010  53.043  0.00  0.00    -0.238 NA
ATOM      7  C   UNL d   1      53.824  33.178  54.134  0.00  0.00     0.103 C 
ATOM      8  N   UNL d   1      54.521  33.377  54.557  0.00  0.00    -0.191 NA
ATOM      9  C   UNL d   1      51.057  32.379  52.452  0.00  0.00     0.021 C 
ENDROOT
BRANCH   4  10
ATOM     10  C   UNL d   1      52.689  34.332  53.783  0.00  0.00     0.101 A 
ATOM     11  O   UNL d   1      52.482  34.624  54.527  0.00  0.00    -0.305 OA
ATOM     12  C   UNL d   1      52.694  35.411  54.570  0.00  0.00     0.123 A 
ATOM     13  C   UNL d   1      53.025  35.599  53.862  0.00  0.00     0.029 A 
ATOM     14  C   UNL d   1      53.033  34.963  53.371  0.00  0.00     0.027 A 
ENDBRANCH   4  10
BRANCH   3  15
ATOM     15  S   UNL d   1      53.539  31.596  53.618  0.00  0.00    -0.061 SA
BRANCH  15  16
ATOM     16  C   UNL d   1      53.343  30.807  53.437  0.00  0.00     0.105 C 
BRANCH  16  17
ATOM     17  C   UNL d   1      53.735  30.190  53.809  0.00  0.00     0.307 C 
ATOM     18  O   UNL d   1      54.467  29.950  53.526  0.00  0.00    -0.258 OA
BRANCH  17  19
ATOM     19  O   UNL d   1      53.391  29.817  54.465  0.00  0.00    -0.273 OA
BRANCH  19  20
ATOM     20  C   UNL d   1      53.298  29.004  54.475  0.00  0.00     0.103 C 
ATOM     21  C   UNL d   1      53.637  28.556  55.080  0.00  0.00     0.027 C 
ATOM     22  C   UNL d   1      52.864  28.640  53.875  0.00  0.00     0.027 C 
ENDBRANCH  19  20
ENDBRANCH  17  19
ENDBRANCH  16  17
ENDBRANCH  15  16
ENDBRANCH   3  15
BRANCH   1  23
ATOM     23  C   UNL d   1      51.305  33.972  52.951  0.00  0.00     0.281 C 
ATOM     24  N   UNL d   1      50.534  33.881  53.213  0.00  0.00    -0.208 NA
ATOM     25  O   UNL d   1      51.528  34.637  52.517  0.00  0.00    -0.265 OA
BRANCH  24  26
ATOM     26  C   UNL d   1      49.971  34.473  53.034  0.00  0.00     0.085 A 
ATOM     27  C   UNL d   1      49.736  34.598  52.253  0.00  0.00     0.019 A 
ATOM     28  C   UNL d   1      49.174  35.191  52.093  0.00  0.00     0.002 A 
ATOM     29  C   UNL d   1      48.862  35.641  52.705  0.00  0.00     0.000 A 
ATOM     30  C   UNL d   1      49.112  35.497  53.475  0.00  0.00     0.002 A 
ATOM     31  C   UNL d   1      49.658  34.923  53.643  0.00  0.00     0.019 A 
ENDBRANCH  24  26
ENDBRANCH   1  23
TORSDOF 8
ENDMDL
MODEL 3
REMARK VINA RESULT:      -5.5      1.488      2.983
REMARK  8 active torsions:
REMARK  status: ('A' for Active; 'I' for Inactive)
REMARK    1  A    between atoms: C_6  and  C_1 
REMARK    2  A    between atoms: S_11  and  C_3 
REMARK    3  A    between atoms: C_8  and  C_4 
REMARK       I    between atoms: N_10  and  C_6 
REMARK    4  A    between atoms: C_22  and  N_10 
REMARK    5  A    between atoms: C_21  and  S_11 
REMARK    6  A    between atoms: C_13  and  C_21 
REMARK    7  A    between atoms: O_20  and  C_13 
REMARK    8  A    between atoms: C_24  and  O_20 
ROOT
ATOM      1  C   UNL d   1      52.442  33.985  53.519  0.00  0.00     0.078 A 
ATOM      2  C   UNL d   1      51.230  33.453  53.042  0.00  0.00     0.094 A 
ATOM      3  C   UNL d   1      50.898  34.208  53.044  0.00  0.00     0.120 A 
ATOM      4  C   UNL d   1      52.005  33.335  53.279  0.00  0.00     0.041 A 
ATOM      5  C   UNL d   1      52.109  34.740  53.521  0.00  0.00     0.087 A 
ATOM      6  N   UNL d   1      51.334  34.857  53.283  0.00  0.00    -0.238 NA
ATOM      7  C   UNL d   1      50.757  32.787  52.788  0.00  0.00     0.103 C 
ATOM      8  N   UNL d   1      50.303  32.125  52.541  0.00  0.00    -0.191 NA
ATOM      9  C   UNL d   1      52.554  35.421  53.768  0.00  0.00     0.021 C 
ENDROOT
BRANCH   4  10
ATOM     10  C   UNL d   1      52.329  32.600  53.278  0.00  0.00     0.101 A 
ATOM     11  O   UNL d   1      52.760  32.283  52.649  0.00  0.00    -0.305 OA
ATOM     12  C   UNL d   1      53.000  31.528  52.847  0.00  0.00     0.123 A 
ATOM     13  C   UNL d   1      52.719  31.384  53.587  0.00  0.00     0.029 A 
ATOM     14  C   UNL d   1      52.311  32.018  53.866  0.00  0.00     0.027 A 
ENDBRANCH   4  10
BRANCH   3  15
ATOM     15  S   UNL d   1      50.098  34.341  52.800  0.00  0.00    -0.061 SA
BRANCH  15  16
ATOM     16  C   UNL d   1      49.721  35.055  53.003  0.00  0.00     0.105 C 
BRANCH  16  17
ATOM     17  C   UNL d   1      48.956  35.204  52.746  0.00  0.00     0.307 C 
ATOM     18  O   UNL d   1      48.785  35.157  51.944  0.00  0.00    -0.258 OA
BRANCH  17  19
ATOM     19  O   UNL d   1      48.366  35.400  53.295  0.00  0.00    -0.273 OA
BRANCH  19  20
ATOM     20  C   UNL d   1      47.944  36.096  53.215  0.00  0.00     0.103 C 
ATOM     21  C   UNL d   1      47.417  36.191  52.587  0.00  0.00     0.027 C 
ATOM     22  C   UNL d   1      48.051  36.699  53.768  0.00  0.00     0.027 C 
ENDBRANCH  19  20
ENDBRANCH  17  19
ENDBRANCH  16  17
ENDBRANCH  15  16
ENDBRANCH   3  15
BRANCH   1  23
ATOM     23  C   UNL d   1      53.249  33.882  53.770  0.00  0.00     0.281 C 
ATOM     24  N   UNL d   1      53.457  34.042  54.546  0.00  0.00    -0.208 NA
ATOM     25  O   UNL d   1      53.813  33.622  53.226  0.00  0.00    -0.265 OA
BRANCH  24  26
ATOM     26  C   UNL d   1      54.253  33.938  54.784  0.00  0.00     0.085 A 
ATOM     27  C   UNL d   1      54.867  34.206  54.302  0.00  0.00     0.019 A 
ATOM     28  C   UNL d   1      55.652  34.095  54.554  0.00  0.00     0.002 A 
ATOM     29  C   UNL d   1      55.807  33.725  55.270  0.00  0.00     0.000 A 
ATOM     30  C   UNL d   1      55.179  33.467  55.733  0.00  0.00     0.002 A 
ATOM     31  C   UNL d   1      54.411  33.570  55.498  0.00  0.00     0.019 A 
ENDBRANCH  24  26
ENDBRANCH   1  23
TORSDOF 8
ENDMDL
MODEL 4
REMARK VINA RESULT:      -4.5      0.977      1.253
REMARK  8 active torsions:
REMARK  status: ('A' for Active; 'I' for Inactive)
REMARK    1  A    between atoms: C_6  and  C_1 
REMARK    2  A    between atoms: S_11  and  C_3 
REMARK    3  A    between atoms: C_8  and  C_4 
REMARK       I    between atoms: N_10  and  C_6 
REMARK    4  A    between atoms: C_22  and  N_10 
REMARK    5  A    between atoms: C_21  and  S_11 
REMARK    6  A    between atoms: C_13  and  C_21 
REMARK    7  A    between atoms: O_20  and  C_13 
REMARK    8  A    between atoms: C_24  and  O_20 
ROOT
ATOM      1  C   UNL d   1      52.080  32.900  53.207  0.00  0.00     0.078 A 
ATOM      2  C   UNL d   1      51.884  34.249  53.557  0.00  0.00     0.094 A 
ATOM      3  C   UNL d   1      51.128  34.224  53.228  0.00  0.00     0.120 A 
ATOM      4  C   UNL d   1      52.366  33.587  53.549  0.00  0.00     0.041 A 
ATOM      5  C   UNL d   1      51.324  32.876  52.878  0.00  0.00     0.087 A 
ATOM      6  N   UNL d   1      50.842  33.538  52.886  0.00  0.00    -0.238 NA
ATOM      7  C   UNL d   1      52.164  34.976  53.910  0.00  0.00     0.103 C 
ATOM      8  N   UNL d   1      52.451  35.683  54.259  0.00  0.00    -0.191 NA
ATOM      9  C   UNL d   1      51.017  32.169  52.520  0.00  0.00     0.021 C 
ENDROOT
BRANCH   4  10
ATOM     10  C   UNL d   1      53.103  33.611  53.870  0.00  0.00     0.101 A 
ATOM     11  O   UNL d   1      53.269  33.468  54.665  0.00  0.00    -0.305 OA
ATOM     12  C   UNL d   1      54.073  33.541  54.785  0.00  0.00     0.123 A 
ATOM     13  C   UNL d   1      54.396  33.726  54.072  0.00  0.00     0.029 A 
ATOM     14  C   UNL d   1      53.828  33.774  53.505  0.00  0.00     0.027 A 
ENDBRANCH   4  10
BRANCH   3  15
ATOM     15  S   UNL d   1      50.620  34.902  53.231  0.00  0.00    -0.061 SA
BRANCH  15  16
ATOM     16  C   UNL d   1      49.800  34.800  53.326  0.00  0.00     0.105 C 
BRANCH  16  17
ATOM     17  C   UNL d   1      49.278  35.360  53.031  0.00  0.00     0.307 C 
ATOM     18  O   UNL d   1      49.057  35.326  52.241  0.00  0.00    -0.258 OA
BRANCH  17  19
ATOM     19  O   UNL d   1      48.981  35.952  53.530  0.00  0.00    -0.273 OA
BRANCH  19  20
ATOM     20  C   UNL d   1      48.183  36.131  53.527  0.00  0.00     0.103 C 
ATOM     21  C   UNL d   1      47.684  35.811  54.101  0.00  0.00     0.027 C 
ATOM     22  C   UNL d   1      47.885  36.634  52.944  0.00  0.00     0.027 C 
ENDBRANCH  19  20
ENDBRANCH  17  19
ENDBRANCH  16  17
ENDBRANCH  15  16
ENDBRANCH   3  15
BRANCH   1  23
ATOM     23  C   UNL d   1      52.567  32.202  53.189  0.00  0.00     0.281 C 
ATOM     24  N   UNL d   1      52.336  31.535  53.605  0.00  0.00    -0.208 NA
ATOM     25  O   UNL d   1      53.267  32.207  52.753  0.00  0.00    -0.265 OA
BRANCH  24  26
ATOM     26  C   UNL d   1      52.821  30.853  53.582  0.00  0.00     0.085 A 
ATOM     27  C   UNL d   1      53.637  30.923  53.678  0.00  0.00     0.019 A 
ATOM     28  C   UNL d   1      54.105  30.235  53.654  0.00  0.00     0.002 A 
ATOM     29  C   UNL d   1      53.754  29.502  53.535  0.00  0.00     0.000 A 
ATOM     30  C   UNL d   1      52.939  29.458  53.442  0.00  0.00     0.002 A 
ATOM     31  C   UNL d   1      52.474  30.120  53.465  0.00  0.00     0.019 A 
ENDBRANCH  24  26
ENDBRANCH   1  23
TORSDOF 8
ENDMDL
