MODEL 1
REMARK VINA RESULT:      69.3      0.000      0.000
REMARK  5 active torsions:
REMARK  status: ('A' for Active; 'I' for Inactive)
REMARK    1  A    between atoms: N_7  and  C_1 
REMARK    2  A    between atoms: C_13  and  C_2 
REMARK    3  A    between atoms: N_4  and  C_9 
REMARK       I    between atoms: C_10  and  N_7 
REMARK       I    between atoms: C_15  and  N_8 
REMARK    4  A    between atoms: C_18  and  C_10 
REMARK    5  A    between atoms: O_27  and  C_13 
ROOT
ATOM      1  C   UNL d   1      14.234  15.370  -3.763  0.00  0.00     0.119 A 
ATOM      2  C   UNL d   1      14.632  15.993  -3.403  0.00  0.00     0.088 A 
ATOM      3  C   UNL d   1      14.168  16.430  -4.578  0.00  0.00     0.049 A 
ATOM      4  C   UNL d   1      14.591  16.649  -3.909  0.00  0.00     0.016 A 
ATOM      5  S   UNL d   1      13.945  15.638  -4.494  0.00  0.00    -0.066 SA
ATOM      6  N   UNL d   1      14.331  17.744  -5.118  0.00  0.00    -0.272 N 
ATOM      7  C   UNL d   1      14.040  16.989  -5.187  0.00  0.00     0.089 A 
ATOM      8  C   UNL d   1      14.209  18.302  -5.715  0.00  0.00     0.265 C 
ATOM      9  C   UNL d   1      14.890  17.423  -3.836  0.00  0.00     0.020 A 
ATOM     10  C   UNL d   1      14.759  17.963  -4.437  0.00  0.00     0.083 A 
ATOM     11  O   UNL d   1      13.785  18.085  -6.389  0.00  0.00    -0.267 OA
ATOM     12  C   UNL d   1      14.501  19.065  -5.649  0.00  0.00     0.066 C 
ENDROOT
BRANCH   1  13
ATOM     13  N   UNL d   1      14.136  14.606  -3.456  0.00  0.00    -0.201 NA
ATOM     14  C   UNL d   1      13.666  14.059  -3.865  0.00  0.00     0.280 C 
ATOM     15  O   UNL d   1      13.295  14.266  -4.572  0.00  0.00    -0.265 OA
BRANCH  14  16
ATOM     16  C   UNL d   1      13.568  13.299  -3.559  0.00  0.00     0.059 A 
ATOM     17  C   UNL d   1      13.839  13.129  -2.804  0.00  0.00     0.022 A 
ATOM     18  C   UNL d   1      13.741  12.369  -2.499  0.00  0.00     0.070 A 
ATOM     19  C   UNL d   1      13.373  11.779  -2.948  0.00  0.00     0.018 A 
ATOM     20  C   UNL d   1      13.101  11.962  -3.716  0.00  0.00     0.002 A 
ATOM     21  C   UNL d   1      13.199  12.722  -4.021  0.00  0.00     0.005 A 
BRANCH  18  22
ATOM     22  N   UNL d   1      14.011  12.185  -1.735  0.00  0.00    -0.242 N 
ATOM     23  C   UNL d   1      13.574  11.928  -1.089  0.00  0.00     0.267 A 
ATOM     24  C   UNL d   1      14.091  11.818  -0.454  0.00  0.00     0.066 A 
ATOM     25  O   UNL d   1      12.770  11.796  -1.057  0.00  0.00    -0.267 OA
ATOM     26  C   UNL d   1      14.844  12.009  -0.714  0.00  0.00     0.066 A 
ATOM     27  C   UNL d   1      14.810  12.244  -1.526  0.00  0.00     0.267 A 
ATOM     28  O   UNL d   1      15.428  12.478  -2.003  0.00  0.00    -0.267 OA
ENDBRANCH  18  22
ENDBRANCH  14  16
ENDBRANCH   1  13
BRANCH   2  29
ATOM     29  C   UNL d   1      15.003  15.964  -2.672  0.00  0.00     0.298 C 
ATOM     30  O   UNL d   1      15.736  15.586  -2.606  0.00  0.00    -0.259 OA
BRANCH  29  31
ATOM     31  O   UNL d   1      14.643  16.310  -2.007  0.00  0.00    -0.296 OA
ATOM     32  C   UNL d   1      15.025  16.294  -1.271  0.00  0.00     0.185 C 
ENDBRANCH  29  31
ENDBRANCH   2  29
TORSDOF 5
ENDMDL
