MODEL 1
REMARK VINA RESULT:      -3.1      0.000      0.000
REMARK  3 active torsions:
REMARK  status: ('A' for Active; 'I' for Inactive)
REMARK    1  A    between atoms: C_3  and  C_1 
REMARK       I    between atoms: N_6  and  C_3 
REMARK    2  A    between atoms: C_12  and  N_5 
REMARK    3  A    between atoms: C_8  and  N_6 
ROOT
ATOM      1  C   UNL d   1      31.785  16.835 -24.235  0.00  0.00     0.348 C 
ATOM      2  N   UNL d   1      31.030  16.619 -23.960  0.00  0.00    -0.362 NA
ATOM      3  O   UNL d   1      32.045  16.587 -25.008  0.00  0.00    -0.249 OA
ENDROOT
BRANCH   1   4
ATOM      4  C   UNL d   1      32.281  17.296 -23.746  0.00  0.00     0.173 A 
ATOM      5  N   UNL d   1      32.266  18.126 -23.683  0.00  0.00    -0.159 NA
ATOM      6  N   UNL d   1      32.853  18.343 -23.134  0.00  0.00    -0.227 N 
ATOM      7  C   UNL d   1      33.221  17.657 -22.866  0.00  0.00     0.102 A 
ATOM      8  C   UNL d   1      32.870  17.006 -23.242  0.00  0.00     0.048 A 
BRANCH   6   9
ATOM      9  C   UNL d   1      33.033  19.115 -22.900  0.00  0.00     0.101 C 
ATOM     10  C   UNL d   1      33.185  19.483 -22.178  0.00  0.00     0.022 C 
ENDBRANCH   6   9
ENDBRANCH   1   4
BRANCH   2  11
ATOM     11  C   UNL d   1      30.266  16.349 -23.788  0.00  0.00     0.146 A 
ATOM     12  C   UNL d   1      29.602  16.713 -24.141  0.00  0.00     0.087 A 
ATOM     13 CL   UNL d   1      29.714  17.350 -24.668  0.00  0.00    -0.080 Cl
ATOM     14  C   UNL d   1      28.855  16.448 -23.973  0.00  0.00     0.014 A 
ATOM     15  C   UNL d   1      28.753  15.818 -23.451  0.00  0.00     0.001 A 
ATOM     16  C   UNL d   1      29.404  15.453 -23.098  0.00  0.00     0.003 A 
ATOM     17  C   UNL d   1      30.165  15.718 -23.267  0.00  0.00     0.033 A 
ENDBRANCH   2  11
TORSDOF 3
ENDMDL
MODEL 2
REMARK VINA RESULT:      -2.7      1.345      3.746
REMARK  3 active torsions:
REMARK  status: ('A' for Active; 'I' for Inactive)
REMARK    1  A    between atoms: C_3  and  C_1 
REMARK       I    between atoms: N_6  and  C_3 
REMARK    2  A    between atoms: C_12  and  N_5 
REMARK    3  A    between atoms: C_8  and  N_6 
ROOT
ATOM      1  C   UNL d   1      31.520  16.084 -24.105  0.00  0.00     0.348 C 
ATOM      2  N   UNL d   1      31.836  16.854 -24.076  0.00  0.00    -0.362 NA
ATOM      3  O   UNL d   1      31.966  15.453 -24.465  0.00  0.00    -0.249 OA
ENDROOT
BRANCH   1   4
ATOM      4  C   UNL d   1      30.766  15.940 -23.777  0.00  0.00     0.173 A 
ATOM      5  N   UNL d   1      30.046  16.248 -24.060  0.00  0.00    -0.159 NA
ATOM      6  N   UNL d   1      29.442  15.958 -23.565  0.00  0.00    -0.227 N 
ATOM      7  C   UNL d   1      29.787  15.481 -22.990  0.00  0.00     0.102 A 
ATOM      8  C   UNL d   1      30.606  15.467 -23.117  0.00  0.00     0.048 A 
BRANCH   6   9
ATOM      9  C   UNL d   1      28.636  16.124 -23.641  0.00  0.00     0.101 C 
ATOM     10  C   UNL d   1      28.142  16.734 -23.391  0.00  0.00     0.022 C 
ENDBRANCH   6   9
ENDBRANCH   1   4
BRANCH   2  11
ATOM     11  C   UNL d   1      32.242  17.575 -24.103  0.00  0.00     0.146 A 
ATOM     12  C   UNL d   1      32.787  17.774 -23.501  0.00  0.00     0.087 A 
ATOM     13 CL   UNL d   1      32.918  17.240 -22.874  0.00  0.00    -0.080 Cl
ATOM     14  C   UNL d   1      33.184  18.479 -23.527  0.00  0.00     0.014 A 
ATOM     15  C   UNL d   1      33.047  19.001 -24.151  0.00  0.00     0.001 A 
ATOM     16  C   UNL d   1      32.511  18.813 -24.750  0.00  0.00     0.003 A 
ATOM     17  C   UNL d   1      32.105  18.096 -24.727  0.00  0.00     0.033 A 
ENDBRANCH   2  11
TORSDOF 3
ENDMDL
MODEL 3
REMARK VINA RESULT:      -2.3      1.405      1.812
REMARK  3 active torsions:
REMARK  status: ('A' for Active; 'I' for Inactive)
REMARK    1  A    between atoms: C_3  and  C_1 
REMARK       I    between atoms: N_6  and  C_3 
REMARK    2  A    between atoms: C_12  and  N_5 
REMARK    3  A    between atoms: C_8  and  N_6 
ROOT
ATOM      1  C   UNL d   1      32.656  18.257 -24.184  0.00  0.00     0.348 C 
ATOM      2  N   UNL d   1      31.939  17.840 -24.261  0.00  0.00    -0.362 NA
ATOM      3  O   UNL d   1      33.187  18.320 -24.848  0.00  0.00    -0.249 OA
ENDROOT
BRANCH   1   4
ATOM      4  C   UNL d   1      32.846  18.609 -23.451  0.00  0.00     0.173 A 
ATOM      5  N   UNL d   1      32.783  19.420 -23.270  0.00  0.00    -0.159 NA
ATOM      6  N   UNL d   1      33.030  19.516 -22.480  0.00  0.00    -0.227 N 
ATOM      7  C   UNL d   1      33.241  18.778 -22.184  0.00  0.00     0.102 A 
ATOM      8  C   UNL d   1      33.129  18.213 -22.781  0.00  0.00     0.048 A 
BRANCH   6   9
ATOM      9  C   UNL d   1      33.058  20.232 -22.068  0.00  0.00     0.101 C 
ATOM     10  C   UNL d   1      32.596  20.585 -21.484  0.00  0.00     0.022 C 
ENDBRANCH   6   9
ENDBRANCH   1   4
BRANCH   2  11
ATOM     11  C   UNL d   1      31.259  17.406 -24.447  0.00  0.00     0.146 A 
ATOM     12  C   UNL d   1      31.280  16.571 -24.448  0.00  0.00     0.087 A 
ATOM     13 CL   UNL d   1      31.991  16.178 -24.259  0.00  0.00    -0.080 Cl
ATOM     14  C   UNL d   1      30.614  16.147 -24.631  0.00  0.00     0.014 A 
ATOM     15  C   UNL d   1      29.916  16.544 -24.817  0.00  0.00     0.001 A 
ATOM     16  C   UNL d   1      29.887  17.368 -24.818  0.00  0.00     0.003 A 
ATOM     17  C   UNL d   1      30.562  17.804 -24.633  0.00  0.00     0.033 A 
ENDBRANCH   2  11
TORSDOF 3
ENDMDL
MODEL 4
REMARK VINA RESULT:      -2.0      2.931      5.266
REMARK  3 active torsions:
REMARK  status: ('A' for Active; 'I' for Inactive)
REMARK    1  A    between atoms: C_3  and  C_1 
REMARK       I    between atoms: N_6  and  C_3 
REMARK    2  A    between atoms: C_12  and  N_5 
REMARK    3  A    between atoms: C_8  and  N_6 
ROOT
ATOM      1  C   UNL d   1      33.018  19.944 -21.888  0.00  0.00     0.348 C 
ATOM      2  N   UNL d   1      32.892  20.764 -21.819  0.00  0.00    -0.362 NA
ATOM      3  O   UNL d   1      33.241  19.487 -21.204  0.00  0.00    -0.249 OA
ENDROOT
BRANCH   1   4
ATOM      4  C   UNL d   1      32.924  19.578 -22.633  0.00  0.00     0.173 A 
ATOM      5  N   UNL d   1      32.496  18.880 -22.782  0.00  0.00    -0.159 NA
ATOM      6  N   UNL d   1      32.553  18.725 -23.598  0.00  0.00    -0.227 N 
ATOM      7  C   UNL d   1      33.009  19.318 -23.942  0.00  0.00     0.102 A 
ATOM      8  C   UNL d   1      33.241  19.848 -23.349  0.00  0.00     0.048 A 
BRANCH   6   9
ATOM      9  C   UNL d   1      32.210  18.084 -23.992  0.00  0.00     0.101 C 
ATOM     10  C   UNL d   1      32.107  17.875 -24.783  0.00  0.00     0.022 C 
ENDBRANCH   6   9
ENDBRANCH   1   4
BRANCH   2  11
ATOM     11  C   UNL d   1      32.793  21.566 -21.638  0.00  0.00     0.146 A 
ATOM     12  C   UNL d   1      32.242  21.800 -21.055  0.00  0.00     0.087 A 
ATOM     13 CL   UNL d   1      31.793  21.220 -20.657  0.00  0.00    -0.080 Cl
ATOM     14  C   UNL d   1      32.145  22.585 -20.877  0.00  0.00     0.014 A 
ATOM     15  C   UNL d   1      32.593  23.151 -21.275  0.00  0.00     0.001 A 
ATOM     16  C   UNL d   1      33.139  22.928 -21.852  0.00  0.00     0.003 A 
ATOM     17  C   UNL d   1      33.241  22.131 -22.036  0.00  0.00     0.033 A 
ENDBRANCH   2  11
TORSDOF 3
ENDMDL
MODEL 5
REMARK VINA RESULT:      -1.4      1.816      4.203
REMARK  3 active torsions:
REMARK  status: ('A' for Active; 'I' for Inactive)
REMARK    1  A    between atoms: C_3  and  C_1 
REMARK       I    between atoms: N_6  and  C_3 
REMARK    2  A    between atoms: C_12  and  N_5 
REMARK    3  A    between atoms: C_8  and  N_6 
ROOT
ATOM      1  C   UNL d   1      32.807  18.836 -24.036  0.00  0.00     0.348 C 
ATOM      2  N   UNL d   1      32.868  19.342 -23.378  0.00  0.00    -0.362 NA
ATOM      3  O   UNL d   1      32.992  19.127 -24.816  0.00  0.00    -0.249 OA
ENDROOT
BRANCH   1   4
ATOM      4  C   UNL d   1      32.564  18.045 -23.922  0.00  0.00     0.173 A 
ATOM      5  N   UNL d   1      31.777  17.781 -23.868  0.00  0.00    -0.159 NA
ATOM      6  N   UNL d   1      31.800  16.957 -23.755  0.00  0.00    -0.227 N 
ATOM      7  C   UNL d   1      32.589  16.721 -23.740  0.00  0.00     0.102 A 
ATOM      8  C   UNL d   1      33.066  17.391 -23.843  0.00  0.00     0.048 A 
BRANCH   6   9
ATOM      9  C   UNL d   1      31.142  16.463 -23.672  0.00  0.00     0.101 C 
ATOM     10  C   UNL d   1      30.887  15.769 -24.036  0.00  0.00     0.022 C 
ENDBRANCH   6   9
ENDBRANCH   1   4
BRANCH   2  11
ATOM     11  C   UNL d   1      32.962  19.927 -22.799  0.00  0.00     0.146 A 
ATOM     12  C   UNL d   1      33.149  20.711 -23.019  0.00  0.00     0.087 A 
ATOM     13 CL   UNL d   1      33.240  20.900 -23.827  0.00  0.00    -0.080 Cl
ATOM     14  C   UNL d   1      33.241  21.283 -22.453  0.00  0.00     0.014 A 
ATOM     15  C   UNL d   1      33.149  21.087 -21.657  0.00  0.00     0.001 A 
ATOM     16  C   UNL d   1      32.964  20.315 -21.431  0.00  0.00     0.003 A 
ATOM     17  C   UNL d   1      32.870  19.730 -22.004  0.00  0.00     0.033 A 
ENDBRANCH   2  11
TORSDOF 3
ENDMDL
MODEL 6
REMARK VINA RESULT:      -1.2      1.713      4.130
REMARK  3 active torsions:
REMARK  status: ('A' for Active; 'I' for Inactive)
REMARK    1  A    between atoms: C_3  and  C_1 
REMARK       I    between atoms: N_6  and  C_3 
REMARK    2  A    between atoms: C_12  and  N_5 
REMARK    3  A    between atoms: C_8  and  N_6 
ROOT
ATOM      1  C   UNL d   1      32.553  17.760 -24.052  0.00  0.00     0.348 C 
ATOM      2  N   UNL d   1      32.648  18.578 -24.174  0.00  0.00    -0.362 NA
ATOM      3  O   UNL d   1      33.175  17.308 -23.685  0.00  0.00    -0.249 OA
ENDROOT
BRANCH   1   4
ATOM      4  C   UNL d   1      31.843  17.392 -24.294  0.00  0.00     0.173 A 
ATOM      5  N   UNL d   1      31.077  17.597 -24.039  0.00  0.00    -0.159 NA
ATOM      6  N   UNL d   1      30.545  17.084 -24.422  0.00  0.00    -0.227 N 
ATOM      7  C   UNL d   1      30.977  16.574 -24.902  0.00  0.00     0.102 A 
ATOM      8  C   UNL d   1      31.781  16.761 -24.826  0.00  0.00     0.048 A 
BRANCH   6   9
ATOM      9  C   UNL d   1      29.723  17.089 -24.333  0.00  0.00     0.101 C 
ATOM     10  C   UNL d   1      29.095  17.422 -24.752  0.00  0.00     0.022 C 
ENDBRANCH   6   9
ENDBRANCH   1   4
BRANCH   2  11
ATOM     11  C   UNL d   1      32.847  19.379 -24.246  0.00  0.00     0.146 A 
ATOM     12  C   UNL d   1      32.933  19.854 -23.564  0.00  0.00     0.087 A 
ATOM     13 CL   UNL d   1      32.817  19.516 -22.810  0.00  0.00    -0.080 Cl
ATOM     14  C   UNL d   1      33.128  20.637 -23.634  0.00  0.00     0.014 A 
ATOM     15  C   UNL d   1      33.241  20.964 -24.383  0.00  0.00     0.001 A 
ATOM     16  C   UNL d   1      33.158  20.501 -25.062  0.00  0.00     0.003 A 
ATOM     17  C   UNL d   1      32.959  19.704 -24.995  0.00  0.00     0.033 A 
ENDBRANCH   2  11
TORSDOF 3
ENDMDL
MODEL 7
REMARK VINA RESULT:      -1.2      3.317      4.635
REMARK  3 active torsions:
REMARK  status: ('A' for Active; 'I' for Inactive)
REMARK    1  A    between atoms: C_3  and  C_1 
REMARK       I    between atoms: N_6  and  C_3 
REMARK    2  A    between atoms: C_12  and  N_5 
REMARK    3  A    between atoms: C_8  and  N_6 
ROOT
ATOM      1  C   UNL d   1      33.108  20.154 -21.614  0.00  0.00     0.348 C 
ATOM      2  N   UNL d   1      33.087  19.930 -22.415  0.00  0.00    -0.362 NA
ATOM      3  O   UNL d   1      33.241  19.568 -21.009  0.00  0.00    -0.249 OA
ENDROOT
BRANCH   1   4
ATOM      4  C   UNL d   1      32.998  20.957 -21.412  0.00  0.00     0.173 A 
ATOM      5  N   UNL d   1      33.176  21.609 -21.898  0.00  0.00    -0.159 NA
ATOM      6  N   UNL d   1      32.977  22.296 -21.471  0.00  0.00    -0.227 N 
ATOM      7  C   UNL d   1      32.684  22.068 -20.737  0.00  0.00     0.102 A 
ATOM      8  C   UNL d   1      32.694  21.240 -20.695  0.00  0.00     0.048 A 
BRANCH   6   9
ATOM      9  C   UNL d   1      33.062  23.073 -21.742  0.00  0.00     0.101 C 
ATOM     10  C   UNL d   1      32.542  23.659 -21.998  0.00  0.00     0.022 C 
ENDBRANCH   6   9
ENDBRANCH   1   4
BRANCH   2  11
ATOM     11  C   UNL d   1      33.085  19.598 -23.174  0.00  0.00     0.146 A 
ATOM     12  C   UNL d   1      32.925  18.784 -23.277  0.00  0.00     0.087 A 
ATOM     13 CL   UNL d   1      32.768  18.309 -22.610  0.00  0.00    -0.080 Cl
ATOM     14  C   UNL d   1      32.924  18.460 -24.020  0.00  0.00     0.014 A 
ATOM     15  C   UNL d   1      33.080  18.938 -24.674  0.00  0.00     0.001 A 
ATOM     16  C   UNL d   1      33.238  19.743 -24.580  0.00  0.00     0.003 A 
ATOM     17  C   UNL d   1      33.241  20.076 -23.827  0.00  0.00     0.033 A 
ENDBRANCH   2  11
TORSDOF 3
ENDMDL
MODEL 8
REMARK VINA RESULT:      -0.8      2.425      3.326
REMARK  3 active torsions:
REMARK  status: ('A' for Active; 'I' for Inactive)
REMARK    1  A    between atoms: C_3  and  C_1 
REMARK       I    between atoms: N_6  and  C_3 
REMARK    2  A    between atoms: C_12  and  N_5 
REMARK    3  A    between atoms: C_8  and  N_6 
ROOT
ATOM      1  C   UNL d   1      33.020  19.673 -23.100  0.00  0.00     0.348 C 
ATOM      2  N   UNL d   1      32.879  18.865 -23.242  0.00  0.00    -0.362 NA
ATOM      3  O   UNL d   1      33.238  20.188 -23.743  0.00  0.00    -0.249 OA
ENDROOT
BRANCH   1   4
ATOM      4  C   UNL d   1      32.945  19.969 -22.322  0.00  0.00     0.173 A 
ATOM      5  N   UNL d   1      32.560  20.675 -22.105  0.00  0.00    -0.159 NA
ATOM      6  N   UNL d   1      32.623  20.745 -21.278  0.00  0.00    -0.227 N 
ATOM      7  C   UNL d   1      33.039  20.094 -20.994  0.00  0.00     0.102 A 
ATOM      8  C   UNL d   1      33.241  19.611 -21.637  0.00  0.00     0.048 A 
BRANCH   6   9
ATOM      9  C   UNL d   1      32.318  21.365 -20.823  0.00  0.00     0.101 C 
ATOM     10  C   UNL d   1      32.636  22.043 -20.477  0.00  0.00     0.022 C 
ENDBRANCH   6   9
ENDBRANCH   1   4
BRANCH   2  11
ATOM     11  C   UNL d   1      32.764  18.085 -23.496  0.00  0.00     0.146 A 
ATOM     12  C   UNL d   1      32.907  17.876 -24.292  0.00  0.00     0.087 A 
ATOM     13 CL   UNL d   1      33.168  18.458 -24.829  0.00  0.00    -0.080 Cl
ATOM     14  C   UNL d   1      32.794  17.112 -24.539  0.00  0.00     0.014 A 
ATOM     15  C   UNL d   1      32.536  16.543 -24.001  0.00  0.00     0.001 A 
ATOM     16  C   UNL d   1      32.391  16.742 -23.213  0.00  0.00     0.003 A 
ATOM     17  C   UNL d   1      32.506  17.517 -22.957  0.00  0.00     0.033 A 
ENDBRANCH   2  11
TORSDOF 3
ENDMDL
