MODEL 1
REMARK VINA RESULT:      -2.8      0.000      0.000
REMARK  2 active torsions:
REMARK  status: ('A' for Active; 'I' for Inactive)
REMARK    1  A    between atoms: C_4  and  C_1 
REMARK    2  A    between atoms: N_2  and  C_9 
REMARK       I    between atoms: N_7  and  C_4 
ROOT
ATOM      1  C   UNL d   1      32.696  17.567 -23.683  0.00  0.00     0.086 A 
ATOM      2  S   UNL d   1      32.885  18.166 -24.173  0.00  0.00    -0.082 SA
ATOM      3  C   UNL d   1      32.668  17.820 -22.910  0.00  0.00     0.012 A 
ATOM      4  C   UNL d   1      32.849  18.627 -22.911  0.00  0.00     0.008 A 
ATOM      5  C   UNL d   1      32.984  18.843 -23.695  0.00  0.00     0.030 A 
ATOM      6  C   UNL d   1      33.106  19.973 -22.497  0.00  0.00     0.127 A 
ATOM      7  C   UNL d   1      32.910  19.187 -22.324  0.00  0.00     0.024 A 
ATOM      8  C   UNL d   1      33.181  19.618 -23.893  0.00  0.00     0.008 A 
ATOM      9  C   UNL d   1      33.241  20.189 -23.282  0.00  0.00     0.024 A 
ENDROOT
BRANCH   1  10
ATOM     10  C   UNL d   1      32.548  16.777 -23.944  0.00  0.00     0.271 C 
ATOM     11  N   UNL d   1      31.789  16.527 -24.098  0.00  0.00    -0.272 N 
ATOM     12  C   UNL d   1      31.159  17.048 -24.001  0.00  0.00     0.083 A 
ATOM     13  C   UNL d   1      31.643  15.746 -24.356  0.00  0.00     0.083 A 
ATOM     14  C   UNL d   1      30.386  16.808 -24.154  0.00  0.00     0.019 A 
ATOM     15  C   UNL d   1      30.237  16.037 -24.409  0.00  0.00     0.003 A 
ATOM     16  C   UNL d   1      30.866  15.506 -24.509  0.00  0.00     0.019 A 
ATOM     17  O   UNL d   1      33.190  16.265 -24.037  0.00  0.00    -0.266 OA
ENDBRANCH   1  10
BRANCH   6  18
ATOM     18  N   UNL d   1      33.166  20.545 -21.886  0.00  0.00    -0.114 N 
ATOM     19  O   UNL d   1      33.240  21.356 -22.084  0.00  0.00    -0.532 OA
ATOM     20  O   UNL d   1      33.154  20.312 -21.101  0.00  0.00    -0.532 OA
ENDBRANCH   6  18
TORSDOF 2
ENDMDL
MODEL 2
REMARK VINA RESULT:      -2.4      1.320      4.295
REMARK  2 active torsions:
REMARK  status: ('A' for Active; 'I' for Inactive)
REMARK    1  A    between atoms: C_4  and  C_1 
REMARK    2  A    between atoms: N_2  and  C_9 
REMARK       I    between atoms: N_7  and  C_4 
ROOT
ATOM      1  C   UNL d   1      32.807  19.011 -23.504  0.00  0.00     0.086 A 
ATOM      2  S   UNL d   1      33.241  18.440 -23.155  0.00  0.00    -0.082 SA
ATOM      3  C   UNL d   1      32.137  18.700 -23.846  0.00  0.00     0.012 A 
ATOM      4  C   UNL d   1      32.147  17.885 -23.707  0.00  0.00     0.008 A 
ATOM      5  C   UNL d   1      32.833  17.723 -23.277  0.00  0.00     0.030 A 
ATOM      6  C   UNL d   1      31.803  16.496 -23.681  0.00  0.00     0.127 A 
ATOM      7  C   UNL d   1      31.643  17.277 -23.903  0.00  0.00     0.024 A 
ATOM      8  C   UNL d   1      33.015  16.954 -23.044  0.00  0.00     0.008 A 
ATOM      9  C   UNL d   1      32.489  16.334 -23.251  0.00  0.00     0.024 A 
ENDROOT
BRANCH   1  10
ATOM     10  C   UNL d   1      33.024  19.828 -23.510  0.00  0.00     0.271 C 
ATOM     11  N   UNL d   1      33.026  20.262 -22.822  0.00  0.00    -0.272 N 
ATOM     12  C   UNL d   1      32.814  19.903 -22.111  0.00  0.00     0.083 A 
ATOM     13  C   UNL d   1      33.240  21.069 -22.829  0.00  0.00     0.083 A 
ATOM     14  C   UNL d   1      32.811  20.331 -21.408  0.00  0.00     0.019 A 
ATOM     15  C   UNL d   1      33.022  21.129 -21.411  0.00  0.00     0.003 A 
ATOM     16  C   UNL d   1      33.237  21.497 -22.122  0.00  0.00     0.019 A 
ATOM     17  O   UNL d   1      33.234  20.173 -24.230  0.00  0.00    -0.266 OA
ENDBRANCH   1  10
BRANCH   6  18
ATOM     18  N   UNL d   1      31.279  15.875 -23.887  0.00  0.00    -0.114 N 
ATOM     19  O   UNL d   1      30.650  15.675 -23.370  0.00  0.00    -0.532 OA
ATOM     20  O   UNL d   1      31.380  15.467 -24.590  0.00  0.00    -0.532 OA
ENDBRANCH   6  18
TORSDOF 2
ENDMDL
MODEL 3
REMARK VINA RESULT:      -1.6      1.649      2.233
REMARK  2 active torsions:
REMARK  status: ('A' for Active; 'I' for Inactive)
REMARK    1  A    between atoms: C_4  and  C_1 
REMARK    2  A    between atoms: N_2  and  C_9 
REMARK       I    between atoms: N_7  and  C_4 
ROOT
ATOM      1  C   UNL d   1      32.866  19.308 -22.603  0.00  0.00     0.086 A 
ATOM      2  S   UNL d   1      33.199  19.917 -22.995  0.00  0.00    -0.082 SA
ATOM      3  C   UNL d   1      32.495  19.565 -21.926  0.00  0.00     0.012 A 
ATOM      4  C   UNL d   1      32.599  20.385 -21.886  0.00  0.00     0.008 A 
ATOM      5  C   UNL d   1      33.037  20.604 -22.550  0.00  0.00     0.030 A 
ATOM      6  C   UNL d   1      32.558  21.751 -21.463  0.00  0.00     0.127 A 
ATOM      7  C   UNL d   1      32.365  20.953 -21.353  0.00  0.00     0.024 A 
ATOM      8  C   UNL d   1      33.241  21.391 -22.682  0.00  0.00     0.008 A 
ATOM      9  C   UNL d   1      32.995  21.970 -22.127  0.00  0.00     0.024 A 
ENDROOT
BRANCH   1  10
ATOM     10  C   UNL d   1      32.899  18.506 -22.866  0.00  0.00     0.271 C 
ATOM     11  N   UNL d   1      32.606  18.295 -23.595  0.00  0.00    -0.272 N 
ATOM     12  C   UNL d   1      32.272  18.869 -24.083  0.00  0.00     0.083 A 
ATOM     13  C   UNL d   1      32.639  17.502 -23.855  0.00  0.00     0.083 A 
ATOM     14  C   UNL d   1      31.971  18.670 -24.823  0.00  0.00     0.019 A 
ATOM     15  C   UNL d   1      32.002  17.888 -25.083  0.00  0.00     0.003 A 
ATOM     16  C   UNL d   1      32.337  17.304 -24.599  0.00  0.00     0.019 A 
ATOM     17  O   UNL d   1      33.237  17.941 -22.367  0.00  0.00    -0.266 OA
ENDBRANCH   1  10
BRANCH   6  18
ATOM     18  N   UNL d   1      32.312  22.332 -20.909  0.00  0.00    -0.114 N 
ATOM     19  O   UNL d   1      32.665  22.353 -20.149  0.00  0.00    -0.532 OA
ATOM     20  O   UNL d   1      31.733  22.874 -21.110  0.00  0.00    -0.532 OA
ENDBRANCH   6  18
TORSDOF 2
ENDMDL
MODEL 4
REMARK VINA RESULT:      -1.6      2.309      5.037
REMARK  2 active torsions:
REMARK  status: ('A' for Active; 'I' for Inactive)
REMARK    1  A    between atoms: C_4  and  C_1 
REMARK    2  A    between atoms: N_2  and  C_9 
REMARK       I    between atoms: N_7  and  C_4 
ROOT
ATOM      1  C   UNL d   1      32.959  20.824 -21.329  0.00  0.00     0.086 A 
ATOM      2  S   UNL d   1      33.162  21.074 -22.059  0.00  0.00    -0.082 SA
ATOM      3  C   UNL d   1      32.769  20.033 -21.333  0.00  0.00     0.012 A 
ATOM      4  C   UNL d   1      32.857  19.765 -22.112  0.00  0.00     0.008 A 
ATOM      5  C   UNL d   1      33.101  20.412 -22.562  0.00  0.00     0.030 A 
ATOM      6  C   UNL d   1      32.888  18.939 -23.280  0.00  0.00     0.127 A 
ATOM      7  C   UNL d   1      32.754  19.042 -22.469  0.00  0.00     0.024 A 
ATOM      8  C   UNL d   1      33.241  20.335 -23.370  0.00  0.00     0.008 A 
ATOM      9  C   UNL d   1      33.131  19.586 -23.731  0.00  0.00     0.024 A 
ENDROOT
BRANCH   1  10
ATOM     10  C   UNL d   1      32.946  21.325 -20.648  0.00  0.00     0.271 C 
ATOM     11  N   UNL d   1      32.650  22.081 -20.695  0.00  0.00    -0.272 N 
ATOM     12  C   UNL d   1      32.359  22.364 -21.413  0.00  0.00     0.083 A 
ATOM     13  C   UNL d   1      32.637  22.576 -20.022  0.00  0.00     0.083 A 
ATOM     14  C   UNL d   1      32.057  23.127 -21.474  0.00  0.00     0.019 A 
ATOM     15  C   UNL d   1      32.043  23.618 -20.812  0.00  0.00     0.003 A 
ATOM     16  C   UNL d   1      32.333  23.342 -20.086  0.00  0.00     0.019 A 
ATOM     17  O   UNL d   1      33.240  21.029 -19.936  0.00  0.00    -0.266 OA
ENDBRANCH   1  10
BRANCH   6  18
ATOM     18  N   UNL d   1      32.778  18.190 -23.641  0.00  0.00    -0.114 N 
ATOM     19  O   UNL d   1      32.197  18.100 -24.238  0.00  0.00    -0.532 OA
ATOM     20  O   UNL d   1      33.237  17.552 -23.413  0.00  0.00    -0.532 OA
ENDBRANCH   6  18
TORSDOF 2
ENDMDL
MODEL 5
REMARK VINA RESULT:      -1.3      4.242      6.161
REMARK  2 active torsions:
REMARK  status: ('A' for Active; 'I' for Inactive)
REMARK    1  A    between atoms: C_4  and  C_1 
REMARK    2  A    between atoms: N_2  and  C_9 
REMARK       I    between atoms: N_7  and  C_4 
ROOT
ATOM      1  C   UNL d   1      32.629  22.879 -20.333  0.00  0.00     0.086 A 
ATOM      2  S   UNL d   1      32.000  23.237 -19.999  0.00  0.00    -0.082 SA
ATOM      3  C   UNL d   1      33.171  22.655 -19.769  0.00  0.00     0.012 A 
ATOM      4  C   UNL d   1      32.867  22.885 -19.034  0.00  0.00     0.008 A 
ATOM      5  C   UNL d   1      32.140  23.247 -19.177  0.00  0.00     0.030 A 
ATOM      6  C   UNL d   1      32.702  23.109 -17.630  0.00  0.00     0.127 A 
ATOM      7  C   UNL d   1      33.140  22.819 -18.270  0.00  0.00     0.024 A 
ATOM      8  C   UNL d   1      31.685  23.543 -18.557  0.00  0.00     0.008 A 
ATOM      9  C   UNL d   1      31.975  23.471 -17.773  0.00  0.00     0.024 A 
ENDROOT
BRANCH   1  10
ATOM     10  C   UNL d   1      32.711  22.754 -21.165  0.00  0.00     0.271 C 
ATOM     11  N   UNL d   1      32.874  22.013 -21.459  0.00  0.00    -0.272 N 
ATOM     12  C   UNL d   1      32.961  21.377 -20.942  0.00  0.00     0.083 A 
ATOM     13  C   UNL d   1      32.955  21.890 -22.281  0.00  0.00     0.083 A 
ATOM     14  C   UNL d   1      33.126  20.622 -21.226  0.00  0.00     0.019 A 
ATOM     15  C   UNL d   1      33.207  20.497 -22.037  0.00  0.00     0.003 A 
ATOM     16  C   UNL d   1      33.121  21.131 -22.564  0.00  0.00     0.019 A 
ATOM     17  O   UNL d   1      32.622  23.400 -21.671  0.00  0.00    -0.266 OA
ENDBRANCH   1  10
BRANCH   6  18
ATOM     18  N   UNL d   1      32.991  23.038 -16.846  0.00  0.00    -0.114 N 
ATOM     19  O   UNL d   1      33.023  22.283 -16.484  0.00  0.00    -0.532 OA
ATOM     20  O   UNL d   1      33.240  23.702 -16.436  0.00  0.00    -0.532 OA
ENDBRANCH   6  18
TORSDOF 2
ENDMDL
MODEL 6
REMARK VINA RESULT:      -0.5      1.383      4.338
REMARK  2 active torsions:
REMARK  status: ('A' for Active; 'I' for Inactive)
REMARK    1  A    between atoms: C_4  and  C_1 
REMARK    2  A    between atoms: N_2  and  C_9 
REMARK       I    between atoms: N_7  and  C_4 
ROOT
ATOM      1  C   UNL d   1      32.709  19.203 -22.638  0.00  0.00     0.086 A 
ATOM      2  S   UNL d   1      33.238  18.841 -23.111  0.00  0.00    -0.082 SA
ATOM      3  C   UNL d   1      31.951  18.964 -22.810  0.00  0.00     0.012 A 
ATOM      4  C   UNL d   1      32.002  18.417 -23.429  0.00  0.00     0.008 A 
ATOM      5  C   UNL d   1      32.802  18.341 -23.617  0.00  0.00     0.030 A 
ATOM      6  C   UNL d   1      31.672  17.470 -24.450  0.00  0.00     0.127 A 
ATOM      7  C   UNL d   1      31.449  17.986 -23.842  0.00  0.00     0.024 A 
ATOM      8  C   UNL d   1      33.049  17.833 -24.217  0.00  0.00     0.008 A 
ATOM      9  C   UNL d   1      32.472  17.393 -24.637  0.00  0.00     0.024 A 
ENDROOT
BRANCH   1  10
ATOM     10  C   UNL d   1      32.920  19.761 -22.039  0.00  0.00     0.271 C 
ATOM     11  N   UNL d   1      32.978  20.554 -22.212  0.00  0.00    -0.272 N 
ATOM     12  C   UNL d   1      32.829  20.817 -22.979  0.00  0.00     0.083 A 
ATOM     13  C   UNL d   1      33.187  21.105 -21.620  0.00  0.00     0.083 A 
ATOM     14  C   UNL d   1      32.884  21.617 -23.168  0.00  0.00     0.019 A 
ATOM     15  C   UNL d   1      33.090  22.164 -22.586  0.00  0.00     0.003 A 
ATOM     16  C   UNL d   1      33.241  21.908 -21.812  0.00  0.00     0.019 A 
ATOM     17  O   UNL d   1      33.066  19.483 -21.275  0.00  0.00    -0.266 OA
ENDBRANCH   1  10
BRANCH   6  18
ATOM     18  N   UNL d   1      31.096  17.029 -24.871  0.00  0.00    -0.114 N 
ATOM     19  O   UNL d   1      30.378  17.397 -25.097  0.00  0.00    -0.532 OA
ATOM     20  O   UNL d   1      31.235  16.244 -25.060  0.00  0.00    -0.532 OA
ENDBRANCH   6  18
TORSDOF 2
ENDMDL
MODEL 7
REMARK VINA RESULT:      -0.2      1.618      4.592
REMARK  2 active torsions:
REMARK  status: ('A' for Active; 'I' for Inactive)
REMARK    1  A    between atoms: C_4  and  C_1 
REMARK    2  A    between atoms: N_2  and  C_9 
REMARK       I    between atoms: N_7  and  C_4 
ROOT
ATOM      1  C   UNL d   1      33.080  20.216 -22.571  0.00  0.00     0.086 A 
ATOM      2  S   UNL d   1      33.240  19.599 -22.093  0.00  0.00    -0.082 SA
ATOM      3  C   UNL d   1      32.883  19.963 -23.319  0.00  0.00     0.012 A 
ATOM      4  C   UNL d   1      32.920  19.136 -23.315  0.00  0.00     0.008 A 
ATOM      5  C   UNL d   1      33.142  18.910 -22.553  0.00  0.00     0.030 A 
ATOM      6  C   UNL d   1      32.870  17.762 -23.709  0.00  0.00     0.127 A 
ATOM      7  C   UNL d   1      32.787  18.567 -23.881  0.00  0.00     0.024 A 
ATOM      8  C   UNL d   1      33.232  18.115 -22.358  0.00  0.00     0.008 A 
ATOM      9  C   UNL d   1      33.093  17.535 -22.948  0.00  0.00     0.024 A 
ENDROOT
BRANCH   1  10
ATOM     10  C   UNL d   1      33.114  21.024 -22.323  0.00  0.00     0.271 C 
ATOM     11  N   UNL d   1      33.154  21.625 -22.869  0.00  0.00    -0.272 N 
ATOM     12  C   UNL d   1      33.161  21.446 -23.674  0.00  0.00     0.083 A 
ATOM     13  C   UNL d   1      33.187  22.422 -22.624  0.00  0.00     0.083 A 
ATOM     14  C   UNL d   1      33.201  22.045 -24.238  0.00  0.00     0.019 A 
ATOM     15  C   UNL d   1      33.234  22.834 -23.999  0.00  0.00     0.003 A 
ATOM     16  C   UNL d   1      33.227  23.022 -23.191  0.00  0.00     0.019 A 
ATOM     17  O   UNL d   1      33.106  21.187 -21.513  0.00  0.00    -0.266 OA
ENDBRANCH   1  10
BRANCH   6  18
ATOM     18  N   UNL d   1      32.731  17.181 -24.298  0.00  0.00    -0.114 N 
ATOM     19  O   UNL d   1      32.130  16.609 -24.181  0.00  0.00    -0.532 OA
ATOM     20  O   UNL d   1      33.181  17.173 -24.983  0.00  0.00    -0.532 OA
ENDBRANCH   6  18
TORSDOF 2
ENDMDL
