MODEL 1
REMARK VINA RESULT:      20.9      0.000      0.000
REMARK  6 active torsions:
REMARK  status: ('A' for Active; 'I' for Inactive)
REMARK       I    between atoms: C_2  and  N_1 
REMARK    1  A    between atoms: C_15  and  C_2 
REMARK    2  A    between atoms: C_3  and  C_4 
REMARK    3  A    between atoms: C_9  and  O_14 
REMARK    4  A    between atoms: O_14  and  C_21 
REMARK    5  A    between atoms: C_22  and  C_15 
REMARK    6  A    between atoms: C_21  and  C_22 
ROOT
ATOM      1  O   UNL d   1      13.840  11.779  -1.688  0.00  0.00    -0.305 OA
ENDROOT
BRANCH   1   2
ATOM      2  C   UNL d   1      13.692  11.972  -2.472  0.00  0.00     0.100 A 
ATOM      3  C   UNL d   1      12.928  11.895  -2.786  0.00  0.00     0.024 A 
ATOM      4  C   UNL d   1      12.769  12.085  -3.566  0.00  0.00    -0.002 A 
ATOM      5  C   UNL d   1      13.386  12.361  -4.059  0.00  0.00    -0.023 A 
ATOM      6  C   UNL d   1      14.145  12.441  -3.756  0.00  0.00    -0.002 A 
ATOM      7  C   UNL d   1      14.309  12.249  -2.965  0.00  0.00     0.024 A 
BRANCH   5   8
ATOM      8  C   UNL d   1      13.229  12.552  -4.842  0.00  0.00     0.019 C 
ATOM      9  C   UNL d   1      12.864  12.009  -5.337  0.00  0.00     0.004 C 
ATOM     10  C   UNL d   1      13.440  13.299  -5.135  0.00  0.00     0.004 C 
ATOM     11  C   UNL d   1      12.948  11.780  -4.751  0.00  0.00     0.004 C 
ENDBRANCH   5   8
ENDBRANCH   1   2
BRANCH   1  12
ATOM     12  C   UNL d   1      13.863  12.380  -1.118  0.00  0.00     0.123 C 
BRANCH  12  13
ATOM     13  C   UNL d   1      14.417  12.342  -0.508  0.00  0.00     0.032 C 
BRANCH  13  14
ATOM     14  C   UNL d   1      14.570  13.011  -0.055  0.00  0.00     0.063 C 
BRANCH  14  15
ATOM     15  C   UNL d   1      15.289  13.408  -0.146  0.00  0.00     0.265 C 
ATOM     16  N   UNL d   1      15.309  14.236  -0.133  0.00  0.00    -0.268 N 
ATOM     17  C   UNL d   1      16.020  14.643  -0.224  0.00  0.00     0.110 A 
ATOM     18  C   UNL d   1      14.598  14.664  -0.027  0.00  0.00     0.110 A 
ATOM     19  C   UNL d   1      16.034  15.459  -0.210  0.00  0.00     0.142 A 
ATOM     20  O   UNL d   1      15.323  15.888  -0.104  0.00  0.00    -0.300 OA
ATOM     21  C   UNL d   1      14.623  15.484  -0.015  0.00  0.00     0.142 A 
ATOM     22  O   UNL d   1      15.993  12.984  -0.252  0.00  0.00    -0.267 OA
ENDBRANCH  14  15
ENDBRANCH  13  14
ENDBRANCH  12  13
ENDBRANCH   1  12
TORSDOF 6
ENDMDL
