MODEL 1
REMARK VINA RESULT:      -5.7      0.000      0.000
REMARK  10 active torsions:
REMARK  status: ('A' for Active; 'I' for Inactive)
REMARK    1  A    between atoms: C_5  and  C_1 
REMARK    2  A    between atoms: N_6  and  C_2 
REMARK    3  A    between atoms: C_7  and  C_5 
REMARK    4  A    between atoms: C_8  and  C_5 
REMARK    5  A    between atoms: O_13  and  C_7 
REMARK    6  A    between atoms: C_20  and  N_12 
REMARK    7  A    between atoms: C_19  and  O_13 
REMARK    8  A    between atoms: C_23  and  C_19 
REMARK    9  A    between atoms: C_24  and  C_23 
REMARK   10  A    between atoms: C_25  and  C_23 
ROOT
ATOM      1  C   UNL d   1      52.225  32.932  53.080  0.00  0.00     0.122 A 
ATOM      2  C   UNL d   1      52.851  33.094  53.588  0.00  0.00     0.166 A 
ATOM      3  N   UNL d   1      53.362  32.485  53.796  0.00  0.00    -0.225 NA
ATOM      4  N   UNL d   1      52.111  32.171  52.783  0.00  0.00    -0.241 NA
ATOM      5  C   UNL d   1      53.256  31.731  53.507  0.00  0.00     0.101 A 
ATOM      6  C   UNL d   1      52.625  31.572  52.997  0.00  0.00     0.099 A 
ATOM      7  C   UNL d   1      53.773  31.124  53.720  0.00  0.00     0.021 A 
ATOM      8  C   UNL d   1      52.516  30.817  52.705  0.00  0.00     0.021 A 
ATOM      9  C   UNL d   1      53.658  30.363  53.423  0.00  0.00     0.002 A 
ATOM     10  C   UNL d   1      53.032  30.210  52.918  0.00  0.00     0.002 A 
ENDROOT
BRANCH   1  11
ATOM     11  C   UNL d   1      51.698  33.536  52.859  0.00  0.00     0.105 C 
BRANCH  11  12
ATOM     12  C   UNL d   1      50.918  33.540  53.134  0.00  0.00     0.303 C 
ATOM     13  O   UNL d   1      50.710  33.024  53.729  0.00  0.00    -0.259 OA
BRANCH  12  14
ATOM     14  O   UNL d   1      50.380  34.056  52.806  0.00  0.00    -0.271 OA
BRANCH  14  15
ATOM     15  C   UNL d   1      49.632  34.187  52.503  0.00  0.00     0.126 C 
BRANCH  15  16
ATOM     16  C   UNL d   1      49.273  34.908  52.624  0.00  0.00     0.025 C 
BRANCH  16  17
ATOM     17  C   UNL d   1      49.249  35.229  53.367  0.00  0.00     0.002 C 
ATOM     18  C   UNL d   1      48.695  35.816  53.546  0.00  0.00     0.000 C 
ENDBRANCH  16  17
BRANCH  16  19
ATOM     19  C   UNL d   1      48.938  35.305  51.987  0.00  0.00     0.002 C 
ATOM     20  C   UNL d   1      48.406  34.928  51.488  0.00  0.00     0.000 C 
ENDBRANCH  16  19
ENDBRANCH  15  16
ENDBRANCH  14  15
ENDBRANCH  12  14
ENDBRANCH  11  12
BRANCH  11  21
ATOM     21  C   UNL d   1      51.961  34.143  52.355  0.00  0.00     0.129 C 
ATOM     22  N   UNL d   1      51.843  34.113  51.411  0.00  0.00    -0.146 N 
ENDBRANCH  11  21
ENDBRANCH   1  11
BRANCH   2  23
ATOM     23  N   UNL d   1      52.959  33.853  53.880  0.00  0.00    -0.285 N 
ATOM     24  C   UNL d   1      53.310  34.426  53.413  0.00  0.00     0.101 A 
ATOM     25  C   UNL d   1      53.416  35.187  53.712  0.00  0.00     0.100 A 
ATOM     26  N   UNL d   1      53.169  35.368  54.480  0.00  0.00    -0.300 N 
ATOM     27  C   UNL d   1      52.815  34.788  54.948  0.00  0.00     0.100 A 
ATOM     28  C   UNL d   1      52.712  34.034  54.648  0.00  0.00     0.101 A 
BRANCH  26  29
ATOM     29  C   UNL d   1      53.277  36.137  54.779  0.00  0.00     0.080 C 
ATOM     30  C   UNL d   1      52.620  36.630  54.874  0.00  0.00     0.021 C 
ENDBRANCH  26  29
ENDBRANCH   2  23
TORSDOF 10
ENDMDL
MODEL 2
REMARK VINA RESULT:      -5.4      1.325      4.280
REMARK  10 active torsions:
REMARK  status: ('A' for Active; 'I' for Inactive)
REMARK    1  A    between atoms: C_5  and  C_1 
REMARK    2  A    between atoms: N_6  and  C_2 
REMARK    3  A    between atoms: C_7  and  C_5 
REMARK    4  A    between atoms: C_8  and  C_5 
REMARK    5  A    between atoms: O_13  and  C_7 
REMARK    6  A    between atoms: C_20  and  N_12 
REMARK    7  A    between atoms: C_19  and  O_13 
REMARK    8  A    between atoms: C_23  and  C_19 
REMARK    9  A    between atoms: C_24  and  C_23 
REMARK   10  A    between atoms: C_25  and  C_23 
ROOT
ATOM      1  C   UNL d   1      52.576  32.915  53.706  0.00  0.00     0.122 A 
ATOM      2  C   UNL d   1      52.385  33.707  53.594  0.00  0.00     0.166 A 
ATOM      3  N   UNL d   1      52.834  34.282  53.970  0.00  0.00    -0.225 NA
ATOM      4  N   UNL d   1      53.210  32.700  54.188  0.00  0.00    -0.241 NA
ATOM      5  C   UNL d   1      53.462  34.079  54.448  0.00  0.00     0.101 A 
ATOM      6  C   UNL d   1      53.652  33.281  54.557  0.00  0.00     0.099 A 
ATOM      7  C   UNL d   1      53.910  34.661  54.822  0.00  0.00     0.021 A 
ATOM      8  C   UNL d   1      54.281  33.073  55.036  0.00  0.00     0.021 A 
ATOM      9  C   UNL d   1      54.544  34.447  55.304  0.00  0.00     0.002 A 
ATOM     10  C   UNL d   1      54.729  33.656  55.410  0.00  0.00     0.002 A 
ENDROOT
BRANCH   1  11
ATOM     11  C   UNL d   1      52.132  32.320  53.333  0.00  0.00     0.105 C 
BRANCH  11  12
ATOM     12  C   UNL d   1      52.497  31.761  52.844  0.00  0.00     0.303 C 
ATOM     13  O   UNL d   1      52.662  31.964  52.073  0.00  0.00    -0.259 OA
BRANCH  12  14
ATOM     14  O   UNL d   1      52.681  31.027  53.144  0.00  0.00    -0.271 OA
BRANCH  14  15
ATOM     15  C   UNL d   1      52.840  30.236  53.009  0.00  0.00     0.126 C 
BRANCH  15  16
ATOM     16  C   UNL d   1      53.274  29.817  53.556  0.00  0.00     0.025 C 
BRANCH  16  17
ATOM     17  C   UNL d   1      54.072  29.937  53.619  0.00  0.00     0.002 C 
ATOM     18  C   UNL d   1      54.598  29.431  53.232  0.00  0.00     0.000 C 
ENDBRANCH  16  17
BRANCH  16  19
ATOM     19  C   UNL d   1      52.895  29.273  54.042  0.00  0.00     0.002 C 
ATOM     20  C   UNL d   1      53.246  29.011  54.737  0.00  0.00     0.000 C 
ENDBRANCH  16  19
ENDBRANCH  15  16
ENDBRANCH  14  15
ENDBRANCH  12  14
ENDBRANCH  11  12
BRANCH  11  21
ATOM     21  C   UNL d   1      51.309  32.288  53.454  0.00  0.00     0.129 C 
ATOM     22  N   UNL d   1      50.844  31.469  53.593  0.00  0.00    -0.146 N 
ENDBRANCH  11  21
ENDBRANCH   1  11
BRANCH   2  23
ATOM     23  N   UNL d   1      51.752  33.914  53.114  0.00  0.00    -0.285 N 
ATOM     24  C   UNL d   1      51.870  34.044  52.315  0.00  0.00     0.101 A 
ATOM     25  C   UNL d   1      51.230  34.252  51.837  0.00  0.00     0.100 A 
ATOM     26  N   UNL d   1      50.475  34.327  52.166  0.00  0.00    -0.300 N 
ATOM     27  C   UNL d   1      50.361  34.195  52.972  0.00  0.00     0.100 A 
ATOM     28  C   UNL d   1      50.997  33.989  53.443  0.00  0.00     0.101 A 
BRANCH  26  29
ATOM     29  C   UNL d   1      49.832  34.537  51.681  0.00  0.00     0.080 C 
ATOM     30  C   UNL d   1      49.150  34.849  52.029  0.00  0.00     0.021 C 
ENDBRANCH  26  29
ENDBRANCH   2  23
TORSDOF 10
ENDMDL
MODEL 3
REMARK VINA RESULT:      -4.5      1.488      3.771
REMARK  10 active torsions:
REMARK  status: ('A' for Active; 'I' for Inactive)
REMARK    1  A    between atoms: C_5  and  C_1 
REMARK    2  A    between atoms: N_6  and  C_2 
REMARK    3  A    between atoms: C_7  and  C_5 
REMARK    4  A    between atoms: C_8  and  C_5 
REMARK    5  A    between atoms: O_13  and  C_7 
REMARK    6  A    between atoms: C_20  and  N_12 
REMARK    7  A    between atoms: C_19  and  O_13 
REMARK    8  A    between atoms: C_23  and  C_19 
REMARK    9  A    between atoms: C_24  and  C_23 
REMARK   10  A    between atoms: C_25  and  C_23 
ROOT
ATOM      1  C   UNL d   1      52.525  33.106  53.124  0.00  0.00     0.122 A 
ATOM      2  C   UNL d   1      51.778  32.827  52.928  0.00  0.00     0.166 A 
ATOM      3  N   UNL d   1      51.662  32.017  52.856  0.00  0.00    -0.225 NA
ATOM      4  N   UNL d   1      53.151  32.582  53.246  0.00  0.00    -0.241 NA
ATOM      5  C   UNL d   1      52.274  31.493  52.975  0.00  0.00     0.101 A 
ATOM      6  C   UNL d   1      53.025  31.778  53.172  0.00  0.00     0.099 A 
ATOM      7  C   UNL d   1      52.151  30.680  52.901  0.00  0.00     0.021 A 
ATOM      8  C   UNL d   1      53.642  31.255  53.292  0.00  0.00     0.021 A 
ATOM      9  C   UNL d   1      52.776  30.157  53.023  0.00  0.00     0.002 A 
ATOM     10  C   UNL d   1      53.518  30.443  53.218  0.00  0.00     0.002 A 
ENDROOT
BRANCH   1  11
ATOM     11  C   UNL d   1      52.661  33.923  53.201  0.00  0.00     0.105 C 
BRANCH  11  12
ATOM     12  C   UNL d   1      52.829  34.257  53.939  0.00  0.00     0.303 C 
ATOM     13  O   UNL d   1      52.241  34.663  54.329  0.00  0.00    -0.259 OA
BRANCH  12  14
ATOM     14  O   UNL d   1      53.574  34.172  54.256  0.00  0.00    -0.271 OA
BRANCH  14  15
ATOM     15  C   UNL d   1      54.186  34.485  54.700  0.00  0.00     0.126 C 
BRANCH  15  16
ATOM     16  C   UNL d   1      54.652  33.987  55.144  0.00  0.00     0.025 C 
BRANCH  16  17
ATOM     17  C   UNL d   1      54.395  33.729  55.867  0.00  0.00     0.002 C 
ATOM     18  C   UNL d   1      54.849  33.189  56.298  0.00  0.00     0.000 C 
ENDBRANCH  16  17
BRANCH  16  19
ATOM     19  C   UNL d   1      55.383  33.751  54.853  0.00  0.00     0.002 C 
ATOM     20  C   UNL d   1      55.938  34.303  54.605  0.00  0.00     0.000 C 
ENDBRANCH  16  19
ENDBRANCH  15  16
ENDBRANCH  14  15
ENDBRANCH  12  14
ENDBRANCH  11  12
BRANCH  11  21
ATOM     21  C   UNL d   1      52.625  34.408  52.526  0.00  0.00     0.129 C 
ATOM     22  N   UNL d   1      53.345  34.972  52.262  0.00  0.00    -0.146 N 
ENDBRANCH  11  21
ENDBRANCH   1  11
BRANCH   2  23
ATOM     23  N   UNL d   1      51.159  33.353  52.808  0.00  0.00    -0.285 N 
ATOM     24  C   UNL d   1      50.677  33.569  53.432  0.00  0.00     0.101 A 
ATOM     25  C   UNL d   1      50.058  34.099  53.304  0.00  0.00     0.100 A 
ATOM     26  N   UNL d   1      49.927  34.408  52.549  0.00  0.00    -0.300 N 
ATOM     27  C   UNL d   1      50.415  34.188  51.922  0.00  0.00     0.100 A 
ATOM     28  C   UNL d   1      51.029  33.663  52.052  0.00  0.00     0.101 A 
BRANCH  26  29
ATOM     29  C   UNL d   1      49.301  34.942  52.424  0.00  0.00     0.080 C 
ATOM     30  C   UNL d   1      48.832  34.863  51.748  0.00  0.00     0.021 C 
ENDBRANCH  26  29
ENDBRANCH   2  23
TORSDOF 10
ENDMDL
MODEL 4
REMARK VINA RESULT:      -4.5      0.704      3.174
REMARK  10 active torsions:
REMARK  status: ('A' for Active; 'I' for Inactive)
REMARK    1  A    between atoms: C_5  and  C_1 
REMARK    2  A    between atoms: N_6  and  C_2 
REMARK    3  A    between atoms: C_7  and  C_5 
REMARK    4  A    between atoms: C_8  and  C_5 
REMARK    5  A    between atoms: O_13  and  C_7 
REMARK    6  A    between atoms: C_20  and  N_12 
REMARK    7  A    between atoms: C_19  and  O_13 
REMARK    8  A    between atoms: C_23  and  C_19 
REMARK    9  A    between atoms: C_24  and  C_23 
REMARK   10  A    between atoms: C_25  and  C_23 
ROOT
ATOM      1  C   UNL d   1      52.101  34.020  53.413  0.00  0.00     0.122 A 
ATOM      2  C   UNL d   1      52.653  33.487  53.707  0.00  0.00     0.166 A 
ATOM      3  N   UNL d   1      53.207  33.749  54.253  0.00  0.00    -0.225 NA
ATOM      4  N   UNL d   1      52.102  34.806  53.662  0.00  0.00    -0.241 NA
ATOM      5  C   UNL d   1      53.216  34.524  54.504  0.00  0.00     0.101 A 
ATOM      6  C   UNL d   1      52.659  35.057  54.206  0.00  0.00     0.099 A 
ATOM      7  C   UNL d   1      53.776  34.781  55.053  0.00  0.00     0.021 A 
ATOM      8  C   UNL d   1      52.664  35.835  54.455  0.00  0.00     0.021 A 
ATOM      9  C   UNL d   1      53.777  35.567  55.301  0.00  0.00     0.002 A 
ATOM     10  C   UNL d   1      53.224  36.092  55.004  0.00  0.00     0.002 A 
ENDROOT
BRANCH   1  11
ATOM     11  C   UNL d   1      51.532  33.771  52.860  0.00  0.00     0.105 C 
BRANCH  11  12
ATOM     12  C   UNL d   1      50.734  33.715  53.068  0.00  0.00     0.303 C 
ATOM     13  O   UNL d   1      50.519  33.195  53.658  0.00  0.00    -0.259 OA
BRANCH  12  14
ATOM     14  O   UNL d   1      50.184  34.176  52.683  0.00  0.00    -0.271 OA
BRANCH  14  15
ATOM     15  C   UNL d   1      49.438  34.250  52.356  0.00  0.00     0.126 C 
BRANCH  15  16
ATOM     16  C   UNL d   1      49.051  34.965  52.403  0.00  0.00     0.025 C 
BRANCH  16  17
ATOM     17  C   UNL d   1      48.950  35.323  53.122  0.00  0.00     0.002 C 
ATOM     18  C   UNL d   1      48.378  35.914  53.213  0.00  0.00     0.000 C 
ENDBRANCH  16  17
BRANCH  16  19
ATOM     19  C   UNL d   1      48.765  35.317  51.718  0.00  0.00     0.002 C 
ATOM     20  C   UNL d   1      48.300  34.895  51.190  0.00  0.00     0.000 C 
ENDBRANCH  16  19
ENDBRANCH  15  16
ENDBRANCH  14  15
ENDBRANCH  12  14
ENDBRANCH  11  12
BRANCH  11  21
ATOM     21  C   UNL d   1      51.771  33.578  52.087  0.00  0.00     0.129 C 
ATOM     22  N   UNL d   1      51.797  34.219  51.383  0.00  0.00    -0.146 N 
ENDBRANCH  11  21
ENDBRANCH   1  11
BRANCH   2  23
ATOM     23  N   UNL d   1      52.646  32.705  53.455  0.00  0.00    -0.285 N 
ATOM     24  C   UNL d   1      52.121  32.172  53.786  0.00  0.00     0.101 A 
ATOM     25  C   UNL d   1      52.119  31.389  53.529  0.00  0.00     0.100 A 
ATOM     26  N   UNL d   1      52.646  31.145  52.940  0.00  0.00    -0.300 N 
ATOM     27  C   UNL d   1      53.174  31.686  52.608  0.00  0.00     0.100 A 
ATOM     28  C   UNL d   1      53.173  32.462  52.866  0.00  0.00     0.101 A 
BRANCH  26  29
ATOM     29  C   UNL d   1      52.641  30.354  52.683  0.00  0.00     0.080 C 
ATOM     30  C   UNL d   1      52.969  29.770  53.168  0.00  0.00     0.021 C 
ENDBRANCH  26  29
ENDBRANCH   2  23
TORSDOF 10
ENDMDL
MODEL 5
REMARK VINA RESULT:      -3.4      1.029      4.052
REMARK  10 active torsions:
REMARK  status: ('A' for Active; 'I' for Inactive)
REMARK    1  A    between atoms: C_5  and  C_1 
REMARK    2  A    between atoms: N_6  and  C_2 
REMARK    3  A    between atoms: C_7  and  C_5 
REMARK    4  A    between atoms: C_8  and  C_5 
REMARK    5  A    between atoms: O_13  and  C_7 
REMARK    6  A    between atoms: C_20  and  N_12 
REMARK    7  A    between atoms: C_19  and  O_13 
REMARK    8  A    between atoms: C_23  and  C_19 
REMARK    9  A    between atoms: C_24  and  C_23 
REMARK   10  A    between atoms: C_25  and  C_23 
ROOT
ATOM      1  C   UNL d   1      51.020  34.123  52.877  0.00  0.00     0.122 A 
ATOM      2  C   UNL d   1      51.147  34.657  53.488  0.00  0.00     0.166 A 
ATOM      3  N   UNL d   1      50.546  35.177  53.694  0.00  0.00    -0.225 NA
ATOM      4  N   UNL d   1      50.299  34.108  52.475  0.00  0.00    -0.241 NA
ATOM      5  C   UNL d   1      49.831  35.170  53.302  0.00  0.00     0.101 A 
ATOM      6  C   UNL d   1      49.707  34.631  52.688  0.00  0.00     0.099 A 
ATOM      7  C   UNL d   1      49.232  35.695  53.514  0.00  0.00     0.021 A 
ATOM      8  C   UNL d   1      48.992  34.620  52.292  0.00  0.00     0.021 A 
ATOM      9  C   UNL d   1      48.511  35.680  53.112  0.00  0.00     0.002 A 
ATOM     10  C   UNL d   1      48.392  35.145  52.504  0.00  0.00     0.002 A 
ENDROOT
BRANCH   1  11
ATOM     11  C   UNL d   1      51.617  33.589  52.655  0.00  0.00     0.105 C 
BRANCH  11  12
ATOM     12  C   UNL d   1      51.563  32.787  52.851  0.00  0.00     0.303 C 
ATOM     13  O   UNL d   1      50.863  32.505  53.156  0.00  0.00    -0.259 OA
BRANCH  12  14
ATOM     14  O   UNL d   1      52.207  32.302  52.735  0.00  0.00    -0.271 OA
BRANCH  14  15
ATOM     15  C   UNL d   1      52.506  31.585  52.479  0.00  0.00     0.126 C 
BRANCH  15  16
ATOM     16  C   UNL d   1      52.961  31.138  52.986  0.00  0.00     0.025 C 
BRANCH  16  17
ATOM     17  C   UNL d   1      53.713  31.375  53.170  0.00  0.00     0.002 C 
ATOM     18  C   UNL d   1      54.135  30.984  53.765  0.00  0.00     0.000 C 
ENDBRANCH  16  17
BRANCH  16  19
ATOM     19  C   UNL d   1      52.650  30.448  53.306  0.00  0.00     0.002 C 
ATOM     20  C   UNL d   1      52.695  29.737  52.900  0.00  0.00     0.000 C 
ENDBRANCH  16  19
ENDBRANCH  15  16
ENDBRANCH  14  15
ENDBRANCH  12  14
ENDBRANCH  11  12
BRANCH  11  21
ATOM     21  C   UNL d   1      52.277  33.867  52.232  0.00  0.00     0.129 C 
ATOM     22  N   UNL d   1      52.238  34.080  51.305  0.00  0.00    -0.146 N 
ENDBRANCH  11  21
ENDBRANCH   1  11
BRANCH   2  23
ATOM     23  N   UNL d   1      51.866  34.666  53.884  0.00  0.00    -0.285 N 
ATOM     24  C   UNL d   1      51.969  34.213  54.558  0.00  0.00     0.101 A 
ATOM     25  C   UNL d   1      52.694  34.227  54.951  0.00  0.00     0.100 A 
ATOM     26  N   UNL d   1      53.312  34.697  54.664  0.00  0.00    -0.300 N 
ATOM     27  C   UNL d   1      53.204  35.152  53.985  0.00  0.00     0.100 A 
ATOM     28  C   UNL d   1      52.483  35.136  53.598  0.00  0.00     0.101 A 
BRANCH  26  29
ATOM     29  C   UNL d   1      54.042  34.708  55.063  0.00  0.00     0.080 C 
ATOM     30  C   UNL d   1      54.505  34.023  55.077  0.00  0.00     0.021 C 
ENDBRANCH  26  29
ENDBRANCH   2  23
TORSDOF 10
ENDMDL
