MODEL 1
REMARK VINA RESULT:       8.6      0.000      0.000
REMARK  2 active torsions:
REMARK  status: ('A' for Active; 'I' for Inactive)
REMARK    1  A    between atoms: C_2  and  N_1 
REMARK    2  A    between atoms: C_5  and  C_7 
ROOT
ATOM      1  C   UNL d   1      45.296 -12.933  43.621  0.00  0.00     0.070 A 
ATOM      2  C   UNL d   1      45.152 -13.725  43.816  0.00  0.00     0.024 A 
ATOM      3  C   UNL d   1      45.498 -14.054  44.480  0.00  0.00     0.066 A 
ATOM      4  C   UNL d   1      45.788 -12.470  44.089  0.00  0.00     0.018 A 
ATOM      5  C   UNL d   1      45.995 -13.589  44.955  0.00  0.00     0.006 A 
ATOM      6  C   UNL d   1      46.140 -12.796  44.760  0.00  0.00     0.002 A 
ENDROOT
BRANCH   1   7
ATOM      7  N   UNL d   1      44.949 -12.599  42.952  0.00  0.00    -0.242 N 
ATOM      8  C   UNL d   1      44.152 -12.398  42.845  0.00  0.00     0.267 A 
ATOM      9  C   UNL d   1      44.058 -12.082  42.095  0.00  0.00     0.066 A 
ATOM     10  O   UNL d   1      43.516 -12.484  43.381  0.00  0.00    -0.267 OA
ATOM     11  C   UNL d   1      44.797 -12.080  41.720  0.00  0.00     0.066 A 
ATOM     12  C   UNL d   1      45.344 -12.399  42.249  0.00  0.00     0.267 A 
ATOM     13  O   UNL d   1      46.149 -12.487  42.066  0.00  0.00    -0.267 OA
ENDBRANCH   1   7
BRANCH   3  14
ATOM     14  C   UNL d   1      45.363 -14.837  44.684  0.00  0.00     0.211 C 
ATOM     15  O   UNL d   1      44.626 -15.081  44.944  0.00  0.00    -0.644 OA
ATOM     16  O   UNL d   1      45.986 -15.382  44.625  0.00  0.00    -0.644 OA
ENDBRANCH   3  14
TORSDOF 2
ENDMDL
MODEL 2
REMARK VINA RESULT:      10.8      1.138      1.791
REMARK  2 active torsions:
REMARK  status: ('A' for Active; 'I' for Inactive)
REMARK    1  A    between atoms: C_2  and  N_1 
REMARK    2  A    between atoms: C_5  and  C_7 
ROOT
ATOM      1  C   UNL d   1      44.975 -13.934  44.252  0.00  0.00     0.070 A 
ATOM      2  C   UNL d   1      45.520 -14.557  44.277  0.00  0.00     0.024 A 
ATOM      3  C   UNL d   1      45.315 -15.267  44.627  0.00  0.00     0.066 A 
ATOM      4  C   UNL d   1      44.225 -14.021  44.576  0.00  0.00     0.018 A 
ATOM      5  C   UNL d   1      44.558 -15.359  44.955  0.00  0.00     0.006 A 
ATOM      6  C   UNL d   1      44.013 -14.736  44.929  0.00  0.00     0.002 A 
ENDROOT
BRANCH   1   7
ATOM      7  N   UNL d   1      45.178 -13.217  43.900  0.00  0.00    -0.242 N 
ATOM      8  C   UNL d   1      44.775 -12.820  43.295  0.00  0.00     0.267 A 
ATOM      9  C   UNL d   1      45.178 -12.128  43.121  0.00  0.00     0.066 A 
ATOM     10  O   UNL d   1      44.074 -13.046  42.899  0.00  0.00    -0.267 OA
ATOM     11  C   UNL d   1      45.841 -12.081  43.615  0.00  0.00     0.066 A 
ATOM     12  C   UNL d   1      45.839 -12.753  44.095  0.00  0.00     0.267 A 
ATOM     13  O   UNL d   1      46.425 -12.899  44.665  0.00  0.00    -0.267 OA
ENDBRANCH   1   7
BRANCH   3  14
ATOM     14  C   UNL d   1      45.846 -15.892  44.659  0.00  0.00     0.211 C 
ATOM     15  O   UNL d   1      46.642 -15.775  44.504  0.00  0.00    -0.644 OA
ATOM     16  O   UNL d   1      45.566 -16.650  44.851  0.00  0.00    -0.644 OA
ENDBRANCH   3  14
TORSDOF 2
ENDMDL
MODEL 3
REMARK VINA RESULT:      11.0      6.381      7.460
REMARK  2 active torsions:
REMARK  status: ('A' for Active; 'I' for Inactive)
REMARK    1  A    between atoms: C_2  and  N_1 
REMARK    2  A    between atoms: C_5  and  C_7 
ROOT
ATOM      1  C   UNL d   1      44.789 -15.395  36.827  0.00  0.00     0.070 A 
ATOM      2  C   UNL d   1      44.011 -15.155  36.980  0.00  0.00     0.024 A 
ATOM      3  C   UNL d   1      43.387 -15.655  36.809  0.00  0.00     0.066 A 
ATOM      4  C   UNL d   1      44.943 -16.135  36.503  0.00  0.00     0.018 A 
ATOM      5  C   UNL d   1      43.539 -16.403  36.483  0.00  0.00     0.006 A 
ATOM      6  C   UNL d   1      44.317 -16.643  36.330  0.00  0.00     0.002 A 
ENDROOT
BRANCH   1   7
ATOM      7  N   UNL d   1      45.421 -14.894  36.997  0.00  0.00    -0.242 N 
ATOM      8  C   UNL d   1      46.214 -14.990  36.778  0.00  0.00     0.267 A 
ATOM      9  C   UNL d   1      46.646 -14.357  37.067  0.00  0.00     0.066 A 
ATOM     10  O   UNL d   1      46.563 -15.610  36.337  0.00  0.00    -0.267 OA
ATOM     11  C   UNL d   1      46.129 -13.853  37.473  0.00  0.00     0.066 A 
ATOM     12  C   UNL d   1      45.375 -14.186  37.429  0.00  0.00     0.267 A 
ATOM     13  O   UNL d   1      44.707 -13.834  37.775  0.00  0.00    -0.267 OA
ENDBRANCH   1   7
BRANCH   3  14
ATOM     14  C   UNL d   1      42.612 -15.429  36.956  0.00  0.00     0.211 C 
ATOM     15  O   UNL d   1      42.384 -15.170  37.699  0.00  0.00    -0.644 OA
ATOM     16  O   UNL d   1      42.057 -15.466  36.340  0.00  0.00    -0.644 OA
ENDBRANCH   3  14
TORSDOF 2
ENDMDL
