MODEL 1
REMARK VINA RESULT:      -5.6      0.000      0.000
REMARK  1 active torsions:
REMARK  status: ('A' for Active; 'I' for Inactive)
REMARK    1  A    between atoms: N_14  and  C_8 
ROOT
ATOM      1  C   UNL d   1     -41.877-122.223 -53.917  0.00  0.00     0.056 A 
ATOM      2  C   UNL d   1     -41.548-122.544 -51.481  0.00  0.00     0.074 A 
ATOM      3  C   UNL d   1     -41.715-122.840 -54.441  0.00  0.00    -0.012 A 
ATOM      4  C   UNL d   1     -41.768-122.330 -53.108  0.00  0.00    -0.016 A 
ATOM      5  C   UNL d   1     -41.384-123.164 -52.008  0.00  0.00    -0.014 A 
ATOM      6  C   UNL d   1     -41.494-123.058 -52.816  0.00  0.00    -0.007 A 
ATOM      7  C   UNL d   1     -41.443-123.560 -54.153  0.00  0.00    -0.004 A 
ATOM      8  C   UNL d   1     -41.386-122.816 -50.717  0.00  0.00     0.089 A 
ATOM      9  C   UNL d   1     -41.822-121.817 -51.773  0.00  0.00    -0.017 A 
ATOM     10  C   UNL d   1     -41.331-123.674 -53.340  0.00  0.00    -0.001 A 
ATOM     11  C   UNL d   1     -41.931-121.710 -52.581  0.00  0.00    -0.008 A 
ATOM     12  C   UNL d   1     -42.149-121.501 -54.202  0.00  0.00    -0.015 A 
ATOM     13  C   UNL d   1     -41.123-123.815 -51.566  0.00  0.00    -0.002 A 
ATOM     14  C   UNL d   1     -41.825-122.731 -55.247  0.00  0.00     0.038 A 
ATOM     15  C   UNL d   1     -41.128-123.590 -50.770  0.00  0.00     0.017 A 
ATOM     16  C   UNL d   1     -42.260-121.392 -55.015  0.00  0.00     0.038 A 
ATOM     17  C   UNL d   1     -42.097-122.008 -55.538  0.00  0.00     0.195 A 
ATOM     18  C   UNL d   1     -42.041-121.604 -53.391  0.00  0.00     0.013 C 
ATOM     19  C   UNL d   1     -41.710-121.928 -50.958  0.00  0.00     0.015 C 
ATOM     20  O   UNL d   1     -42.207-121.899 -56.345  0.00  0.00    -0.287 OA
ENDROOT
BRANCH   8  21
ATOM     21  N   UNL d   1     -41.475-122.373 -50.025  0.00  0.00    -0.131 NA
ATOM     22  N   UNL d   1     -41.330-122.681 -49.269  0.00  0.00    -0.023 N 
ENDBRANCH   8  21
TORSDOF 1
ENDMDL
MODEL 2
REMARK VINA RESULT:      -5.4      2.431      4.220
REMARK  1 active torsions:
REMARK  status: ('A' for Active; 'I' for Inactive)
REMARK    1  A    between atoms: N_14  and  C_8 
ROOT
ATOM      1  C   UNL d   1     -41.313-123.105 -50.651  0.00  0.00     0.056 A 
ATOM      2  C   UNL d   1     -41.309-123.064 -53.130  0.00  0.00     0.074 A 
ATOM      3  C   UNL d   1     -41.499-122.423 -50.226  0.00  0.00    -0.012 A 
ATOM      4  C   UNL d   1     -41.312-123.091 -51.474  0.00  0.00    -0.016 A 
ATOM      5  C   UNL d   1     -41.497-122.377 -52.703  0.00  0.00    -0.014 A 
ATOM      6  C   UNL d   1     -41.498-122.391 -51.880  0.00  0.00    -0.007 A 
ATOM      7  C   UNL d   1     -41.684-121.730 -50.627  0.00  0.00    -0.004 A 
ATOM      8  C   UNL d   1     -41.355-122.878 -53.934  0.00  0.00     0.089 A 
ATOM      9  C   UNL d   1     -41.123-123.764 -52.723  0.00  0.00    -0.017 A 
ATOM     10  C   UNL d   1     -41.685-121.709 -51.456  0.00  0.00    -0.001 A 
ATOM     11  C   UNL d   1     -41.124-123.778 -51.901  0.00  0.00    -0.008 A 
ATOM     12  C   UNL d   1     -41.127-123.801 -50.252  0.00  0.00    -0.015 A 
ATOM     13  C   UNL d   1     -41.657-121.772 -53.246  0.00  0.00    -0.002 A 
ATOM     14  C   UNL d   1     -41.500-122.439 -49.405  0.00  0.00     0.038 A 
ATOM     15  C   UNL d   1     -41.567-122.091 -54.004  0.00  0.00     0.017 A 
ATOM     16  C   UNL d   1     -41.128-123.817 -49.425  0.00  0.00     0.038 A 
ATOM     17  C   UNL d   1     -41.314-123.135 -49.001  0.00  0.00     0.195 A 
ATOM     18  C   UNL d   1     -41.125-123.791 -51.077  0.00  0.00     0.013 C 
ATOM     19  C   UNL d   1     -41.123-123.745 -53.554  0.00  0.00     0.015 C 
ATOM     20  O   UNL d   1     -41.315-123.151 -48.180  0.00  0.00    -0.287 OA
ENDROOT
BRANCH   8  21
ATOM     21  N   UNL d   1     -41.209-123.405 -54.553  0.00  0.00    -0.131 NA
ATOM     22  N   UNL d   1     -41.247-123.185 -55.352  0.00  0.00    -0.023 N 
ENDBRANCH   8  21
TORSDOF 1
ENDMDL
MODEL 3
REMARK VINA RESULT:      -4.5      0.987      2.116
REMARK  1 active torsions:
REMARK  status: ('A' for Active; 'I' for Inactive)
REMARK    1  A    between atoms: N_14  and  C_8 
ROOT
ATOM      1  C   UNL d   1     -41.338-123.038 -52.557  0.00  0.00     0.056 A 
ATOM      2  C   UNL d   1     -41.528-123.097 -50.086  0.00  0.00     0.074 A 
ATOM      3  C   UNL d   1     -41.425-122.324 -52.962  0.00  0.00    -0.012 A 
ATOM      4  C   UNL d   1     -41.401-123.057 -51.736  0.00  0.00    -0.016 A 
ATOM      5  C   UNL d   1     -41.616-122.378 -50.492  0.00  0.00    -0.014 A 
ATOM      6  C   UNL d   1     -41.553-122.359 -51.312  0.00  0.00    -0.007 A 
ATOM      7  C   UNL d   1     -41.575-121.633 -52.543  0.00  0.00    -0.004 A 
ATOM      8  C   UNL d   1     -41.620-122.940 -49.279  0.00  0.00     0.089 A 
ATOM      9  C   UNL d   1     -41.376-123.794 -50.509  0.00  0.00    -0.017 A 
ATOM     10  C   UNL d   1     -41.640-121.645 -51.717  0.00  0.00    -0.001 A 
ATOM     11  C   UNL d   1     -41.313-123.775 -51.329  0.00  0.00    -0.008 A 
ATOM     12  C   UNL d   1     -41.188-123.732 -52.973  0.00  0.00    -0.015 A 
ATOM     13  C   UNL d   1     -41.761-121.782 -49.935  0.00  0.00    -0.002 A 
ATOM     14  C   UNL d   1     -41.362-122.308 -53.780  0.00  0.00     0.038 A 
ATOM     15  C   UNL d   1     -41.761-122.139 -49.188  0.00  0.00     0.017 A 
ATOM     16  C   UNL d   1     -41.124-123.715 -53.797  0.00  0.00     0.038 A 
ATOM     17  C   UNL d   1     -41.211-123.001 -54.202  0.00  0.00     0.195 A 
ATOM     18  C   UNL d   1     -41.250-123.755 -52.151  0.00  0.00     0.013 C 
ATOM     19  C   UNL d   1     -41.441-123.809 -49.682  0.00  0.00     0.015 C 
ATOM     20  O   UNL d   1     -41.148-122.984 -55.020  0.00  0.00    -0.287 OA
ENDROOT
BRANCH   8  21
ATOM     21  N   UNL d   1     -41.574-123.502 -48.676  0.00  0.00    -0.131 NA
ATOM     22  N   UNL d   1     -41.514-123.302 -47.874  0.00  0.00    -0.023 N 
ENDBRANCH   8  21
TORSDOF 1
ENDMDL
