MODEL 1
REMARK VINA RESULT:      15.2      0.000      0.000
REMARK  2 active torsions:
REMARK  status: ('A' for Active; 'I' for Inactive)
REMARK    1  A    between atoms: C_6  and  C_1 
REMARK    2  A    between atoms: C_7  and  C_5 
ROOT
ATOM      1  C   UNL d   1      60.251  49.572  51.400  0.00  0.00     0.169 A 
ATOM      2  C   UNL d   1      60.099  49.486  50.665  0.00  0.00     0.048 A 
ATOM      3  N   UNL d   1      58.968  49.708  51.648  0.00  0.00    -0.148 NA
ATOM      4  N   UNL d   1      59.688  49.684  51.897  0.00  0.00    -0.142 NA
ATOM      5  C   UNL d   1      58.816  49.621  50.913  0.00  0.00     0.105 A 
ENDROOT
BRANCH   5   6
ATOM      6  C   UNL d   1      58.133  49.615  50.455  0.00  0.00     0.019 A 
ATOM      7  C   UNL d   1      57.390  49.517  50.810  0.00  0.00     0.002 A 
ATOM      8  C   UNL d   1      56.702  49.511  50.349  0.00  0.00     0.000 A 
ATOM      9  C   UNL d   1      56.755  49.601  49.527  0.00  0.00     0.000 A 
ATOM     10  C   UNL d   1      57.505  49.699  49.168  0.00  0.00     0.000 A 
ATOM     11  C   UNL d   1      56.079  49.595  49.066  0.00  0.00     0.000 C 
ATOM     12  C   UNL d   1      58.187  49.705  49.637  0.00  0.00     0.002 A 
ENDBRANCH   5   6
BRANCH   1  13
ATOM     13  C   UNL d   1      60.972  49.548  51.648  0.00  0.00     0.231 C 
ATOM     14  O   UNL d   1      61.124  49.635  52.384  0.00  0.00    -0.643 OA
ATOM     15  O   UNL d   1      61.535  49.435  51.151  0.00  0.00    -0.643 OA
ENDBRANCH   1  13
TORSDOF 2
ENDMDL
MODEL 2
REMARK VINA RESULT:      17.5      2.217      3.883
REMARK  2 active torsions:
REMARK  status: ('A' for Active; 'I' for Inactive)
REMARK    1  A    between atoms: C_6  and  C_1 
REMARK    2  A    between atoms: C_7  and  C_5 
ROOT
ATOM      1  C   UNL d   1      57.435  49.501  49.911  0.00  0.00     0.169 A 
ATOM      2  C   UNL d   1      57.619  49.486  50.643  0.00  0.00     0.048 A 
ATOM      3  N   UNL d   1      58.706  49.597  49.594  0.00  0.00    -0.148 NA
ATOM      4  N   UNL d   1      57.975  49.556  49.381  0.00  0.00    -0.142 NA
ATOM      5  C   UNL d   1      58.890  49.582  50.326  0.00  0.00     0.105 A 
ENDROOT
BRANCH   5   6
ATOM      6  C   UNL d   1      59.594  49.613  50.752  0.00  0.00     0.019 A 
ATOM      7  C   UNL d   1      60.324  49.612  50.358  0.00  0.00     0.002 A 
ATOM      8  C   UNL d   1      61.032  49.643  50.787  0.00  0.00     0.000 A 
ATOM      9  C   UNL d   1      61.013  49.676  51.615  0.00  0.00     0.000 A 
ATOM     10  C   UNL d   1      60.275  49.677  52.012  0.00  0.00     0.000 A 
ATOM     11  C   UNL d   1      61.708  49.707  52.043  0.00  0.00     0.000 C 
ATOM     12  C   UNL d   1      59.573  49.645  51.576  0.00  0.00     0.002 A 
ENDBRANCH   5   6
BRANCH   1  13
ATOM     13  C   UNL d   1      56.703  49.460  49.698  0.00  0.00     0.231 C 
ATOM     14  O   UNL d   1      56.172  49.264  50.199  0.00  0.00    -0.643 OA
ATOM     15  O   UNL d   1      56.514  49.618  48.980  0.00  0.00    -0.643 OA
ENDBRANCH   1  13
TORSDOF 2
ENDMDL
