MODEL 1
REMARK VINA RESULT:      15.4      0.000      0.000
REMARK  1 active torsions:
REMARK  status: ('A' for Active; 'I' for Inactive)
REMARK    1  A    between atoms: C_6  and  C_1 
ROOT
ATOM      1  C   UNL d   1     -51.441  24.928  33.316  0.00  0.00     0.162 A 
ATOM      2  N   UNL d   1     -51.515  24.116  33.319  0.00  0.00    -0.225 NA
ATOM      3  N   UNL d   1     -52.196  25.257  33.311  0.00  0.00    -0.225 NA
ATOM      4  C   UNL d   1     -52.328  23.937  33.317  0.00  0.00     0.101 A 
ATOM      5  C   UNL d   1     -52.748  24.640  33.312  0.00  0.00     0.101 A 
ATOM      6  C   UNL d   1     -52.719  23.212  33.319  0.00  0.00     0.021 A 
ATOM      7  C   UNL d   1     -53.568  24.635  33.308  0.00  0.00     0.021 A 
ATOM      8  C   UNL d   1     -53.966  23.913  33.310  0.00  0.00     0.002 A 
ATOM      9  C   UNL d   1     -53.539  23.197  33.316  0.00  0.00     0.002 A 
ENDROOT
BRANCH   1  10
ATOM     10  C   UNL d   1     -50.730  25.352  33.317  0.00  0.00     0.037 A 
ATOM     11  C   UNL d   1     -50.732  26.180  33.327  0.00  0.00     0.024 A 
ATOM     12  C   UNL d   1     -50.025  26.601  33.328  0.00  0.00     0.103 A 
ATOM     13  N   UNL d   1     -50.044  27.437  33.339  0.00  0.00    -0.148 N 
ATOM     14  C   UNL d   1     -49.309  26.205  33.318  0.00  0.00     0.021 A 
ATOM     15  C   UNL d   1     -49.291  25.370  33.308  0.00  0.00     0.002 A 
ATOM     16  C   UNL d   1     -50.010  24.941  33.307  0.00  0.00     0.003 A 
ENDBRANCH   1  10
TORSDOF 1
ENDMDL
