MODEL 1
REMARK VINA RESULT:      56.6      0.000      0.000
REMARK  7 active torsions:
REMARK  status: ('A' for Active; 'I' for Inactive)
REMARK    1  A    between atoms: C_6  and  C_1 
REMARK    2  A    between atoms: O_8  and  C_6 
REMARK    3  A    between atoms: C_13  and  O_8 
REMARK    4  A    between atoms: C_9  and  C_13 
REMARK    5  A    between atoms: C_15  and  C_9 
REMARK    6  A    between atoms: C_19  and  C_11 
REMARK    7  A    between atoms: C_16  and  C_19 
ROOT
ATOM      1  C   UNL d   1     -56.844 -99.313 -43.875  0.00  0.00     0.127 A 
ATOM      2  C   UNL d   1     -57.228 -99.016 -44.582  0.00  0.00     0.305 A 
ATOM      3  O   UNL d   1     -58.036 -98.931 -44.617  0.00  0.00    -0.273 OA
ATOM      4  C   UNL d   1     -57.294 -99.504 -43.252  0.00  0.00     0.013 A 
ATOM      5  C   UNL d   1     -58.480 -99.138 -43.951  0.00  0.00     0.103 A 
ATOM      6  C   UNL d   1     -58.110 -99.423 -43.271  0.00  0.00     0.023 A 
ATOM      7  O   UNL d   1     -56.790 -98.791 -45.294  0.00  0.00    -0.259 OA
ATOM      8  C   UNL d   1     -59.293 -99.053 -43.984  0.00  0.00     0.023 A 
ATOM      9  C   UNL d   1     -58.550 -99.625 -42.620  0.00  0.00     0.002 A 
ATOM     10  C   UNL d   1     -59.339 -99.555 -42.619  0.00  0.00     0.000 A 
ATOM     11  C   UNL d   1     -59.723 -99.258 -43.326  0.00  0.00     0.002 A 
ENDROOT
BRANCH   1  12
ATOM     12  C   UNL d   1     -56.019 -99.411 -43.809  0.00  0.00     0.305 C 
ATOM     13  O   UNL d   1     -55.502 -98.813 -44.082  0.00  0.00    -0.259 OA
BRANCH  12  14
ATOM     14  O   UNL d   1     -55.692-100.125 -43.461  0.00  0.00    -0.268 OA
BRANCH  14  15
ATOM     15  C   UNL d   1     -55.014-100.413 -43.796  0.00  0.00     0.168 C 
BRANCH  15  16
ATOM     16  C   UNL d   1     -54.867-101.223 -43.752  0.00  0.00     0.220 C 
ATOM     17  O   UNL d   1     -54.752-101.656 -44.441  0.00  0.00    -0.284 OA
BRANCH  16  18
ATOM     18  C   UNL d   1     -54.832-101.620 -43.016  0.00  0.00     0.041 A 
ATOM     19  C   UNL d   1     -54.865-102.432 -42.994  0.00  0.00     0.003 A 
ATOM     20  C   UNL d   1     -54.829-102.819 -42.265  0.00  0.00     0.000 A 
ATOM     21  C   UNL d   1     -54.758-102.372 -41.542  0.00  0.00     0.000 A 
ATOM     22  C   UNL d   1     -54.726-101.549 -41.588  0.00  0.00     0.000 A 
ATOM     23  C   UNL d   1     -54.763-101.174 -42.329  0.00  0.00     0.003 A 
ENDBRANCH  16  18
ENDBRANCH  15  16
ENDBRANCH  14  15
ENDBRANCH  12  14
ENDBRANCH   1  12
BRANCH   8  24
ATOM     24  C   UNL d   1     -59.687 -98.770 -44.652  0.00  0.00     0.002 C 
BRANCH  24  25
ATOM     25  C   UNL d   1     -59.690 -99.219 -45.326  0.00  0.00     0.000 C 
ATOM     26  C   UNL d   1     -59.364 -98.895 -46.050  0.00  0.00     0.000 C 
ENDBRANCH  24  25
ENDBRANCH   8  24
TORSDOF 7
ENDMDL
MODEL 2
REMARK VINA RESULT:      58.5      2.364      4.056
REMARK  7 active torsions:
REMARK  status: ('A' for Active; 'I' for Inactive)
REMARK    1  A    between atoms: C_6  and  C_1 
REMARK    2  A    between atoms: O_8  and  C_6 
REMARK    3  A    between atoms: C_13  and  O_8 
REMARK    4  A    between atoms: C_9  and  C_13 
REMARK    5  A    between atoms: C_15  and  C_9 
REMARK    6  A    between atoms: C_19  and  C_11 
REMARK    7  A    between atoms: C_16  and  C_19 
ROOT
ATOM      1  C   UNL d   1     -54.804-101.497 -42.359  0.00  0.00     0.127 A 
ATOM      2  C   UNL d   1     -54.853-101.714 -43.187  0.00  0.00     0.305 A 
ATOM      3  O   UNL d   1     -54.893-101.148 -43.769  0.00  0.00    -0.273 OA
ATOM      4  C   UNL d   1     -54.798-100.728 -42.170  0.00  0.00     0.013 A 
ATOM      5  C   UNL d   1     -54.886-100.353 -43.542  0.00  0.00     0.103 A 
ATOM      6  C   UNL d   1     -54.838-100.144 -42.745  0.00  0.00     0.023 A 
ATOM      7  O   UNL d   1     -54.863-102.537 -43.456  0.00  0.00    -0.259 OA
ATOM      8  C   UNL d   1     -54.926 -99.782 -44.125  0.00  0.00     0.023 A 
ATOM      9  C   UNL d   1     -54.831 -99.362 -42.526  0.00  0.00     0.002 A 
ATOM     10  C   UNL d   1     -54.868 -98.785 -43.067  0.00  0.00     0.000 A 
ATOM     11  C   UNL d   1     -54.918 -99.002 -43.894  0.00  0.00     0.002 A 
ENDROOT
BRANCH   1  12
ATOM     12  C   UNL d   1     -54.761-102.054 -41.740  0.00  0.00     0.305 C 
ATOM     13  O   UNL d   1     -54.762-102.873 -41.912  0.00  0.00    -0.259 OA
BRANCH  12  14
ATOM     14  O   UNL d   1     -54.717-101.795 -40.923  0.00  0.00    -0.268 OA
BRANCH  14  15
ATOM     15  C   UNL d   1     -54.983-102.316 -40.364  0.00  0.00     0.168 C 
BRANCH  15  16
ATOM     16  C   UNL d   1     -55.192-102.022 -39.622  0.00  0.00     0.220 C 
ATOM     17  O   UNL d   1     -54.731-101.443 -39.266  0.00  0.00    -0.284 OA
BRANCH  16  18
ATOM     18  C   UNL d   1     -55.869-102.301 -39.218  0.00  0.00     0.041 A 
ATOM     19  C   UNL d   1     -56.545-102.476 -39.635  0.00  0.00     0.003 A 
ATOM     20  C   UNL d   1     -57.211-102.752 -39.231  0.00  0.00     0.000 A 
ATOM     21  C   UNL d   1     -57.191-102.853 -38.385  0.00  0.00     0.000 A 
ATOM     22  C   UNL d   1     -56.495-102.669 -37.982  0.00  0.00     0.000 A 
ATOM     23  C   UNL d   1     -55.833-102.393 -38.402  0.00  0.00     0.003 A 
ENDBRANCH  16  18
ENDBRANCH  15  16
ENDBRANCH  14  15
ENDBRANCH  12  14
ENDBRANCH   1  12
BRANCH   8  24
ATOM     24  C   UNL d   1     -54.974 -99.965 -44.929  0.00  0.00     0.002 C 
BRANCH  24  25
ATOM     25  C   UNL d   1     -55.698-100.129 -45.251  0.00  0.00     0.000 C 
ATOM     26  C   UNL d   1     -56.346 -99.580 -45.133  0.00  0.00     0.000 C 
ENDBRANCH  24  25
ENDBRANCH   8  24
TORSDOF 7
ENDMDL
