MODEL 1
REMARK VINA RESULT:      49.6      0.000      0.000
REMARK  6 active torsions:
REMARK  status: ('A' for Active; 'I' for Inactive)
REMARK    1  A    between atoms: C_9  and  N_2 
REMARK    2  A    between atoms: O_11  and  C_7 
REMARK    3  A    between atoms: C_8  and  O_10 
REMARK    4  A    between atoms: C_12  and  C_9 
REMARK    5  A    between atoms: O_10  and  C_15 
REMARK    6  A    between atoms: C_15  and  C_12 
ROOT
ATOM      1  C   UNL d   1     -54.756-101.998 -39.401  0.00  0.00     0.087 C 
ENDROOT
BRANCH   1   2
ATOM      2  N   UNL d   1     -55.374-102.309 -38.951  0.00  0.00    -0.251 N 
ATOM      3  C   UNL d   1     -56.097-102.634 -39.207  0.00  0.00     0.378 A 
ATOM      4  O   UNL d   1     -56.526-102.868 -38.537  0.00  0.00    -0.258 OA
ATOM      5  O   UNL d   1     -56.333-102.705 -39.991  0.00  0.00    -0.237 OA
ATOM      6  C   UNL d   1     -56.074-102.691 -37.871  0.00  0.00     0.121 A 
ATOM      7  C   UNL d   1     -56.208-102.795 -37.057  0.00  0.00     0.026 A 
ATOM      8  C   UNL d   1     -55.362-102.346 -38.125  0.00  0.00     0.092 A 
ATOM      9  C   UNL d   1     -55.643-102.559 -36.511  0.00  0.00     0.002 A 
ATOM     10  C   UNL d   1     -54.940-102.217 -36.767  0.00  0.00     0.002 A 
ATOM     11  C   UNL d   1     -54.795-102.109 -37.571  0.00  0.00     0.020 A 
ENDBRANCH   1   2
BRANCH   1  12
ATOM     12  C   UNL d   1     -54.903-101.399 -39.936  0.00  0.00     0.046 C 
BRANCH  12  13
ATOM     13  C   UNL d   1     -54.946-101.567 -40.742  0.00  0.00     0.124 C 
BRANCH  13  14
ATOM     14  O   UNL d   1     -54.734-100.994 -41.296  0.00  0.00    -0.303 OA
BRANCH  14  15
ATOM     15  C   UNL d   1     -54.931-101.094 -42.091  0.00  0.00     0.122 A 
ATOM     16  C   UNL d   1     -54.995-100.437 -42.586  0.00  0.00     0.117 A 
ATOM     17  C   UNL d   1     -55.192-100.533 -43.380  0.00  0.00     0.026 A 
ATOM     18  C   UNL d   1     -55.325-101.296 -43.681  0.00  0.00     0.002 A 
ATOM     19  C   UNL d   1     -55.262-101.952 -43.190  0.00  0.00     0.002 A 
ATOM     20  C   UNL d   1     -55.065-101.851 -42.396  0.00  0.00     0.027 A 
BRANCH  16  21
ATOM     21  O   UNL d   1     -54.862 -99.679 -42.282  0.00  0.00    -0.326 OA
ATOM     22  C   UNL d   1     -55.221 -99.026 -42.640  0.00  0.00     0.181 C 
ENDBRANCH  16  21
ENDBRANCH  14  15
ENDBRANCH  13  14
ENDBRANCH  12  13
ENDBRANCH   1  12
TORSDOF 6
ENDMDL
