MODEL 1
REMARK VINA RESULT:       6.2      0.000      0.000
REMARK  4 active torsions:
REMARK  status: ('A' for Active; 'I' for Inactive)
REMARK    1  A    between atoms: C_3  and  C_1 
REMARK    2  A    between atoms: C_2  and  C_3 
REMARK    3  A    between atoms: C_6  and  C_2 
REMARK    4  A    between atoms: C_4  and  C_6 
ROOT
ATOM      1  C   UNL d   1      45.333 -13.465  44.706  0.00  0.00     0.043 C 
ENDROOT
BRANCH   1   2
ATOM      2  C   UNL d   1      45.605 -12.803  44.308  0.00  0.00     0.202 C 
ATOM      3  O   UNL d   1      46.232 -12.348  44.574  0.00  0.00    -0.286 OA
BRANCH   2   4
ATOM      4  C   UNL d   1      45.246 -12.547  43.588  0.00  0.00     0.068 A 
ATOM      5  S   UNL d   1      44.481 -12.267  43.480  0.00  0.00    -0.083 SA
ATOM      6  C   UNL d   1      44.360 -12.081  42.696  0.00  0.00     0.035 A 
ATOM      7  C   UNL d   1      45.078 -12.253  42.308  0.00  0.00     0.008 A 
ATOM      8  C   UNL d   1      45.623 -12.536  42.830  0.00  0.00     0.010 A 
ENDBRANCH   2   4
ENDBRANCH   1   2
BRANCH   1   9
ATOM      9  C   UNL d   1      45.884 -14.029  44.955  0.00  0.00     0.010 C 
BRANCH   9  10
ATOM     10  C   UNL d   1      45.662 -14.828  44.947  0.00  0.00     0.030 A 
ATOM     11  S   UNL d   1      44.935 -15.201  44.955  0.00  0.00    -0.086 SA
ATOM     12  C   UNL d   1      45.073 -16.019  44.939  0.00  0.00     0.035 A 
ATOM     13  C   UNL d   1      45.839 -16.119  44.922  0.00  0.00     0.007 A 
ATOM     14  C   UNL d   1      46.226 -15.430  44.926  0.00  0.00     0.007 A 
ENDBRANCH   9  10
ENDBRANCH   1   9
TORSDOF 4
ENDMDL
MODEL 2
REMARK VINA RESULT:       7.4      7.175      8.210
REMARK  4 active torsions:
REMARK  status: ('A' for Active; 'I' for Inactive)
REMARK    1  A    between atoms: C_3  and  C_1 
REMARK    2  A    between atoms: C_2  and  C_3 
REMARK    3  A    between atoms: C_6  and  C_2 
REMARK    4  A    between atoms: C_4  and  C_6 
ROOT
ATOM      1  C   UNL d   1      44.150 -15.415  36.527  0.00  0.00     0.043 C 
ENDROOT
BRANCH   1   2
ATOM      2  C   UNL d   1      44.806 -15.644  36.960  0.00  0.00     0.202 C 
ATOM      3  O   UNL d   1      44.827 -16.329  37.410  0.00  0.00    -0.286 OA
BRANCH   2   4
ATOM      4  C   UNL d   1      45.510 -15.180  36.967  0.00  0.00     0.068 A 
ATOM      5  S   UNL d   1      45.791 -14.702  37.574  0.00  0.00    -0.083 SA
ATOM      6  C   UNL d   1      46.491 -14.351  37.351  0.00  0.00     0.035 A 
ATOM      7  C   UNL d   1      46.646 -14.622  36.578  0.00  0.00     0.008 A 
ATOM      8  C   UNL d   1      46.065 -15.122  36.330  0.00  0.00     0.010 A 
ENDBRANCH   2   4
ENDBRANCH   1   2
BRANCH   1   9
ATOM      9  C   UNL d   1      43.583 -15.986  36.337  0.00  0.00     0.010 C 
BRANCH   9  10
ATOM     10  C   UNL d   1      42.784 -15.764  36.335  0.00  0.00     0.030 A 
ATOM     11  S   UNL d   1      42.412 -15.037  36.334  0.00  0.00    -0.086 SA
ATOM     12  C   UNL d   1      41.594 -15.174  36.331  0.00  0.00     0.035 A 
ATOM     13  C   UNL d   1      41.493 -15.940  36.330  0.00  0.00     0.007 A 
ATOM     14  C   UNL d   1      42.182 -16.328  36.332  0.00  0.00     0.007 A 
ENDBRANCH   9  10
ENDBRANCH   1   9
TORSDOF 4
ENDMDL
MODEL 3
REMARK VINA RESULT:       7.5      7.278      8.236
REMARK  4 active torsions:
REMARK  status: ('A' for Active; 'I' for Inactive)
REMARK    1  A    between atoms: C_3  and  C_1 
REMARK    2  A    between atoms: C_2  and  C_3 
REMARK    3  A    between atoms: C_6  and  C_2 
REMARK    4  A    between atoms: C_4  and  C_6 
ROOT
ATOM      1  C   UNL d   1      44.381 -15.459  36.464  0.00  0.00     0.043 C 
ENDROOT
BRANCH   1   2
ATOM      2  C   UNL d   1      43.803 -16.035  36.396  0.00  0.00     0.202 C 
ATOM      3  O   UNL d   1      43.973 -16.835  36.341  0.00  0.00    -0.286 OA
BRANCH   2   4
ATOM      4  C   UNL d   1      42.984 -15.832  36.378  0.00  0.00     0.068 A 
ATOM      5  S   UNL d   1      42.341 -16.342  36.335  0.00  0.00    -0.083 SA
ATOM      6  C   UNL d   1      41.647 -15.916  36.331  0.00  0.00     0.035 A 
ATOM      7  C   UNL d   1      41.871 -15.115  36.374  0.00  0.00     0.008 A 
ATOM      8  C   UNL d   1      42.674 -15.045  36.403  0.00  0.00     0.010 A 
ENDBRANCH   2   4
ENDBRANCH   1   2
BRANCH   1   9
ATOM      9  C   UNL d   1      45.031 -15.608  36.952  0.00  0.00     0.010 C 
BRANCH   9  10
ATOM     10  C   UNL d   1      45.666 -15.075  36.939  0.00  0.00     0.030 A 
ATOM     11  S   UNL d   1      46.037 -14.672  36.333  0.00  0.00    -0.086 SA
ATOM     12  C   UNL d   1      46.643 -14.217  36.669  0.00  0.00     0.035 A 
ATOM     13  C   UNL d   1      46.628 -14.346  37.431  0.00  0.00     0.007 A 
ATOM     14  C   UNL d   1      46.057 -14.854  37.632  0.00  0.00     0.007 A 
ENDBRANCH   9  10
ENDBRANCH   1   9
TORSDOF 4
ENDMDL
MODEL 4
REMARK VINA RESULT:       8.2      2.814      4.737
REMARK  4 active torsions:
REMARK  status: ('A' for Active; 'I' for Inactive)
REMARK    1  A    between atoms: C_3  and  C_1 
REMARK    2  A    between atoms: C_2  and  C_3 
REMARK    3  A    between atoms: C_6  and  C_2 
REMARK    4  A    between atoms: C_4  and  C_6 
ROOT
ATOM      1  C   UNL d   1      45.963 -17.135  44.188  0.00  0.00     0.043 C 
ENDROOT
BRANCH   1   2
ATOM      2  C   UNL d   1      46.196 -17.919  44.239  0.00  0.00     0.202 C 
ATOM      3  O   UNL d   1      46.298 -18.309  44.953  0.00  0.00    -0.286 OA
BRANCH   2   4
ATOM      4  C   UNL d   1      46.347 -18.377  43.547  0.00  0.00     0.068 A 
ATOM      5  S   UNL d   1      46.551 -19.172  43.505  0.00  0.00    -0.083 SA
ATOM      6  C   UNL d   1      46.647 -19.395  42.728  0.00  0.00     0.035 A 
ATOM      7  C   UNL d   1      46.497 -18.711  42.275  0.00  0.00     0.008 A 
ATOM      8  C   UNL d   1      46.315 -18.088  42.752  0.00  0.00     0.010 A 
ENDBRANCH   2   4
ENDBRANCH   1   2
BRANCH   1   9
ATOM      9  C   UNL d   1      45.715 -16.752  44.876  0.00  0.00     0.010 C 
BRANCH   9  10
ATOM     10  C   UNL d   1      45.577 -15.935  44.845  0.00  0.00     0.030 A 
ATOM     11  S   UNL d   1      46.068 -15.295  44.716  0.00  0.00    -0.086 SA
ATOM     12  C   UNL d   1      45.601 -14.610  44.750  0.00  0.00     0.035 A 
ATOM     13  C   UNL d   1      44.876 -14.837  44.892  0.00  0.00     0.007 A 
ATOM     14  C   UNL d   1      44.821 -15.623  44.955  0.00  0.00     0.007 A 
ENDBRANCH   9  10
ENDBRANCH   1   9
TORSDOF 4
ENDMDL
