MODEL 1
REMARK VINA RESULT:      16.6      0.000      0.000
REMARK  5 active torsions:
REMARK  status: ('A' for Active; 'I' for Inactive)
REMARK    1  A    between atoms: C_2  and  N_8 
REMARK    2  A    between atoms: C_14  and  C_4 
REMARK    3  A    between atoms: S_13  and  C_5 
REMARK       I    between atoms: N_8  and  C_11 
REMARK    4  A    between atoms: C_11  and  C_17 
REMARK    5  A    between atoms: C_17  and  S_13 
ROOT
ATOM      1  O   UNL d   1      46.251 -17.505  43.685  0.00  0.00    -0.263 OA
ATOM      2  N   UNL d   1      46.469 -18.567  44.462  0.00  0.00    -0.120 NA
ATOM      3  C   UNL d   1      46.403 -18.323  43.685  0.00  0.00     0.205 A 
ATOM      4  C   UNL d   1      46.226 -17.258  44.474  0.00  0.00     0.236 A 
ATOM      5  N   UNL d   1      46.360 -17.911  44.953  0.00  0.00    -0.114 NA
ENDROOT
BRANCH   4   6
ATOM      6  S   UNL d   1      46.090 -16.479  44.748  0.00  0.00    -0.036 SA
BRANCH   6   7
ATOM      7  C   UNL d   1      45.577 -15.979  44.337  0.00  0.00     0.101 C 
BRANCH   7   8
ATOM      8  C   UNL d   1      44.850 -15.777  44.670  0.00  0.00     0.288 C 
ATOM      9  N   UNL d   1      44.622 -14.985  44.723  0.00  0.00    -0.182 NA
ATOM     10  O   UNL d   1      44.340 -16.369  44.955  0.00  0.00    -0.265 OA
BRANCH   9  11
ATOM     11  C   UNL d   1      45.122 -14.401  44.443  0.00  0.00     0.197 A 
ATOM     12  N   UNL d   1      45.262 -14.112  43.672  0.00  0.00    -0.221 NA
ATOM     13  C   UNL d   1      45.827 -13.522  43.734  0.00  0.00     0.090 A 
ATOM     14  C   UNL d   1      46.136 -13.076  43.094  0.00  0.00     0.021 C 
ATOM     15  C   UNL d   1      46.039 -13.437  44.516  0.00  0.00     0.058 A 
ATOM     16  S   UNL d   1      45.605 -13.980  44.953  0.00  0.00    -0.046 SA
ENDBRANCH   9  11
ENDBRANCH   7   8
ENDBRANCH   6   7
ENDBRANCH   4   6
BRANCH   3  17
ATOM     17  C   UNL d   1      46.465 -18.759  42.984  0.00  0.00     0.046 A 
ATOM     18  C   UNL d   1      46.586 -18.380  42.261  0.00  0.00     0.024 A 
ATOM     19  C   UNL d   1      46.647 -18.816  41.566  0.00  0.00     0.099 A 
ATOM     20  N   UNL d   1      46.587 -19.645  41.591  0.00  0.00    -0.242 NA
ATOM     21  C   UNL d   1      46.466 -20.020  42.317  0.00  0.00     0.099 A 
ATOM     22  C   UNL d   1      46.405 -19.578  43.010  0.00  0.00     0.024 A 
ENDBRANCH   3  17
TORSDOF 5
ENDMDL
MODEL 2
REMARK VINA RESULT:      19.3      1.085      1.434
REMARK  5 active torsions:
REMARK  status: ('A' for Active; 'I' for Inactive)
REMARK    1  A    between atoms: C_2  and  N_8 
REMARK    2  A    between atoms: C_14  and  C_4 
REMARK    3  A    between atoms: S_13  and  C_5 
REMARK       I    between atoms: N_8  and  C_11 
REMARK    4  A    between atoms: C_11  and  C_17 
REMARK    5  A    between atoms: C_17  and  S_13 
ROOT
ATOM      1  O   UNL d   1      46.210 -17.027  44.517  0.00  0.00    -0.263 OA
ATOM      2  N   UNL d   1      46.178 -16.939  43.186  0.00  0.00    -0.120 NA
ATOM      3  C   UNL d   1      46.230 -17.464  43.809  0.00  0.00     0.205 A 
ATOM      4  C   UNL d   1      46.146 -16.229  44.311  0.00  0.00     0.236 A 
ATOM      5  N   UNL d   1      46.126 -16.173  43.493  0.00  0.00    -0.114 NA
ENDROOT
BRANCH   4   6
ATOM      6  S   UNL d   1      46.108 -15.580  44.839  0.00  0.00    -0.036 SA
BRANCH   6   7
ATOM      7  C   UNL d   1      45.737 -14.879  44.608  0.00  0.00     0.101 C 
BRANCH   7   8
ATOM      8  C   UNL d   1      44.916 -14.821  44.644  0.00  0.00     0.288 C 
ATOM      9  N   UNL d   1      44.537 -14.123  44.416  0.00  0.00    -0.182 NA
ATOM     10  O   UNL d   1      44.461 -15.465  44.912  0.00  0.00    -0.265 OA
BRANCH   9  11
ATOM     11  C   UNL d   1      44.982 -13.490  44.153  0.00  0.00     0.197 A 
ATOM     12  N   UNL d   1      45.140 -13.203  43.385  0.00  0.00    -0.221 NA
ATOM     13  C   UNL d   1      45.624 -12.547  43.467  0.00  0.00     0.090 A 
ATOM     14  C   UNL d   1      45.922 -12.081  42.836  0.00  0.00     0.021 C 
ATOM     15  C   UNL d   1      45.770 -12.421  44.259  0.00  0.00     0.058 A 
ATOM     16  S   UNL d   1      45.374 -13.002  44.682  0.00  0.00    -0.046 SA
ENDBRANCH   9  11
ENDBRANCH   7   8
ENDBRANCH   6   7
ENDBRANCH   4   6
BRANCH   3  17
ATOM     17  C   UNL d   1      46.292 -18.291  43.804  0.00  0.00     0.046 A 
ATOM     18  C   UNL d   1      46.383 -18.710  44.508  0.00  0.00     0.024 A 
ATOM     19  C   UNL d   1      46.445 -19.531  44.500  0.00  0.00     0.099 A 
ATOM     20  N   UNL d   1      46.414 -19.941  43.777  0.00  0.00    -0.242 NA
ATOM     21  C   UNL d   1      46.323 -19.516  43.075  0.00  0.00     0.099 A 
ATOM     22  C   UNL d   1      46.262 -18.694  43.089  0.00  0.00     0.024 A 
ENDBRANCH   3  17
TORSDOF 5
ENDMDL
