MODEL 1
REMARK VINA RESULT:      16.9      0.000      0.000
REMARK  2 active torsions:
REMARK  status: ('A' for Active; 'I' for Inactive)
REMARK    1  A    between atoms: C_5  and  C_1 
REMARK    2  A    between atoms: C_10  and  N_4 
ROOT
ATOM      1  N   UNL d   1      46.232 -17.887  43.758  0.00  0.00    -0.273 N 
ATOM      2  C   UNL d   1      46.044 -16.707  44.372  0.00  0.00     0.057 A 
ATOM      3  C   UNL d   1      46.227 -18.019  44.578  0.00  0.00     0.265 A 
ATOM      4  C   UNL d   1      46.120 -17.083  43.636  0.00  0.00     0.086 A 
ATOM      5  C   UNL d   1      46.111 -17.296  44.953  0.00  0.00     0.066 A 
ATOM      6  O   UNL d   1      46.322 -18.755  44.944  0.00  0.00    -0.267 OA
ENDROOT
BRANCH   2   7
ATOM      7  C   UNL d   1      45.926 -15.903  44.450  0.00  0.00     0.149 A 
ATOM      8  N   UNL d   1      46.421 -15.299  44.299  0.00  0.00    -0.227 NA
ATOM      9  C   UNL d   1      46.035 -14.587  44.469  0.00  0.00     0.099 A 
ATOM     10  C   UNL d   1      46.280 -13.810  44.416  0.00  0.00     0.021 A 
ATOM     11  C   UNL d   1      45.286 -14.773  44.731  0.00  0.00     0.083 A 
ATOM     12  C   UNL d   1      45.750 -13.209  44.633  0.00  0.00     0.002 A 
ATOM     13  C   UNL d   1      45.000 -13.395  44.895  0.00  0.00     0.002 A 
ATOM     14  C   UNL d   1      44.759 -14.188  44.947  0.00  0.00     0.019 A 
ATOM     15  N   UNL d   1      45.218 -15.598  44.719  0.00  0.00    -0.288 N 
ATOM     16  C   UNL d   1      44.546 -16.043  44.942  0.00  0.00     0.101 C 
ENDBRANCH   2   7
BRANCH   1  17
ATOM     17  C   UNL d   1      46.333 -18.476  43.213  0.00  0.00     0.067 A 
ATOM     18  C   UNL d   1      46.421 -18.289  42.423  0.00  0.00     0.018 A 
ATOM     19  C   UNL d   1      46.525 -18.882  41.852  0.00  0.00     0.001 A 
ATOM     20  C   UNL d   1      46.611 -18.680  41.072  0.00  0.00     0.000 C 
ATOM     21  C   UNL d   1      46.540 -19.682  42.094  0.00  0.00     0.000 A 
ATOM     22  C   UNL d   1      46.453 -19.869  42.884  0.00  0.00     0.002 A 
ATOM     23  C   UNL d   1      46.647 -20.299  41.519  0.00  0.00     0.000 C 
ATOM     24  C   UNL d   1      46.348 -19.267  43.447  0.00  0.00     0.018 A 
ENDBRANCH   1  17
TORSDOF 2
ENDMDL
