MODEL 1
REMARK VINA RESULT:       3.8      0.000      0.000
REMARK  3 active torsions:
REMARK  status: ('A' for Active; 'I' for Inactive)
REMARK    1  A    between atoms: N_11  and  C_4 
REMARK    2  A    between atoms: C_18  and  N_15 
REMARK    3  A    between atoms: C_22  and  C_18 
ROOT
ATOM      1  N   UNL d   1     -42.265-123.094 -50.167  0.00  0.00    -0.195 N 
ATOM      2  C   UNL d   1     -42.667-123.190 -49.471  0.00  0.00     0.168 A 
ATOM      3  C   UNL d   1     -42.301-123.078 -48.771  0.00  0.00     0.073 A 
ATOM      4  C   UNL d   1     -42.647-123.209 -50.857  0.00  0.00     0.153 A 
ATOM      5  N   UNL d   1     -41.128-122.773 -49.466  0.00  0.00    -0.143 NA
ATOM      6  C   UNL d   1     -41.530-122.869 -48.770  0.00  0.00     0.185 A 
ATOM      7  N   UNL d   1     -43.441-123.399 -49.483  0.00  0.00    -0.227 NA
ATOM      8  C   UNL d   1     -42.699-123.173 -48.081  0.00  0.00     0.007 A 
ATOM      9  N   UNL d   1     -41.145-122.752 -48.068  0.00  0.00    -0.225 NA
ATOM     10  C   UNL d   1     -43.413-123.417 -50.874  0.00  0.00     0.057 A 
ATOM     11  C   UNL d   1     -42.332-123.061 -47.381  0.00  0.00     0.019 A 
ATOM     12  C   UNL d   1     -43.814-123.513 -50.179  0.00  0.00     0.086 A 
ATOM     13  C   UNL d   1     -41.548-122.849 -47.371  0.00  0.00     0.083 A 
ATOM     14  C   UNL d   1     -43.475-123.384 -48.096  0.00  0.00     0.000 C 
ATOM     15  C   UNL d   1     -44.619-123.732 -50.194  0.00  0.00     0.021 C 
ATOM     16  C   UNL d   1     -41.177-122.735 -46.678  0.00  0.00     0.021 C 
ENDROOT
BRANCH   4  17
ATOM     17  N   UNL d   1     -42.225-123.108 -51.572  0.00  0.00    -0.286 N 
ATOM     18  C   UNL d   1     -42.348-122.311 -51.738  0.00  0.00     0.101 A 
ATOM     19  C   UNL d   1     -42.007-121.980 -52.429  0.00  0.00     0.100 A 
ATOM     20  N   UNL d   1     -41.547-122.446 -52.947  0.00  0.00    -0.300 N 
ATOM     21  C   UNL d   1     -41.428-123.256 -52.769  0.00  0.00     0.100 A 
ATOM     22  C   UNL d   1     -41.766-123.592 -52.081  0.00  0.00     0.101 A 
BRANCH  20  23
ATOM     23  C   UNL d   1     -41.213-122.112 -53.628  0.00  0.00     0.080 C 
BRANCH  23  24
ATOM     24  C   UNL d   1     -41.631-122.126 -54.353  0.00  0.00     0.018 A 
ATOM     25  C   UNL d   1     -42.431-122.329 -54.356  0.00  0.00     0.002 A 
ATOM     26  C   UNL d   1     -42.861-122.346 -55.071  0.00  0.00     0.000 A 
ATOM     27  C   UNL d   1     -42.477-122.157 -55.788  0.00  0.00     0.000 A 
ATOM     28  C   UNL d   1     -41.665-121.952 -55.782  0.00  0.00     0.000 A 
ATOM     29  C   UNL d   1     -41.249-121.938 -55.062  0.00  0.00     0.002 A 
ENDBRANCH  23  24
ENDBRANCH  20  23
ENDBRANCH   4  17
TORSDOF 3
ENDMDL
