MODEL 1
REMARK VINA RESULT:      11.8      0.000      0.000
REMARK  3 active torsions:
REMARK  status: ('A' for Active; 'I' for Inactive)
REMARK    1  A    between atoms: N_2  and  S_1 
REMARK    2  A    between atoms: C_3  and  C_7 
REMARK       I    between atoms: N_4  and  C_3 
REMARK    3  A    between atoms: C_13  and  N_4 
ROOT
ATOM      1  N   UNL d   1      45.629 -14.284  44.471  0.00  0.00    -0.233 N 
ATOM      2  C   UNL d   1      45.818 -15.906  44.352  0.00  0.00     0.061 A 
ATOM      3  C   UNL d   1      46.159 -14.601  43.926  0.00  0.00     0.091 A 
ATOM      4  C   UNL d   1      45.200 -14.778  44.950  0.00  0.00     0.091 A 
ATOM      5  C   UNL d   1      45.288 -15.589  44.898  0.00  0.00     0.025 A 
ATOM      6  C   UNL d   1      46.259 -15.411  43.860  0.00  0.00     0.025 A 
ENDROOT
BRANCH   2   7
ATOM      7  C   UNL d   1      45.914 -16.730  44.291  0.00  0.00     0.279 C 
ATOM      8  N   UNL d   1      46.212 -17.051  43.585  0.00  0.00    -0.208 NA
ATOM      9  O   UNL d   1      45.719 -17.216  44.915  0.00  0.00    -0.265 OA
BRANCH   8  10
ATOM     10  C   UNL d   1      46.310 -17.871  43.518  0.00  0.00     0.085 A 
ATOM     11  C   UNL d   1      46.476 -18.329  44.197  0.00  0.00     0.019 A 
ATOM     12  C   UNL d   1      46.572 -19.148  44.122  0.00  0.00     0.002 A 
ATOM     13  C   UNL d   1      46.506 -19.511  43.385  0.00  0.00     0.000 A 
ATOM     14  C   UNL d   1      46.341 -19.055  42.710  0.00  0.00     0.002 A 
ATOM     15  C   UNL d   1      46.603 -20.329  43.314  0.00  0.00     0.000 C 
ATOM     16  C   UNL d   1      46.245 -18.240  42.783  0.00  0.00     0.019 A 
ENDBRANCH   8  10
ENDBRANCH   2   7
BRANCH   1  17
ATOM     17  S   UNL d   1      45.538 -13.463  44.527  0.00  0.00     0.252 S 
ATOM     18  O   UNL d   1      44.818 -13.519  44.127  0.00  0.00    -0.204 OA
ATOM     19  O   UNL d   1      46.321 -13.455  44.955  0.00  0.00    -0.204 OA
ATOM     20  C   UNL d   1      45.450 -12.652  44.583  0.00  0.00     0.164 C 
ENDBRANCH   1  17
TORSDOF 3
ENDMDL
MODEL 2
REMARK VINA RESULT:      12.7      1.921      4.751
REMARK  3 active torsions:
REMARK  status: ('A' for Active; 'I' for Inactive)
REMARK    1  A    between atoms: N_2  and  S_1 
REMARK    2  A    between atoms: C_3  and  C_7 
REMARK       I    between atoms: N_4  and  C_3 
REMARK    3  A    between atoms: C_13  and  N_4 
ROOT
ATOM      1  N   UNL d   1      46.368 -18.836  43.145  0.00  0.00    -0.233 N 
ATOM      2  C   UNL d   1      46.095 -17.363  43.805  0.00  0.00     0.061 A 
ATOM      3  C   UNL d   1      46.470 -18.719  43.954  0.00  0.00     0.091 A 
ATOM      4  C   UNL d   1      46.132 -18.219  42.675  0.00  0.00     0.091 A 
ATOM      5  C   UNL d   1      45.993 -17.480  42.996  0.00  0.00     0.025 A 
ATOM      6  C   UNL d   1      46.335 -17.985  44.291  0.00  0.00     0.025 A 
ENDROOT
BRANCH   2   7
ATOM      7  C   UNL d   1      45.957 -16.614  44.141  0.00  0.00     0.279 C 
ATOM      8  N   UNL d   1      45.900 -15.952  43.642  0.00  0.00    -0.208 NA
ATOM      9  O   UNL d   1      45.879 -16.531  44.948  0.00  0.00    -0.265 OA
BRANCH   8  10
ATOM     10  C   UNL d   1      45.762 -15.204  43.971  0.00  0.00     0.085 A 
ATOM     11  C   UNL d   1      45.077 -15.068  44.430  0.00  0.00     0.019 A 
ATOM     12  C   UNL d   1      44.947 -14.317  44.755  0.00  0.00     0.002 A 
ATOM     13  C   UNL d   1      45.487 -13.708  44.628  0.00  0.00     0.000 A 
ATOM     14  C   UNL d   1      46.168 -13.843  44.172  0.00  0.00     0.002 A 
ATOM     15  C   UNL d   1      45.354 -12.960  44.955  0.00  0.00     0.000 C 
ATOM     16  C   UNL d   1      46.300 -14.590  43.848  0.00  0.00     0.019 A 
ENDBRANCH   8  10
ENDBRANCH   2   7
BRANCH   1  17
ATOM     17  S   UNL d   1      46.507 -19.583  42.817  0.00  0.00     0.252 S 
ATOM     18  O   UNL d   1      46.575 -19.239  42.069  0.00  0.00    -0.204 OA
ATOM     19  O   UNL d   1      46.425 -19.907  43.644  0.00  0.00    -0.204 OA
ATOM     20  C   UNL d   1      46.644 -20.322  42.496  0.00  0.00     0.164 C 
ENDBRANCH   1  17
TORSDOF 3
ENDMDL
