MODEL 1
REMARK VINA RESULT:      -8.8      0.000      0.000
REMARK  4 active torsions:
REMARK  status: ('A' for Active; 'I' for Inactive)
REMARK    1  A    between atoms: N_10  and  C_3 
REMARK    2  A    between atoms: C_12  and  C_5 
REMARK    3  A    between atoms: C_11  and  C_8 
REMARK    4  A    between atoms: C_13  and  N_10 
ROOT
ATOM      1  C   UNL d   1      52.691  33.875  53.785  0.00  0.00     0.168 A 
ATOM      2  N   UNL d   1      51.999  34.199  53.441  0.00  0.00    -0.184 N 
ATOM      3  C   UNL d   1      51.525  33.716  53.004  0.00  0.00     0.217 A 
ATOM      4  N   UNL d   1      52.869  33.086  53.671  0.00  0.00    -0.231 NA
ATOM      5  C   UNL d   1      53.181  34.341  54.228  0.00  0.00     0.057 A 
ATOM      6  N   UNL d   1      52.319  35.441  54.001  0.00  0.00    -0.160 NA
ATOM      7  C   UNL d   1      51.694  32.923  52.882  0.00  0.00     0.067 A 
ATOM      8  C   UNL d   1      52.375  32.604  53.220  0.00  0.00     0.064 A 
ATOM      9  C   UNL d   1      53.001  35.122  54.339  0.00  0.00     0.124 A 
ENDROOT
BRANCH   5  10
ATOM     10  C   UNL d   1      53.862  34.021  54.566  0.00  0.00     0.004 A 
ATOM     11  C   UNL d   1      54.558  34.055  54.153  0.00  0.00     0.000 A 
ATOM     12  C   UNL d   1      55.240  33.735  54.491  0.00  0.00     0.000 A 
ATOM     13  C   UNL d   1      55.204  33.393  55.231  0.00  0.00     0.000 A 
ATOM     14  C   UNL d   1      54.501  33.366  55.632  0.00  0.00     0.000 A 
ATOM     15  C   UNL d   1      53.820  33.686  55.294  0.00  0.00     0.000 A 
ENDBRANCH   5  10
BRANCH   3  16
ATOM     16  N   UNL d   1      50.821  34.046  52.654  0.00  0.00    -0.383 NA
BRANCH  16  17
ATOM     17  C   UNL d   1      50.120  34.370  52.308  0.00  0.00     0.134 C 
ATOM     18  C   UNL d   1      50.009  34.325  51.469  0.00  0.00     0.035 C 
ATOM     19  C   UNL d   1      49.532  34.739  52.805  0.00  0.00     0.035 C 
ENDBRANCH  16  17
ENDBRANCH   3  16
BRANCH   8  20
ATOM     20  C   UNL d   1      52.565  31.781  53.104  0.00  0.00     0.036 C 
ATOM     21  C   UNL d   1      52.170  31.187  53.567  0.00  0.00     0.006 C 
ATOM     22  C   UNL d   1      53.151  31.558  52.522  0.00  0.00     0.006 C 
ATOM     23  C   UNL d   1      52.757  30.969  52.985  0.00  0.00     0.006 C 
ENDBRANCH   8  20
TORSDOF 4
ENDMDL
MODEL 2
REMARK VINA RESULT:      -8.8      0.861      3.625
REMARK  4 active torsions:
REMARK  status: ('A' for Active; 'I' for Inactive)
REMARK    1  A    between atoms: N_10  and  C_3 
REMARK    2  A    between atoms: C_12  and  C_5 
REMARK    3  A    between atoms: C_11  and  C_8 
REMARK    4  A    between atoms: C_13  and  N_10 
ROOT
ATOM      1  C   UNL d   1      52.575  33.812  53.487  0.00  0.00     0.168 A 
ATOM      2  N   UNL d   1      53.240  33.950  53.977  0.00  0.00    -0.184 N 
ATOM      3  C   UNL d   1      53.710  33.325  54.172  0.00  0.00     0.217 A 
ATOM      4  N   UNL d   1      52.417  33.056  53.220  0.00  0.00    -0.231 NA
ATOM      5  C   UNL d   1      52.090  34.424  53.278  0.00  0.00     0.057 A 
ATOM      6  N   UNL d   1      52.905  35.308  54.027  0.00  0.00    -0.160 NA
ATOM      7  C   UNL d   1      53.561  32.562  53.910  0.00  0.00     0.067 A 
ATOM      8  C   UNL d   1      52.906  32.426  53.428  0.00  0.00     0.064 A 
ATOM      9  C   UNL d   1      52.250  35.172  53.545  0.00  0.00     0.124 A 
ENDROOT
BRANCH   5  10
ATOM     10  C   UNL d   1      51.435  34.288  52.795  0.00  0.00     0.004 A 
ATOM     11  C   UNL d   1      50.716  34.147  53.140  0.00  0.00     0.000 A 
ATOM     12  C   UNL d   1      50.061  34.011  52.657  0.00  0.00     0.000 A 
ATOM     13  C   UNL d   1      50.146  34.021  51.845  0.00  0.00     0.000 A 
ATOM     14  C   UNL d   1      50.871  34.163  51.515  0.00  0.00     0.000 A 
ATOM     15  C   UNL d   1      51.526  34.299  51.998  0.00  0.00     0.000 A 
ENDBRANCH   5  10
BRANCH   3  16
ATOM     16  N   UNL d   1      54.386  33.465  54.671  0.00  0.00    -0.383 NA
BRANCH  16  17
ATOM     17  C   UNL d   1      55.060  33.604  55.163  0.00  0.00     0.134 C 
ATOM     18  C   UNL d   1      54.987  33.531  56.004  0.00  0.00     0.035 C 
ATOM     19  C   UNL d   1      55.808  33.816  54.808  0.00  0.00     0.035 C 
ENDBRANCH  16  17
ENDBRANCH   3  16
BRANCH   8  20
ATOM     20  C   UNL d   1      52.738  31.639  53.147  0.00  0.00     0.036 C 
ATOM     21  C   UNL d   1      53.148  31.338  52.465  0.00  0.00     0.006 C 
ATOM     22  C   UNL d   1      52.158  31.157  53.551  0.00  0.00     0.006 C 
ATOM     23  C   UNL d   1      52.568  30.860  52.873  0.00  0.00     0.006 C 
ENDBRANCH   8  20
TORSDOF 4
ENDMDL
MODEL 3
REMARK VINA RESULT:      -8.1      0.964      2.984
REMARK  4 active torsions:
REMARK  status: ('A' for Active; 'I' for Inactive)
REMARK    1  A    between atoms: N_10  and  C_3 
REMARK    2  A    between atoms: C_12  and  C_5 
REMARK    3  A    between atoms: C_11  and  C_8 
REMARK    4  A    between atoms: C_13  and  N_10 
ROOT
ATOM      1  C   UNL d   1      53.060  33.254  53.877  0.00  0.00     0.168 A 
ATOM      2  N   UNL d   1      53.183  32.436  53.742  0.00  0.00    -0.184 N 
ATOM      3  C   UNL d   1      52.653  32.038  53.283  0.00  0.00     0.217 A 
ATOM      4  N   UNL d   1      52.413  33.627  53.547  0.00  0.00    -0.231 NA
ATOM      5  C   UNL d   1      53.579  33.672  54.334  0.00  0.00     0.057 A 
ATOM      6  N   UNL d   1      54.340  32.494  54.526  0.00  0.00    -0.160 NA
ATOM      7  C   UNL d   1      52.000  32.403  52.946  0.00  0.00     0.067 A 
ATOM      8  C   UNL d   1      51.879  33.208  53.080  0.00  0.00     0.064 A 
ATOM      9  C   UNL d   1      54.219  33.299  54.660  0.00  0.00     0.124 A 
ENDROOT
BRANCH   5  10
ATOM     10  C   UNL d   1      53.457  34.477  54.468  0.00  0.00     0.004 A 
ATOM     11  C   UNL d   1      53.061  34.709  55.135  0.00  0.00     0.000 A 
ATOM     12  C   UNL d   1      52.940  35.514  55.269  0.00  0.00     0.000 A 
ATOM     13  C   UNL d   1      53.218  36.062  54.731  0.00  0.00     0.000 A 
ATOM     14  C   UNL d   1      53.612  35.815  54.069  0.00  0.00     0.000 A 
ATOM     15  C   UNL d   1      53.734  35.010  53.935  0.00  0.00     0.000 A 
ENDBRANCH   5  10
BRANCH   3  16
ATOM     16  N   UNL d   1      52.778  31.207  53.145  0.00  0.00    -0.383 NA
BRANCH  16  17
ATOM     17  C   UNL d   1      52.900  30.381  53.010  0.00  0.00     0.134 C 
ATOM     18  C   UNL d   1      53.263  30.124  52.288  0.00  0.00     0.035 C 
ATOM     19  C   UNL d   1      52.656  29.814  53.600  0.00  0.00     0.035 C 
ENDBRANCH  16  17
ENDBRANCH   3  16
BRANCH   8  20
ATOM     20  C   UNL d   1      51.204  33.601  52.736  0.00  0.00     0.036 C 
ATOM     21  C   UNL d   1      50.465  33.613  53.156  0.00  0.00     0.006 C 
ATOM     22  C   UNL d   1      51.276  33.981  51.974  0.00  0.00     0.006 C 
ATOM     23  C   UNL d   1      50.541  33.991  52.393  0.00  0.00     0.006 C 
ENDBRANCH   8  20
TORSDOF 4
ENDMDL
MODEL 4
REMARK VINA RESULT:      -7.8      1.481      3.907
REMARK  4 active torsions:
REMARK  status: ('A' for Active; 'I' for Inactive)
REMARK    1  A    between atoms: N_10  and  C_3 
REMARK    2  A    between atoms: C_12  and  C_5 
REMARK    3  A    between atoms: C_11  and  C_8 
REMARK    4  A    between atoms: C_13  and  N_10 
ROOT
ATOM      1  C   UNL d   1      52.679  32.333  53.539  0.00  0.00     0.168 A 
ATOM      2  N   UNL d   1      52.743  31.501  53.616  0.00  0.00    -0.184 N 
ATOM      3  C   UNL d   1      53.372  31.200  54.021  0.00  0.00     0.217 A 
ATOM      4  N   UNL d   1      53.248  32.816  53.870  0.00  0.00    -0.231 NA
ATOM      5  C   UNL d   1      52.056  32.656  53.137  0.00  0.00     0.057 A 
ATOM      6  N   UNL d   1      51.557  31.355  52.887  0.00  0.00    -0.160 NA
ATOM      7  C   UNL d   1      53.949  31.676  54.357  0.00  0.00     0.067 A 
ATOM      8  C   UNL d   1      53.886  32.495  54.280  0.00  0.00     0.064 A 
ATOM      9  C   UNL d   1      51.494  32.174  52.811  0.00  0.00     0.124 A 
ENDROOT
BRANCH   5  10
ATOM     10  C   UNL d   1      51.993  33.475  53.061  0.00  0.00     0.004 A 
ATOM     11  C   UNL d   1      51.588  33.893  53.624  0.00  0.00     0.000 A 
ATOM     12  C   UNL d   1      51.525  34.712  53.548  0.00  0.00     0.000 A 
ATOM     13  C   UNL d   1      51.869  35.087  52.910  0.00  0.00     0.000 A 
ATOM     14  C   UNL d   1      52.271  34.657  52.355  0.00  0.00     0.000 A 
ATOM     15  C   UNL d   1      52.334  33.838  52.431  0.00  0.00     0.000 A 
ENDBRANCH   5  10
BRANCH   3  16
ATOM     16  N   UNL d   1      53.437  30.354  54.100  0.00  0.00    -0.383 NA
BRANCH  16  17
ATOM     17  C   UNL d   1      53.498  29.514  54.176  0.00  0.00     0.134 C 
ATOM     18  C   UNL d   1      53.739  29.049  53.509  0.00  0.00     0.035 C 
ATOM     19  C   UNL d   1      53.317  29.141  54.923  0.00  0.00     0.035 C 
ENDBRANCH  16  17
ENDBRANCH   3  16
BRANCH   8  20
ATOM     20  C   UNL d   1      54.478  33.003  54.625  0.00  0.00     0.036 C 
ATOM     21  C   UNL d   1      54.411  33.235  55.440  0.00  0.00     0.006 C 
ATOM     22  C   UNL d   1      55.133  33.277  54.148  0.00  0.00     0.006 C 
ATOM     23  C   UNL d   1      55.065  33.506  54.960  0.00  0.00     0.006 C 
ENDBRANCH   8  20
TORSDOF 4
ENDMDL
MODEL 5
REMARK VINA RESULT:      -7.1      1.371      3.207
REMARK  4 active torsions:
REMARK  status: ('A' for Active; 'I' for Inactive)
REMARK    1  A    between atoms: N_10  and  C_3 
REMARK    2  A    between atoms: C_12  and  C_5 
REMARK    3  A    between atoms: C_11  and  C_8 
REMARK    4  A    between atoms: C_13  and  N_10 
ROOT
ATOM      1  C   UNL d   1      52.825  31.670  53.447  0.00  0.00     0.168 A 
ATOM      2  N   UNL d   1      52.329  32.247  53.096  0.00  0.00    -0.184 N 
ATOM      3  C   UNL d   1      52.478  33.025  53.249  0.00  0.00     0.217 A 
ATOM      4  N   UNL d   1      53.441  31.903  53.931  0.00  0.00    -0.231 NA
ATOM      5  C   UNL d   1      52.695  30.884  53.308  0.00  0.00     0.057 A 
ATOM      6  N   UNL d   1      51.596  31.226  52.483  0.00  0.00    -0.160 NA
ATOM      7  C   UNL d   1      53.092  33.270  53.733  0.00  0.00     0.067 A 
ATOM      8  C   UNL d   1      53.580  32.702  54.078  0.00  0.00     0.064 A 
ATOM      9  C   UNL d   1      52.084  30.658  52.829  0.00  0.00     0.124 A 
ENDROOT
BRANCH   5  10
ATOM     10  C   UNL d   1      53.183  30.316  53.654  0.00  0.00     0.004 A 
ATOM     11  C   UNL d   1      52.954  29.973  54.351  0.00  0.00     0.000 A 
ATOM     12  C   UNL d   1      53.442  29.405  54.696  0.00  0.00     0.000 A 
ATOM     13  C   UNL d   1      54.144  29.197  54.334  0.00  0.00     0.000 A 
ATOM     14  C   UNL d   1      54.359  29.548  53.637  0.00  0.00     0.000 A 
ATOM     15  C   UNL d   1      53.871  30.117  53.292  0.00  0.00     0.000 A 
ENDBRANCH   5  10
BRANCH   3  16
ATOM     16  N   UNL d   1      51.974  33.612  52.893  0.00  0.00    -0.383 NA
BRANCH  16  17
ATOM     17  C   UNL d   1      51.472  34.192  52.536  0.00  0.00     0.134 C 
ATOM     18  C   UNL d   1      51.641  34.467  51.752  0.00  0.00     0.035 C 
ATOM     19  C   UNL d   1      50.800  34.495  52.968  0.00  0.00     0.035 C 
ENDBRANCH  16  17
ENDBRANCH   3  16
BRANCH   8  20
ATOM     20  C   UNL d   1      54.225  32.941  54.584  0.00  0.00     0.036 C 
ATOM     21  C   UNL d   1      54.971  33.160  54.240  0.00  0.00     0.006 C 
ATOM     22  C   UNL d   1      54.116  32.959  55.432  0.00  0.00     0.006 C 
ATOM     23  C   UNL d   1      54.858  33.176  55.087  0.00  0.00     0.006 C 
ENDBRANCH   8  20
TORSDOF 4
ENDMDL
MODEL 6
REMARK VINA RESULT:      -6.7      1.038      2.570
REMARK  4 active torsions:
REMARK  status: ('A' for Active; 'I' for Inactive)
REMARK    1  A    between atoms: N_10  and  C_3 
REMARK    2  A    between atoms: C_12  and  C_5 
REMARK    3  A    between atoms: C_11  and  C_8 
REMARK    4  A    between atoms: C_13  and  N_10 
ROOT
ATOM      1  C   UNL d   1      52.422  33.412  53.315  0.00  0.00     0.168 A 
ATOM      2  N   UNL d   1      51.689  33.522  52.924  0.00  0.00    -0.184 N 
ATOM      3  C   UNL d   1      51.343  34.250  52.954  0.00  0.00     0.217 A 
ATOM      4  N   UNL d   1      52.767  34.036  53.714  0.00  0.00    -0.231 NA
ATOM      5  C   UNL d   1      52.787  32.691  53.299  0.00  0.00     0.057 A 
ATOM      6  N   UNL d   1      51.719  32.184  52.518  0.00  0.00    -0.160 NA
ATOM      7  C   UNL d   1      51.681  34.883  53.351  0.00  0.00     0.067 A 
ATOM      8  C   UNL d   1      52.403  34.774  53.736  0.00  0.00     0.064 A 
ATOM      9  C   UNL d   1      52.441  32.075  52.903  0.00  0.00     0.124 A 
ENDROOT
BRANCH   5  10
ATOM     10  C   UNL d   1      53.508  32.582  53.683  0.00  0.00     0.004 A 
ATOM     11  C   UNL d   1      53.509  32.351  54.460  0.00  0.00     0.000 A 
ATOM     12  C   UNL d   1      54.230  32.243  54.844  0.00  0.00     0.000 A 
ATOM     13  C   UNL d   1      54.929  32.368  54.441  0.00  0.00     0.000 A 
ATOM     14  C   UNL d   1      54.913  32.599  53.665  0.00  0.00     0.000 A 
ATOM     15  C   UNL d   1      54.191  32.707  53.281  0.00  0.00     0.000 A 
ENDBRANCH   5  10
BRANCH   3  16
ATOM     16  N   UNL d   1      50.598  34.362  52.557  0.00  0.00    -0.383 NA
BRANCH  16  17
ATOM     17  C   UNL d   1      49.858  34.477  52.164  0.00  0.00     0.134 C 
ATOM     18  C   UNL d   1      49.191  34.761  52.602  0.00  0.00     0.035 C 
ATOM     19  C   UNL d   1      49.790  34.306  51.330  0.00  0.00     0.035 C 
ENDBRANCH  16  17
ENDBRANCH   3  16
BRANCH   8  20
ATOM     20  C   UNL d   1      52.767  35.423  54.153  0.00  0.00     0.036 C 
ATOM     21  C   UNL d   1      52.528  35.598  54.950  0.00  0.00     0.006 C 
ATOM     22  C   UNL d   1      53.369  35.892  53.768  0.00  0.00     0.006 C 
ATOM     23  C   UNL d   1      53.130  36.065  54.561  0.00  0.00     0.006 C 
ENDBRANCH   8  20
TORSDOF 4
ENDMDL
MODEL 7
REMARK VINA RESULT:      -6.4      1.186      3.102
REMARK  4 active torsions:
REMARK  status: ('A' for Active; 'I' for Inactive)
REMARK    1  A    between atoms: N_10  and  C_3 
REMARK    2  A    between atoms: C_12  and  C_5 
REMARK    3  A    between atoms: C_11  and  C_8 
REMARK    4  A    between atoms: C_13  and  N_10 
ROOT
ATOM      1  C   UNL d   1      53.269  33.141  53.980  0.00  0.00     0.168 A 
ATOM      2  N   UNL d   1      53.443  33.904  54.280  0.00  0.00    -0.184 N 
ATOM      3  C   UNL d   1      52.927  34.504  54.126  0.00  0.00     0.217 A 
ATOM      4  N   UNL d   1      52.590  33.023  53.542  0.00  0.00    -0.231 NA
ATOM      5  C   UNL d   1      53.772  32.525  54.122  0.00  0.00     0.057 A 
ATOM      6  N   UNL d   1      54.614  33.397  54.853  0.00  0.00    -0.160 NA
ATOM      7  C   UNL d   1      52.243  34.397  53.688  0.00  0.00     0.067 A 
ATOM      8  C   UNL d   1      52.072  33.646  53.392  0.00  0.00     0.064 A 
ATOM      9  C   UNL d   1      54.443  32.646  54.557  0.00  0.00     0.124 A 
ENDROOT
BRANCH   5  10
ATOM     10  C   UNL d   1      53.601  31.774  53.826  0.00  0.00     0.004 A 
ATOM     11  C   UNL d   1      53.218  31.242  54.302  0.00  0.00     0.000 A 
ATOM     12  C   UNL d   1      53.047  30.491  54.006  0.00  0.00     0.000 A 
ATOM     13  C   UNL d   1      53.264  30.296  53.244  0.00  0.00     0.000 A 
ATOM     14  C   UNL d   1      53.646  30.838  52.780  0.00  0.00     0.000 A 
ATOM     15  C   UNL d   1      53.817  31.589  53.076  0.00  0.00     0.000 A 
ENDBRANCH   5  10
BRANCH   3  16
ATOM     16  N   UNL d   1      53.103  35.280  54.431  0.00  0.00    -0.383 NA
BRANCH  16  17
ATOM     17  C   UNL d   1      53.275  36.051  54.734  0.00  0.00     0.134 C 
ATOM     18  C   UNL d   1      52.882  36.323  55.433  0.00  0.00     0.035 C 
ATOM     19  C   UNL d   1      53.842  36.548  54.333  0.00  0.00     0.035 C 
ENDBRANCH  16  17
ENDBRANCH   3  16
BRANCH   8  20
ATOM     20  C   UNL d   1      51.364  33.517  52.934  0.00  0.00     0.036 C 
ATOM     21  C   UNL d   1      51.355  33.716  52.107  0.00  0.00     0.006 C 
ATOM     22  C   UNL d   1      50.668  33.191  53.308  0.00  0.00     0.006 C 
ATOM     23  C   UNL d   1      50.662  33.389  52.486  0.00  0.00     0.006 C 
ENDBRANCH   8  20
TORSDOF 4
ENDMDL
