MODEL 1
REMARK VINA RESULT:       7.4      0.000      0.000
REMARK  6 active torsions:
REMARK  status: ('A' for Active; 'I' for Inactive)
REMARK    1  A    between atoms: C_5  and  C_1 
REMARK    2  A    between atoms: N_8  and  C_5 
REMARK    3  A    between atoms: C_9  and  C_5 
REMARK    4  A    between atoms: C_19  and  C_7 
REMARK    5  A    between atoms: C_10  and  N_8 
REMARK    6  A    between atoms: O_20  and  C_16 
ROOT
ATOM      1  C   UNL d   1     -41.753-122.339 -51.195  0.00  0.00     0.109 C 
ENDROOT
BRANCH   1   2
ATOM      2  C   UNL d   1     -42.349-122.491 -50.642  0.00  0.00     0.160 A 
ATOM      3  C   UNL d   1     -42.188-122.890 -49.930  0.00  0.00     0.258 A 
ATOM      4  C   UNL d   1     -42.815-123.029 -49.387  0.00  0.00     0.238 A 
ATOM      5  O   UNL d   1     -41.430-123.140 -49.762  0.00  0.00    -0.281 OA
ATOM      6  O   UNL d   1     -42.654-123.428 -48.674  0.00  0.00    -0.283 OA
ATOM      7  C   UNL d   1     -43.574-122.778 -49.555  0.00  0.00     0.073 A 
ATOM      8  C   UNL d   1     -43.735-122.380 -50.267  0.00  0.00     0.146 A 
ATOM      9  O   UNL d   1     -43.134-122.238 -50.803  0.00  0.00    -0.299 OA
BRANCH   8  10
ATOM     10  C   UNL d   1     -44.513-122.127 -50.430  0.00  0.00     0.259 C 
ATOM     11  O   UNL d   1     -44.793-121.379 -50.165  0.00  0.00    -0.281 OA
ENDBRANCH   8  10
ENDBRANCH   1   2
BRANCH   1  12
ATOM     12  N   UNL d   1     -41.123-121.832 -51.022  0.00  0.00    -0.225 NA
BRANCH  12  13
ATOM     13  C   UNL d   1     -41.123-121.060 -51.302  0.00  0.00     0.163 A 
ATOM     14  N   UNL d   1     -41.123-120.913 -52.114  0.00  0.00    -0.225 NA
ATOM     15  C   UNL d   1     -41.124-120.145 -52.391  0.00  0.00     0.101 A 
ATOM     16  C   UNL d   1     -41.124-119.517 -51.860  0.00  0.00     0.021 A 
ATOM     17  C   UNL d   1     -41.124-119.643 -51.045  0.00  0.00     0.005 A 
ATOM     18  C   UNL d   1     -41.123-120.416 -50.764  0.00  0.00     0.039 A 
ENDBRANCH  12  13
ENDBRANCH   1  12
BRANCH   1  19
ATOM     19  C   UNL d   1     -41.794-122.709 -51.943  0.00  0.00     0.020 A 
ATOM     20  C   UNL d   1     -42.287-122.405 -52.529  0.00  0.00     0.004 A 
ATOM     21  C   UNL d   1     -42.322-122.773 -53.263  0.00  0.00     0.024 A 
ATOM     22  C   UNL d   1     -41.867-123.444 -53.413  0.00  0.00     0.094 A 
ATOM     23  C   UNL d   1     -41.371-123.752 -52.830  0.00  0.00     0.024 A 
ATOM     24  C   UNL d   1     -41.338-123.379 -52.093  0.00  0.00     0.004 A 
BRANCH  22  25
ATOM     25  O   UNL d   1     -41.904-123.817 -54.162  0.00  0.00    -0.328 OA
ATOM     26  C   UNL d   1     -41.437-123.539 -54.814  0.00  0.00     0.181 C 
ENDBRANCH  22  25
ENDBRANCH   1  19
TORSDOF 6
ENDMDL
MODEL 2
REMARK VINA RESULT:       8.6      1.168      3.383
REMARK  6 active torsions:
REMARK  status: ('A' for Active; 'I' for Inactive)
REMARK    1  A    between atoms: C_5  and  C_1 
REMARK    2  A    between atoms: N_8  and  C_5 
REMARK    3  A    between atoms: C_9  and  C_5 
REMARK    4  A    between atoms: C_19  and  C_7 
REMARK    5  A    between atoms: C_10  and  N_8 
REMARK    6  A    between atoms: O_20  and  C_16 
ROOT
ATOM      1  C   UNL d   1     -41.817-122.057 -52.274  0.00  0.00     0.109 C 
ENDROOT
BRANCH   1   2
ATOM      2  C   UNL d   1     -41.989-122.255 -53.057  0.00  0.00     0.160 A 
ATOM      3  C   UNL d   1     -41.663-122.931 -53.416  0.00  0.00     0.258 A 
ATOM      4  C   UNL d   1     -41.857-123.105 -54.215  0.00  0.00     0.238 A 
ATOM      5  O   UNL d   1     -41.162-123.417 -52.995  0.00  0.00    -0.281 OA
ATOM      6  O   UNL d   1     -41.531-123.782 -54.574  0.00  0.00    -0.283 OA
ATOM      7  C   UNL d   1     -42.359-122.619 -54.638  0.00  0.00     0.073 A 
ATOM      8  C   UNL d   1     -42.684-121.942 -54.279  0.00  0.00     0.146 A 
ATOM      9  O   UNL d   1     -42.504-121.761 -53.503  0.00  0.00    -0.299 OA
BRANCH   8  10
ATOM     10  C   UNL d   1     -43.196-121.450 -54.718  0.00  0.00     0.259 C 
ATOM     11  O   UNL d   1     -43.103-121.355 -55.548  0.00  0.00    -0.281 OA
ENDBRANCH   8  10
ENDBRANCH   1   2
BRANCH   1  12
ATOM     12  N   UNL d   1     -41.123-121.653 -52.072  0.00  0.00    -0.225 NA
BRANCH  12  13
ATOM     13  C   UNL d   1     -41.144-120.849 -51.907  0.00  0.00     0.163 A 
ATOM     14  N   UNL d   1     -41.157-120.299 -52.522  0.00  0.00    -0.225 NA
ATOM     15  C   UNL d   1     -41.178-119.500 -52.356  0.00  0.00     0.101 A 
ATOM     16  C   UNL d   1     -41.188-119.243 -51.574  0.00  0.00     0.021 A 
ATOM     17  C   UNL d   1     -41.176-119.778 -50.946  0.00  0.00     0.005 A 
ATOM     18  C   UNL d   1     -41.154-120.582 -51.112  0.00  0.00     0.039 A 
ENDBRANCH  12  13
ENDBRANCH   1  12
BRANCH   1  19
ATOM     19  C   UNL d   1     -42.359-122.272 -51.675  0.00  0.00     0.020 A 
ATOM     20  C   UNL d   1     -42.173-122.875 -51.144  0.00  0.00     0.004 A 
ATOM     21  C   UNL d   1     -42.711-123.081 -50.558  0.00  0.00     0.024 A 
ATOM     22  C   UNL d   1     -43.433-122.688 -50.501  0.00  0.00     0.094 A 
ATOM     23  C   UNL d   1     -43.624-122.085 -51.029  0.00  0.00     0.024 A 
ATOM     24  C   UNL d   1     -43.081-121.879 -51.618  0.00  0.00     0.004 A 
BRANCH  22  25
ATOM     25  O   UNL d   1     -43.979-122.901 -49.902  0.00  0.00    -0.328 OA
ATOM     26  C   UNL d   1     -43.715-123.210 -49.157  0.00  0.00     0.181 C 
ENDBRANCH  22  25
ENDBRANCH   1  19
TORSDOF 6
ENDMDL
MODEL 3
REMARK VINA RESULT:      10.4      1.085      2.772
REMARK  6 active torsions:
REMARK  status: ('A' for Active; 'I' for Inactive)
REMARK    1  A    between atoms: C_5  and  C_1 
REMARK    2  A    between atoms: N_8  and  C_5 
REMARK    3  A    between atoms: C_9  and  C_5 
REMARK    4  A    between atoms: C_19  and  C_7 
REMARK    5  A    between atoms: C_10  and  N_8 
REMARK    6  A    between atoms: O_20  and  C_16 
ROOT
ATOM      1  C   UNL d   1     -41.566-122.043 -51.423  0.00  0.00     0.109 C 
ENDROOT
BRANCH   1   2
ATOM      2  C   UNL d   1     -42.101-122.296 -50.847  0.00  0.00     0.160 A 
ATOM      3  C   UNL d   1     -41.880-122.844 -50.261  0.00  0.00     0.258 A 
ATOM      4  C   UNL d   1     -42.447-123.082 -49.687  0.00  0.00     0.238 A 
ATOM      5  O   UNL d   1     -41.123-123.146 -50.246  0.00  0.00    -0.281 OA
ATOM      6  O   UNL d   1     -42.227-123.631 -49.101  0.00  0.00    -0.283 OA
ATOM      7  C   UNL d   1     -43.206-122.781 -49.702  0.00  0.00     0.073 A 
ATOM      8  C   UNL d   1     -43.427-122.233 -50.288  0.00  0.00     0.146 A 
ATOM      9  O   UNL d   1     -42.886-121.993 -50.851  0.00  0.00    -0.299 OA
BRANCH   8  10
ATOM     10  C   UNL d   1     -44.204-121.930 -50.296  0.00  0.00     0.259 C 
ATOM     11  O   UNL d   1     -44.871-122.441 -50.329  0.00  0.00    -0.281 OA
ENDBRANCH   8  10
ENDBRANCH   1   2
BRANCH   1  12
ATOM     12  N   UNL d   1     -41.138-122.583 -51.882  0.00  0.00    -0.225 NA
BRANCH  12  13
ATOM     13  C   UNL d   1     -41.422-122.821 -52.615  0.00  0.00     0.163 A 
ATOM     14  N   UNL d   1     -41.321-122.338 -53.276  0.00  0.00    -0.225 NA
ATOM     15  C   UNL d   1     -41.605-122.575 -54.004  0.00  0.00     0.101 A 
ATOM     16  C   UNL d   1     -41.991-123.298 -54.079  0.00  0.00     0.021 A 
ATOM     17  C   UNL d   1     -42.102-123.795 -53.429  0.00  0.00     0.005 A 
ATOM     18  C   UNL d   1     -41.817-123.557 -52.696  0.00  0.00     0.039 A 
ENDBRANCH  12  13
ENDBRANCH   1  12
BRANCH   1  19
ATOM     19  C   UNL d   1     -41.459-121.223 -51.542  0.00  0.00     0.020 A 
ATOM     20  C   UNL d   1     -41.491-120.907 -52.303  0.00  0.00     0.004 A 
ATOM     21  C   UNL d   1     -41.384-120.099 -52.412  0.00  0.00     0.024 A 
ATOM     22  C   UNL d   1     -41.246-119.608 -51.765  0.00  0.00     0.094 A 
ATOM     23  C   UNL d   1     -41.214-119.918 -51.002  0.00  0.00     0.024 A 
ATOM     24  C   UNL d   1     -41.321-120.731 -50.895  0.00  0.00     0.004 A 
BRANCH  22  25
ATOM     25  O   UNL d   1     -41.138-118.784 -51.880  0.00  0.00    -0.328 OA
ATOM     26  C   UNL d   1     -41.178-118.441 -52.656  0.00  0.00     0.181 C 
ENDBRANCH  22  25
ENDBRANCH   1  19
TORSDOF 6
ENDMDL
