MODEL 1
REMARK VINA RESULT:      -4.8      0.000      0.000
REMARK  8 active torsions:
REMARK  status: ('A' for Active; 'I' for Inactive)
REMARK    1  A    between atoms: C_6  and  C_1 
REMARK    2  A    between atoms: C_7  and  C_3 
REMARK       I    between atoms: N_10  and  C_6 
REMARK    3  A    between atoms: O_12  and  C_7 
REMARK    4  A    between atoms: C_20  and  N_10 
REMARK    5  A    between atoms: C_23  and  O_12 
REMARK    6  A    between atoms: O_21  and  C_14 
REMARK    7  A    between atoms: C_15  and  C_22 
REMARK    8  A    between atoms: C_22  and  C_20 
ROOT
ATOM      1  C   UNL d   1     -47.135  13.326  23.041  0.00  0.00     0.075 A 
ATOM      2  C   UNL d   1     -47.659  13.933  22.848  0.00  0.00     0.027 A 
ATOM      3  C   UNL d   1     -48.426  13.662  22.968  0.00  0.00     0.121 A 
ATOM      4  N   UNL d   1     -48.379  12.874  23.240  0.00  0.00    -0.349 N 
ATOM      5  C   UNL d   1     -47.581  12.673  23.283  0.00  0.00     0.061 A 
ATOM      6  C   UNL d   1     -47.449  14.684  22.579  0.00  0.00     0.002 C 
ATOM      7  C   UNL d   1     -47.277  11.943  23.527  0.00  0.00     0.019 C 
ATOM      8  H   UNL d   1     -49.018  12.389  23.430  0.00  0.00     0.166 HD
ENDROOT
BRANCH   1   9
ATOM      9  C   UNL d   1     -46.315  13.363  23.001  0.00  0.00     0.281 C 
ATOM     10  O   UNL d   1     -45.881  13.627  23.649  0.00  0.00    -0.265 OA
ATOM     11  N   UNL d   1     -45.921  13.137  22.312  0.00  0.00    -0.206 NA
BRANCH  11  12
ATOM     12  C   UNL d   1     -45.101  13.174  22.271  0.00  0.00     0.102 C 
BRANCH  12  13
ATOM     13  C   UNL d   1     -44.702  12.835  21.638  0.00  0.00     0.021 C 
BRANCH  13  14
ATOM     14  C   UNL d   1     -43.902  12.974  21.529  0.00  0.00     0.002 A 
ATOM     15  C   UNL d   1     -43.343  12.381  21.683  0.00  0.00     0.002 A 
ATOM     16  C   UNL d   1     -42.544  12.520  21.573  0.00  0.00     0.024 A 
ATOM     17  C   UNL d   1     -42.283  13.262  21.305  0.00  0.00     0.094 A 
ATOM     18  C   UNL d   1     -42.830  13.861  21.148  0.00  0.00     0.024 A 
ATOM     19  C   UNL d   1     -43.641  13.715  21.261  0.00  0.00     0.002 A 
BRANCH  17  20
ATOM     20  O   UNL d   1     -41.477  13.401  21.195  0.00  0.00    -0.328 OA
ATOM     21  C   UNL d   1     -41.220  14.132  20.906  0.00  0.00     0.181 C 
ENDBRANCH  17  20
ENDBRANCH  13  14
ENDBRANCH  12  13
ENDBRANCH  11  12
ENDBRANCH   1   9
BRANCH   3  22
ATOM     22  C   UNL d   1     -49.127  14.085  22.844  0.00  0.00     0.316 C 
ATOM     23  O   UNL d   1     -49.309  14.736  23.314  0.00  0.00    -0.257 OA
BRANCH  22  24
ATOM     24  O   UNL d   1     -49.638  13.846  22.246  0.00  0.00    -0.270 OA
BRANCH  24  25
ATOM     25  C   UNL d   1     -50.394  14.177  22.197  0.00  0.00     0.126 C 
ATOM     26  C   UNL d   1     -50.916  13.931  21.615  0.00  0.00     0.029 C 
ENDBRANCH  24  25
ENDBRANCH  22  24
ENDBRANCH   3  22
TORSDOF 8
ENDMDL
MODEL 2
REMARK VINA RESULT:      -3.5      2.785      7.425
REMARK  8 active torsions:
REMARK  status: ('A' for Active; 'I' for Inactive)
REMARK    1  A    between atoms: C_6  and  C_1 
REMARK    2  A    between atoms: C_7  and  C_3 
REMARK       I    between atoms: N_10  and  C_6 
REMARK    3  A    between atoms: O_12  and  C_7 
REMARK    4  A    between atoms: C_20  and  N_10 
REMARK    5  A    between atoms: C_23  and  O_12 
REMARK    6  A    between atoms: O_21  and  C_14 
REMARK    7  A    between atoms: C_15  and  C_22 
REMARK    8  A    between atoms: C_22  and  C_20 
ROOT
ATOM      1  C   UNL d   1     -40.527  14.373  20.383  0.00  0.00     0.075 A 
ATOM      2  C   UNL d   1     -40.389  14.495  19.578  0.00  0.00     0.027 A 
ATOM      3  C   UNL d   1     -39.577  14.525  19.456  0.00  0.00     0.121 A 
ATOM      4  N   UNL d   1     -39.204  14.420  20.195  0.00  0.00    -0.349 N 
ATOM      5  C   UNL d   1     -39.794  14.327  20.762  0.00  0.00     0.061 A 
ATOM      6  C   UNL d   1     -40.968  14.573  18.996  0.00  0.00     0.002 C 
ATOM      7  C   UNL d   1     -39.675  14.208  21.573  0.00  0.00     0.019 C 
ATOM      8  H   UNL d   1     -38.390  14.412  20.330  0.00  0.00     0.166 HD
ENDROOT
BRANCH   1   9
ATOM      9  C   UNL d   1     -41.263  14.309  20.743  0.00  0.00     0.281 C 
ATOM     10  O   UNL d   1     -41.628  14.976  21.059  0.00  0.00    -0.265 OA
ATOM     11  N   UNL d   1     -41.641  13.576  20.791  0.00  0.00    -0.206 NA
BRANCH  11  12
ATOM     12  C   UNL d   1     -42.377  13.512  21.151  0.00  0.00     0.102 C 
BRANCH  12  13
ATOM     13  C   UNL d   1     -42.804  12.812  21.099  0.00  0.00     0.021 C 
BRANCH  13  14
ATOM     14  C   UNL d   1     -43.482  12.705  21.546  0.00  0.00     0.002 A 
ATOM     15  C   UNL d   1     -43.512  12.127  22.140  0.00  0.00     0.002 A 
ATOM     16  C   UNL d   1     -44.190  12.021  22.586  0.00  0.00     0.024 A 
ATOM     17  C   UNL d   1     -44.860  12.492  22.447  0.00  0.00     0.094 A 
ATOM     18  C   UNL d   1     -44.843  13.071  21.858  0.00  0.00     0.024 A 
ATOM     19  C   UNL d   1     -44.152  13.177  21.407  0.00  0.00     0.002 A 
BRANCH  17  20
ATOM     20  O   UNL d   1     -45.542  12.384  22.898  0.00  0.00    -0.328 OA
ATOM     21  C   UNL d   1     -46.166  12.923  22.839  0.00  0.00     0.181 C 
ENDBRANCH  17  20
ENDBRANCH  13  14
ENDBRANCH  12  13
ENDBRANCH  11  12
ENDBRANCH   1   9
BRANCH   3  22
ATOM     22  C   UNL d   1     -39.187  14.638  18.734  0.00  0.00     0.316 C 
ATOM     23  O   UNL d   1     -39.099  15.395  18.422  0.00  0.00    -0.257 OA
BRANCH  22  24
ATOM     24  O   UNL d   1     -38.890  13.984  18.333  0.00  0.00    -0.270 OA
BRANCH  24  25
ATOM     25  C   UNL d   1     -38.381  14.095  17.691  0.00  0.00     0.126 C 
ATOM     26  C   UNL d   1     -38.091  13.449  17.278  0.00  0.00     0.029 C 
ENDBRANCH  24  25
ENDBRANCH  22  24
ENDBRANCH   3  22
TORSDOF 8
ENDMDL
MODEL 3
REMARK VINA RESULT:      -3.2      6.452      8.524
REMARK  8 active torsions:
REMARK  status: ('A' for Active; 'I' for Inactive)
REMARK    1  A    between atoms: C_6  and  C_1 
REMARK    2  A    between atoms: C_7  and  C_3 
REMARK       I    between atoms: N_10  and  C_6 
REMARK    3  A    between atoms: O_12  and  C_7 
REMARK    4  A    between atoms: C_20  and  N_10 
REMARK    5  A    between atoms: C_23  and  O_12 
REMARK    6  A    between atoms: O_21  and  C_14 
REMARK    7  A    between atoms: C_15  and  C_22 
REMARK    8  A    between atoms: C_22  and  C_20 
ROOT
ATOM      1  C   UNL d   1     -39.968  14.760  19.961  0.00  0.00     0.075 A 
ATOM      2  C   UNL d   1     -39.444  14.987  20.557  0.00  0.00     0.027 A 
ATOM      3  C   UNL d   1     -39.719  14.688  21.272  0.00  0.00     0.121 A 
ATOM      4  N   UNL d   1     -40.425  14.269  21.119  0.00  0.00    -0.349 N 
ATOM      5  C   UNL d   1     -40.573  14.317  20.310  0.00  0.00     0.061 A 
ATOM      6  C   UNL d   1     -38.761  15.436  20.452  0.00  0.00     0.002 C 
ATOM      7  C   UNL d   1     -41.217  13.980  19.914  0.00  0.00     0.019 C 
ATOM      8  H   UNL d   1     -40.887  13.879  21.680  0.00  0.00     0.166 HD
ENDROOT
BRANCH   1   9
ATOM      9  C   UNL d   1     -39.901  14.942  19.163  0.00  0.00     0.281 C 
ATOM     10  O   UNL d   1     -40.442  15.452  18.808  0.00  0.00    -0.265 OA
ATOM     11  N   UNL d   1     -39.293  14.615  18.711  0.00  0.00    -0.206 NA
BRANCH  11  12
ATOM     12  C   UNL d   1     -39.226  14.797  17.912  0.00  0.00     0.102 C 
BRANCH  12  13
ATOM     13  C   UNL d   1     -38.485  14.843  17.559  0.00  0.00     0.021 C 
BRANCH  13  14
ATOM     14  C   UNL d   1     -38.354  14.505  16.824  0.00  0.00     0.002 A 
ATOM     15  C   UNL d   1     -38.235  14.979  16.154  0.00  0.00     0.002 A 
ATOM     16  C   UNL d   1     -38.104  14.641  15.420  0.00  0.00     0.024 A 
ATOM     17  C   UNL d   1     -38.090  13.814  15.337  0.00  0.00     0.094 A 
ATOM     18  C   UNL d   1     -38.207  13.331  15.998  0.00  0.00     0.024 A 
ATOM     19  C   UNL d   1     -38.340  13.678  16.741  0.00  0.00     0.002 A 
BRANCH  17  20
ATOM     20  O   UNL d   1     -37.958  13.475  14.597  0.00  0.00    -0.328 OA
ATOM     21  C   UNL d   1     -38.113  13.909  13.910  0.00  0.00     0.181 C 
ENDBRANCH  17  20
ENDBRANCH  13  14
ENDBRANCH  12  13
ENDBRANCH  11  12
ENDBRANCH   1   9
BRANCH   3  22
ATOM     22  C   UNL d   1     -39.368  14.780  22.016  0.00  0.00     0.316 C 
ATOM     23  O   UNL d   1     -39.452  15.485  22.433  0.00  0.00    -0.257 OA
BRANCH  22  24
ATOM     24  O   UNL d   1     -38.934  14.157  22.333  0.00  0.00    -0.270 OA
BRANCH  24  25
ATOM     25  C   UNL d   1     -38.761  14.149  23.141  0.00  0.00     0.126 C 
ATOM     26  C   UNL d   1     -38.640  13.438  23.531  0.00  0.00     0.029 C 
ENDBRANCH  24  25
ENDBRANCH  22  24
ENDBRANCH   3  22
TORSDOF 8
ENDMDL
