MODEL 1
REMARK VINA RESULT:       2.4      0.000      0.000
REMARK  4 active torsions:
REMARK  status: ('A' for Active; 'I' for Inactive)
REMARK    1  A    between atoms: C_8  and  N_2 
REMARK    2  A    between atoms: C_13  and  C_8 
REMARK    3  A    between atoms: O_17  and  C_13 
REMARK    4  A    between atoms: O_18  and  C_15 
ROOT
ATOM      1  C   UNL d   1     -41.779-122.084 -50.946  0.00  0.00     0.166 A 
ATOM      2  N   UNL d   1     -41.421-121.631 -51.535  0.00  0.00    -0.285 N 
ATOM      3  C   UNL d   1     -41.992-122.811 -51.282  0.00  0.00     0.117 A 
ATOM      4  C   UNL d   1     -41.768-122.808 -52.075  0.00  0.00     0.039 A 
ATOM      5  C   UNL d   1     -41.415-122.079 -52.231  0.00  0.00     0.067 A 
ATOM      6  N   UNL d   1     -41.933-121.925 -50.159  0.00  0.00    -0.225 NA
ATOM      7  N   UNL d   1     -42.363-123.380 -50.819  0.00  0.00    -0.241 NA
ATOM      8  C   UNL d   1     -42.308-122.494 -49.684  0.00  0.00     0.101 A 
ATOM      9  C   UNL d   1     -42.521-123.221 -50.020  0.00  0.00     0.099 A 
ATOM     10  C   UNL d   1     -41.126-121.902 -52.992  0.00  0.00     0.020 A 
ATOM     11  C   UNL d   1     -41.834-123.361 -52.670  0.00  0.00     0.027 A 
ATOM     12  C   UNL d   1     -41.550-123.196 -53.428  0.00  0.00     0.094 A 
ATOM     13  C   UNL d   1     -41.198-122.467 -53.585  0.00  0.00     0.026 A 
ATOM     14  C   UNL d   1     -42.892-123.790 -49.556  0.00  0.00     0.021 A 
ATOM     15  C   UNL d   1     -42.466-122.346 -48.898  0.00  0.00     0.021 A 
ATOM     16  C   UNL d   1     -42.840-122.915 -48.426  0.00  0.00     0.002 A 
ATOM     17  C   UNL d   1     -43.053-123.642 -48.762  0.00  0.00     0.002 A 
ENDROOT
BRANCH   2  18
ATOM     18  C   UNL d   1     -41.123-120.868 -51.448  0.00  0.00     0.150 C 
BRANCH  18  19
ATOM     19  C   UNL d   1     -41.558-120.220 -51.727  0.00  0.00     0.314 C 
ATOM     20  O   UNL d   1     -42.387-120.249 -51.708  0.00  0.00    -0.257 OA
BRANCH  19  21
ATOM     21  O   UNL d   1     -41.176-119.567 -52.017  0.00  0.00    -0.295 OA
ATOM     22  C   UNL d   1     -41.214-118.844 -51.613  0.00  0.00     0.185 C 
ENDBRANCH  19  21
ENDBRANCH  18  19
ENDBRANCH   2  18
BRANCH  12  23
ATOM     23  O   UNL d   1     -41.622-123.760 -54.021  0.00  0.00    -0.328 OA
ATOM     24  C   UNL d   1     -42.306-123.800 -54.481  0.00  0.00     0.181 C 
ENDBRANCH  12  23
TORSDOF 4
ENDMDL
MODEL 2
REMARK VINA RESULT:       3.5      1.157      3.455
REMARK  4 active torsions:
REMARK  status: ('A' for Active; 'I' for Inactive)
REMARK    1  A    between atoms: C_8  and  N_2 
REMARK    2  A    between atoms: C_13  and  C_8 
REMARK    3  A    between atoms: O_17  and  C_13 
REMARK    4  A    between atoms: O_18  and  C_15 
ROOT
ATOM      1  C   UNL d   1     -41.604-122.005 -52.414  0.00  0.00     0.166 A 
ATOM      2  N   UNL d   1     -41.516-121.640 -51.679  0.00  0.00    -0.285 N 
ATOM      3  C   UNL d   1     -42.035-122.703 -52.299  0.00  0.00     0.117 A 
ATOM      4  C   UNL d   1     -42.214-122.770 -51.497  0.00  0.00     0.039 A 
ATOM      5  C   UNL d   1     -41.893-122.114 -51.115  0.00  0.00     0.067 A 
ATOM      6  N   UNL d   1     -41.347-121.789 -53.160  0.00  0.00    -0.225 NA
ATOM      7  N   UNL d   1     -42.208-123.185 -52.942  0.00  0.00    -0.241 NA
ATOM      8  C   UNL d   1     -41.517-122.271 -53.815  0.00  0.00     0.101 A 
ATOM      9  C   UNL d   1     -41.949-122.969 -53.700  0.00  0.00     0.099 A 
ATOM     10  C   UNL d   1     -41.979-122.018 -50.292  0.00  0.00     0.020 A 
ATOM     11  C   UNL d   1     -42.619-123.331 -51.066  0.00  0.00     0.027 A 
ATOM     12  C   UNL d   1     -42.710-123.245 -50.250  0.00  0.00     0.094 A 
ATOM     13  C   UNL d   1     -42.390-122.589 -49.867  0.00  0.00     0.026 A 
ATOM     14  C   UNL d   1     -42.122-123.451 -54.343  0.00  0.00     0.021 A 
ATOM     15  C   UNL d   1     -41.267-122.065 -54.563  0.00  0.00     0.021 A 
ATOM     16  C   UNL d   1     -41.438-122.547 -55.215  0.00  0.00     0.002 A 
ATOM     17  C   UNL d   1     -41.869-123.245 -55.100  0.00  0.00     0.002 A 
ENDROOT
BRANCH   2  18
ATOM     18  C   UNL d   1     -41.123-120.931 -51.533  0.00  0.00     0.150 C 
BRANCH  18  19
ATOM     19  C   UNL d   1     -41.550-120.220 -51.511  0.00  0.00     0.314 C 
ATOM     20  O   UNL d   1     -42.362-120.229 -51.677  0.00  0.00    -0.257 OA
BRANCH  19  21
ATOM     21  O   UNL d   1     -41.174-119.525 -51.330  0.00  0.00    -0.295 OA
ATOM     22  C   UNL d   1     -41.142-118.908 -51.883  0.00  0.00     0.185 C 
ENDBRANCH  19  21
ENDBRANCH  18  19
ENDBRANCH   2  18
BRANCH  12  23
ATOM     23  O   UNL d   1     -43.121-123.817 -49.825  0.00  0.00    -0.328 OA
ATOM     24  C   UNL d   1     -43.554-123.610 -49.154  0.00  0.00     0.181 C 
ENDBRANCH  12  23
TORSDOF 4
ENDMDL
MODEL 3
REMARK VINA RESULT:       5.3      0.591      2.735
REMARK  4 active torsions:
REMARK  status: ('A' for Active; 'I' for Inactive)
REMARK    1  A    between atoms: C_8  and  N_2 
REMARK    2  A    between atoms: C_13  and  C_8 
REMARK    3  A    between atoms: O_17  and  C_13 
REMARK    4  A    between atoms: O_18  and  C_15 
ROOT
ATOM      1  C   UNL d   1     -41.866-122.779 -51.351  0.00  0.00     0.166 A 
ATOM      2  N   UNL d   1     -41.612-122.787 -52.136  0.00  0.00    -0.285 N 
ATOM      3  C   UNL d   1     -41.884-121.989 -51.100  0.00  0.00     0.117 A 
ATOM      4  C   UNL d   1     -41.642-121.511 -51.726  0.00  0.00     0.039 A 
ATOM      5  C   UNL d   1     -41.474-122.004 -52.365  0.00  0.00     0.067 A 
ATOM      6  N   UNL d   1     -42.080-123.384 -50.844  0.00  0.00    -0.225 NA
ATOM      7  N   UNL d   1     -42.119-121.811 -50.332  0.00  0.00    -0.241 NA
ATOM      8  C   UNL d   1     -42.318-123.213 -50.067  0.00  0.00     0.101 A 
ATOM      9  C   UNL d   1     -42.336-122.424 -49.816  0.00  0.00     0.099 A 
ATOM     10  C   UNL d   1     -41.213-121.686 -53.090  0.00  0.00     0.020 A 
ATOM     11  C   UNL d   1     -41.553-120.705 -51.803  0.00  0.00     0.027 A 
ATOM     12  C   UNL d   1     -41.295-120.378 -52.517  0.00  0.00     0.094 A 
ATOM     13  C   UNL d   1     -41.126-120.871 -53.157  0.00  0.00     0.026 A 
ATOM     14  C   UNL d   1     -42.571-122.246 -49.049  0.00  0.00     0.021 A 
ATOM     15  C   UNL d   1     -42.533-123.809 -49.553  0.00  0.00     0.021 A 
ATOM     16  C   UNL d   1     -42.771-123.636 -48.779  0.00  0.00     0.002 A 
ATOM     17  C   UNL d   1     -42.789-122.847 -48.528  0.00  0.00     0.002 A 
ENDROOT
BRANCH   2  18
ATOM     18  C   UNL d   1     -41.513-123.456 -52.607  0.00  0.00     0.150 C 
BRANCH  18  19
ATOM     19  C   UNL d   1     -42.016-123.582 -53.253  0.00  0.00     0.314 C 
ATOM     20  O   UNL d   1     -42.836-123.522 -53.148  0.00  0.00    -0.257 OA
BRANCH  19  21
ATOM     21  O   UNL d   1     -41.707-123.763 -53.981  0.00  0.00    -0.295 OA
ATOM     22  C   UNL d   1     -42.200-123.816 -54.645  0.00  0.00     0.185 C 
ENDBRANCH  19  21
ENDBRANCH  18  19
ENDBRANCH   2  18
BRANCH  12  23
ATOM     23  O   UNL d   1     -41.207-119.564 -52.583  0.00  0.00    -0.328 OA
ATOM     24  C   UNL d   1     -41.181-119.089 -51.910  0.00  0.00     0.181 C 
ENDBRANCH  12  23
TORSDOF 4
ENDMDL
