MODEL 1
REMARK VINA RESULT:      -6.2      0.000      0.000
REMARK  1 active torsions:
REMARK  status: ('A' for Active; 'I' for Inactive)
REMARK    1  A    between atoms: N_3  and  C_2 
ROOT
ATOM      1  N   UNL d   1     -41.809-122.196 -53.213  0.00  0.00    -0.228 NA
ATOM      2  C   UNL d   1     -41.429-122.826 -52.835  0.00  0.00     0.148 A 
ATOM      3  C   UNL d   1     -41.879-122.194 -54.041  0.00  0.00     0.083 A 
ATOM      4  C   UNL d   1     -41.123-123.449 -53.281  0.00  0.00     0.037 A 
ATOM      5  C   UNL d   1     -41.569-122.820 -54.479  0.00  0.00     0.018 A 
ATOM      6  C   UNL d   1     -41.189-123.452 -54.101  0.00  0.00     0.005 A 
ATOM      7  C   UNL d   1     -42.257-121.566 -54.420  0.00  0.00     0.019 A 
ATOM      8  C   UNL d   1     -41.636-122.823 -55.299  0.00  0.00     0.002 A 
ATOM      9  C   UNL d   1     -42.324-121.569 -55.241  0.00  0.00     0.002 A 
ATOM     10  C   UNL d   1     -42.013-122.198 -55.682  0.00  0.00     0.000 A 
ENDROOT
BRANCH   2  11
ATOM     11  N   UNL d   1     -41.361-122.826 -52.011  0.00  0.00    -0.286 N 
ATOM     12  C   UNL d   1     -41.190-122.124 -51.613  0.00  0.00     0.102 A 
ATOM     13  C   UNL d   1     -41.122-122.125 -50.794  0.00  0.00     0.118 A 
ATOM     14  N   UNL d   1     -41.225-122.825 -50.372  0.00  0.00    -0.239 NA
ATOM     15  C   UNL d   1     -41.395-123.527 -50.771  0.00  0.00     0.118 A 
ATOM     16  C   UNL d   1     -41.464-123.527 -51.594  0.00  0.00     0.102 A 
ENDBRANCH   2  11
TORSDOF 1
ENDMDL
MODEL 2
REMARK VINA RESULT:      -5.9      0.843      3.480
REMARK  1 active torsions:
REMARK  status: ('A' for Active; 'I' for Inactive)
REMARK    1  A    between atoms: N_3  and  C_2 
ROOT
ATOM      1  N   UNL d   1     -41.607-122.199 -52.786  0.00  0.00    -0.228 NA
ATOM      2  C   UNL d   1     -41.605-122.703 -53.443  0.00  0.00     0.148 A 
ATOM      3  C   UNL d   1     -41.445-122.506 -52.032  0.00  0.00     0.083 A 
ATOM      4  C   UNL d   1     -41.442-123.505 -53.345  0.00  0.00     0.037 A 
ATOM      5  C   UNL d   1     -41.284-123.310 -51.943  0.00  0.00     0.018 A 
ATOM      6  C   UNL d   1     -41.281-123.814 -52.599  0.00  0.00     0.005 A 
ATOM      7  C   UNL d   1     -41.447-122.005 -51.376  0.00  0.00     0.019 A 
ATOM      8  C   UNL d   1     -41.123-123.618 -51.197  0.00  0.00     0.002 A 
ATOM      9  C   UNL d   1     -41.286-122.314 -50.629  0.00  0.00     0.002 A 
ATOM     10  C   UNL d   1     -41.123-123.122 -50.539  0.00  0.00     0.000 A 
ENDROOT
BRANCH   2  11
ATOM     11  N   UNL d   1     -41.766-122.396 -54.193  0.00  0.00    -0.286 N 
ATOM     12  C   UNL d   1     -42.441-121.937 -54.313  0.00  0.00     0.102 A 
ATOM     13  C   UNL d   1     -42.601-121.632 -55.060  0.00  0.00     0.118 A 
ATOM     14  N   UNL d   1     -42.088-121.784 -55.685  0.00  0.00    -0.239 NA
ATOM     15  C   UNL d   1     -41.413-122.242 -55.565  0.00  0.00     0.118 A 
ATOM     16  C   UNL d   1     -41.252-122.549 -54.815  0.00  0.00     0.102 A 
ENDBRANCH   2  11
TORSDOF 1
ENDMDL
MODEL 3
REMARK VINA RESULT:      -5.4      1.157      2.134
REMARK  1 active torsions:
REMARK  status: ('A' for Active; 'I' for Inactive)
REMARK    1  A    between atoms: N_3  and  C_2 
ROOT
ATOM      1  N   UNL d   1     -41.573-123.354 -51.670  0.00  0.00    -0.228 NA
ATOM      2  C   UNL d   1     -41.575-122.732 -51.124  0.00  0.00     0.148 A 
ATOM      3  C   UNL d   1     -41.423-123.197 -52.472  0.00  0.00     0.083 A 
ATOM      4  C   UNL d   1     -41.428-121.961 -51.378  0.00  0.00     0.037 A 
ATOM      5  C   UNL d   1     -41.277-122.424 -52.717  0.00  0.00     0.018 A 
ATOM      6  C   UNL d   1     -41.278-121.801 -52.171  0.00  0.00     0.005 A 
ATOM      7  C   UNL d   1     -41.421-123.816 -53.018  0.00  0.00     0.019 A 
ATOM      8  C   UNL d   1     -41.128-122.263 -53.511  0.00  0.00     0.002 A 
ATOM      9  C   UNL d   1     -41.272-123.656 -53.813  0.00  0.00     0.002 A 
ATOM     10  C   UNL d   1     -41.125-122.878 -54.059  0.00  0.00     0.000 A 
ENDROOT
BRANCH   2  11
ATOM     11  N   UNL d   1     -41.724-122.890 -50.327  0.00  0.00    -0.286 N 
ATOM     12  C   UNL d   1     -41.136-123.227 -49.857  0.00  0.00     0.102 A 
ATOM     13  C   UNL d   1     -41.286-123.383 -49.064  0.00  0.00     0.118 A 
ATOM     14  N   UNL d   1     -42.021-123.205 -48.740  0.00  0.00    -0.239 NA
ATOM     15  C   UNL d   1     -42.610-122.869 -49.211  0.00  0.00     0.118 A 
ATOM     16  C   UNL d   1     -42.460-122.711 -50.008  0.00  0.00     0.102 A 
ENDBRANCH   2  11
TORSDOF 1
ENDMDL
MODEL 4
REMARK VINA RESULT:      -4.5      1.819      3.074
REMARK  1 active torsions:
REMARK  status: ('A' for Active; 'I' for Inactive)
REMARK    1  A    between atoms: N_3  and  C_2 
ROOT
ATOM      1  N   UNL d   1     -41.709-122.431 -50.289  0.00  0.00    -0.228 NA
ATOM      2  C   UNL d   1     -41.613-123.135 -49.864  0.00  0.00     0.148 A 
ATOM      3  C   UNL d   1     -41.545-122.415 -51.103  0.00  0.00     0.083 A 
ATOM      4  C   UNL d   1     -41.355-123.816 -50.251  0.00  0.00     0.037 A 
ATOM      5  C   UNL d   1     -41.287-123.101 -51.482  0.00  0.00     0.018 A 
ATOM      6  C   UNL d   1     -41.190-123.806 -51.057  0.00  0.00     0.005 A 
ATOM      7  C   UNL d   1     -41.640-121.715 -51.528  0.00  0.00     0.019 A 
ATOM      8  C   UNL d   1     -41.123-123.091 -52.288  0.00  0.00     0.002 A 
ATOM      9  C   UNL d   1     -41.476-121.704 -52.335  0.00  0.00     0.002 A 
ATOM     10  C   UNL d   1     -41.217-122.393 -52.716  0.00  0.00     0.000 A 
ENDROOT
BRANCH   2  11
ATOM     11  N   UNL d   1     -41.777-123.148 -49.055  0.00  0.00    -0.286 N 
ATOM     12  C   UNL d   1     -42.560-123.155 -48.793  0.00  0.00     0.102 A 
ATOM     13  C   UNL d   1     -42.722-123.168 -47.988  0.00  0.00     0.118 A 
ATOM     14  N   UNL d   1     -42.105-123.175 -47.443  0.00  0.00    -0.239 NA
ATOM     15  C   UNL d   1     -41.322-123.168 -47.704  0.00  0.00     0.118 A 
ATOM     16  C   UNL d   1     -41.158-123.155 -48.514  0.00  0.00     0.102 A 
ENDBRANCH   2  11
TORSDOF 1
ENDMDL
MODEL 5
REMARK VINA RESULT:      -4.4      0.913      1.446
REMARK  1 active torsions:
REMARK  status: ('A' for Active; 'I' for Inactive)
REMARK    1  A    between atoms: N_3  and  C_2 
ROOT
ATOM      1  N   UNL d   1     -41.919-122.471 -52.026  0.00  0.00    -0.228 NA
ATOM      2  C   UNL d   1     -41.674-123.087 -51.530  0.00  0.00     0.148 A 
ATOM      3  C   UNL d   1     -41.797-122.530 -52.846  0.00  0.00     0.083 A 
ATOM      4  C   UNL d   1     -41.312-123.755 -51.852  0.00  0.00     0.037 A 
ATOM      5  C   UNL d   1     -41.434-123.201 -53.159  0.00  0.00     0.018 A 
ATOM      6  C   UNL d   1     -41.189-123.817 -52.663  0.00  0.00     0.005 A 
ATOM      7  C   UNL d   1     -42.040-121.917 -53.342  0.00  0.00     0.019 A 
ATOM      8  C   UNL d   1     -41.311-123.263 -53.971  0.00  0.00     0.002 A 
ATOM      9  C   UNL d   1     -41.918-121.979 -54.155  0.00  0.00     0.002 A 
ATOM     10  C   UNL d   1     -41.552-122.653 -54.469  0.00  0.00     0.000 A 
ENDROOT
BRANCH   2  11
ATOM     11  N   UNL d   1     -41.796-123.027 -50.716  0.00  0.00    -0.286 N 
ATOM     12  C   UNL d   1     -42.486-122.678 -50.427  0.00  0.00     0.102 A 
ATOM     13  C   UNL d   1     -42.606-122.619 -49.616  0.00  0.00     0.118 A 
ATOM     14  N   UNL d   1     -42.040-122.907 -49.093  0.00  0.00    -0.239 NA
ATOM     15  C   UNL d   1     -41.350-123.256 -49.382  0.00  0.00     0.118 A 
ATOM     16  C   UNL d   1     -41.228-123.316 -50.197  0.00  0.00     0.102 A 
ENDBRANCH   2  11
TORSDOF 1
ENDMDL
