MODEL 1
REMARK VINA RESULT:      -5.6      0.000      0.000
REMARK  3 active torsions:
REMARK  status: ('A' for Active; 'I' for Inactive)
REMARK    1  A    between atoms: N_2  and  C_1 
REMARK       I    between atoms: C_4  and  N_2 
REMARK    2  A    between atoms: C_8  and  C_4 
REMARK    3  A    between atoms: C_10  and  C_5 
ROOT
ATOM      1  C   UNL d   1      57.744  -0.012  30.325  0.00  0.00     0.197 A 
ATOM      2  N   UNL d   1      58.188  -0.664  30.130  0.00  0.00    -0.221 NA
ATOM      3  C   UNL d   1      58.783  -0.369  29.585  0.00  0.00     0.090 A 
ATOM      4  S   UNL d   1      58.020   0.670  29.942  0.00  0.00    -0.046 SA
ATOM      5  C   UNL d   1      58.655   0.455  29.488  0.00  0.00     0.058 A 
ENDROOT
BRANCH   1   6
ATOM      6  N   UNL d   1      57.082  -0.027  30.855  0.00  0.00    -0.183 NA
ATOM      7  C   UNL d   1      57.234  -0.013  31.685  0.00  0.00     0.281 C 
ATOM      8  O   UNL d   1      58.012   0.015  31.971  0.00  0.00    -0.265 OA
BRANCH   7   9
ATOM      9  C   UNL d   1      56.615  -0.027  32.230  0.00  0.00     0.058 A 
ATOM     10  C   UNL d   1      56.268   0.682  32.440  0.00  0.00     0.006 A 
ATOM     11  C   UNL d   1      55.638   0.678  32.993  0.00  0.00     0.012 A 
ATOM     12  C   UNL d   1      55.363  -0.020  33.326  0.00  0.00     0.058 A 
ATOM     13  C   UNL d   1      55.728  -0.745  33.102  0.00  0.00     0.012 A 
ATOM     14 CL   UNL d   1      54.795  -0.046  33.828  0.00  0.00    -0.082 Cl
ATOM     15  C   UNL d   1      56.355  -0.740  32.552  0.00  0.00     0.006 A 
ENDBRANCH   7   9
ENDBRANCH   1   6
BRANCH   3  16
ATOM     16  C   UNL d   1      59.376  -0.797  29.216  0.00  0.00     0.018 A 
ATOM     17  C   UNL d   1      60.158  -0.535  29.222  0.00  0.00     0.002 A 
ATOM     18  C   UNL d   1      60.763  -0.972  28.845  0.00  0.00     0.000 A 
ATOM     19  C   UNL d   1      60.562  -1.684  28.461  0.00  0.00     0.000 A 
ATOM     20  C   UNL d   1      59.782  -1.940  28.458  0.00  0.00     0.000 A 
ATOM     21  C   UNL d   1      59.188  -1.492  28.839  0.00  0.00     0.002 A 
ENDBRANCH   3  16
TORSDOF 3
ENDMDL
MODEL 2
REMARK VINA RESULT:      -5.5      0.635      1.143
REMARK  3 active torsions:
REMARK  status: ('A' for Active; 'I' for Inactive)
REMARK    1  A    between atoms: N_2  and  C_1 
REMARK       I    between atoms: C_4  and  N_2 
REMARK    2  A    between atoms: C_8  and  C_4 
REMARK    3  A    between atoms: C_10  and  C_5 
ROOT
ATOM      1  C   UNL d   1      57.953   0.425  30.564  0.00  0.00     0.197 A 
ATOM      2  N   UNL d   1      58.692   0.087  30.568  0.00  0.00    -0.221 NA
ATOM      3  C   UNL d   1      58.959   0.135  29.753  0.00  0.00     0.090 A 
ATOM      4  S   UNL d   1      57.740   0.682  29.804  0.00  0.00    -0.046 SA
ATOM      5  C   UNL d   1      58.353   0.505  29.306  0.00  0.00     0.058 A 
ENDROOT
BRANCH   1   6
ATOM      6  N   UNL d   1      57.462   0.507  31.251  0.00  0.00    -0.183 NA
ATOM      7  C   UNL d   1      57.008  -0.160  31.499  0.00  0.00     0.281 C 
ATOM      8  O   UNL d   1      57.045  -0.875  31.080  0.00  0.00    -0.265 OA
BRANCH   7   9
ATOM      9  C   UNL d   1      56.520  -0.117  32.163  0.00  0.00     0.058 A 
ATOM     10  C   UNL d   1      56.259  -0.815  32.497  0.00  0.00     0.006 A 
ATOM     11  C   UNL d   1      55.762  -0.781  33.172  0.00  0.00     0.012 A 
ATOM     12  C   UNL d   1      55.533  -0.065  33.501  0.00  0.00     0.058 A 
ATOM     13  C   UNL d   1      55.808   0.648  33.148  0.00  0.00     0.012 A 
ATOM     14 CL   UNL d   1      55.085  -0.012  34.110  0.00  0.00    -0.082 Cl
ATOM     15  C   UNL d   1      56.302   0.614  32.476  0.00  0.00     0.006 A 
ENDBRANCH   7   9
ENDBRANCH   1   6
BRANCH   3  16
ATOM     16  C   UNL d   1      59.673  -0.127  29.447  0.00  0.00     0.018 A 
ATOM     17  C   UNL d   1      59.765  -0.903  29.184  0.00  0.00     0.002 A 
ATOM     18  C   UNL d   1      60.493  -1.170  28.872  0.00  0.00     0.000 A 
ATOM     19  C   UNL d   1      61.130  -0.634  28.831  0.00  0.00     0.000 A 
ATOM     20  C   UNL d   1      61.034   0.137  29.094  0.00  0.00     0.000 A 
ATOM     21  C   UNL d   1      60.299   0.389  29.404  0.00  0.00     0.002 A 
ENDBRANCH   3  16
TORSDOF 3
ENDMDL
MODEL 3
REMARK VINA RESULT:      -3.4      2.002      5.011
REMARK  3 active torsions:
REMARK  status: ('A' for Active; 'I' for Inactive)
REMARK    1  A    between atoms: N_2  and  C_1 
REMARK       I    between atoms: C_4  and  N_2 
REMARK    2  A    between atoms: C_8  and  C_4 
REMARK    3  A    between atoms: C_10  and  C_5 
ROOT
ATOM      1  C   UNL d   1      57.197  -0.496  31.217  0.00  0.00     0.197 A 
ATOM      2  N   UNL d   1      56.921  -0.652  31.965  0.00  0.00    -0.221 NA
ATOM      3  C   UNL d   1      56.531   0.073  32.211  0.00  0.00     0.090 A 
ATOM      4  S   UNL d   1      57.007   0.275  30.977  0.00  0.00    -0.046 SA
ATOM      5  C   UNL d   1      56.599   0.626  31.583  0.00  0.00     0.058 A 
ENDROOT
BRANCH   1   6
ATOM      6  N   UNL d   1      57.625  -1.052  30.741  0.00  0.00    -0.183 NA
ATOM      7  C   UNL d   1      58.303  -0.779  30.319  0.00  0.00     0.281 C 
ATOM      8  O   UNL d   1      58.541   0.014  30.371  0.00  0.00    -0.265 OA
BRANCH   7   9
ATOM      9  C   UNL d   1      58.743  -1.292  29.846  0.00  0.00     0.058 A 
ATOM     10  C   UNL d   1      59.479  -1.047  29.590  0.00  0.00     0.006 A 
ATOM     11  C   UNL d   1      59.933  -1.561  29.109  0.00  0.00     0.012 A 
ATOM     12  C   UNL d   1      59.656  -2.303  28.891  0.00  0.00     0.058 A 
ATOM     13  C   UNL d   1      58.897  -2.545  29.162  0.00  0.00     0.012 A 
ATOM     14 CL   UNL d   1      60.052  -2.783  28.458  0.00  0.00    -0.082 Cl
ATOM     15  C   UNL d   1      58.445  -2.032  29.640  0.00  0.00     0.006 A 
ENDBRANCH   7   9
ENDBRANCH   1   6
BRANCH   3  16
ATOM     16  C   UNL d   1      56.155   0.219  32.923  0.00  0.00     0.018 A 
ATOM     17  C   UNL d   1      56.573   0.495  33.578  0.00  0.00     0.002 A 
ATOM     18  C   UNL d   1      56.189   0.644  34.306  0.00  0.00     0.000 A 
ATOM     19  C   UNL d   1      55.368   0.507  34.359  0.00  0.00     0.000 A 
ATOM     20  C   UNL d   1      54.956   0.232  33.704  0.00  0.00     0.000 A 
ATOM     21  C   UNL d   1      55.355   0.088  32.984  0.00  0.00     0.002 A 
ENDBRANCH   3  16
TORSDOF 3
ENDMDL
