MODEL 1
REMARK VINA RESULT:      -2.0      0.000      0.000
REMARK  6 active torsions:
REMARK  status: ('A' for Active; 'I' for Inactive)
REMARK    1  A    between atoms: N_5  and  C_1 
REMARK    2  A    between atoms: N_14  and  C_3 
REMARK    3  A    between atoms: N_9  and  C_20 
REMARK    4  A    between atoms: C_22  and  N_14 
REMARK    5  A    between atoms: C_20  and  C_21 
REMARK    6  A    between atoms: C_21  and  C_22 
ROOT
ATOM      1  C   UNL d   1      32.536  21.597 -21.242  0.00  0.00     0.200 A 
ATOM      2  C   UNL d   1      32.236  22.338 -21.023  0.00  0.00     0.288 A 
ATOM      3  C   UNL d   1      32.853  21.477 -21.996  0.00  0.00     0.109 A 
ATOM      4  N   UNL d   1      32.252  22.963 -21.558  0.00  0.00    -0.270 N 
ATOM      5  C   UNL d   1      32.866  22.110 -22.529  0.00  0.00     0.036 A 
ATOM      6  C   UNL d   1      32.569  22.849 -22.316  0.00  0.00     0.069 A 
ATOM      7  O   UNL d   1      31.922  22.450 -20.271  0.00  0.00    -0.265 OA
ATOM      8  C   UNL d   1      31.955  23.702 -21.344  0.00  0.00     0.102 C 
ATOM      9  C   UNL d   1      33.181  22.000 -23.285  0.00  0.00     0.003 A 
ATOM     10  C   UNL d   1      32.583  23.478 -22.849  0.00  0.00     0.018 A 
ATOM     11  C   UNL d   1      33.197  22.625 -23.820  0.00  0.00     0.000 A 
ATOM     12  C   UNL d   1      32.897  23.366 -23.601  0.00  0.00     0.002 A 
ENDROOT
BRANCH   3  13
ATOM     13  N   UNL d   1      33.151  20.740 -22.214  0.00  0.00    -0.242 NA
BRANCH  13  14
ATOM     14  C   UNL d   1      32.805  20.321 -22.833  0.00  0.00     0.101 C 
BRANCH  14  15
ATOM     15  C   UNL d   1      32.809  19.494 -22.824  0.00  0.00     0.040 C 
BRANCH  15  16
ATOM     16  C   UNL d   1      32.893  19.076 -23.528  0.00  0.00     0.083 C 
BRANCH  16  17
ATOM     17  N   UNL d   1      32.710  18.267 -23.556  0.00  0.00    -0.285 N 
ATOM     18  C   UNL d   1      31.968  17.936 -23.430  0.00  0.00     0.183 A 
ATOM     19  N   UNL d   1      32.042  17.119 -23.511  0.00  0.00    -0.222 NA
ATOM     20  C   UNL d   1      32.829  16.952 -23.686  0.00  0.00     0.120 A 
ATOM     21  C   UNL d   1      33.241  17.656 -23.714  0.00  0.00     0.102 A 
ENDBRANCH  16  17
ENDBRANCH  15  16
ENDBRANCH  14  15
ENDBRANCH  13  14
ENDBRANCH   3  13
BRANCH   1  22
ATOM     22  N   UNL d   1      32.516  20.973 -20.699  0.00  0.00    -0.107 N 
ATOM     23  O   UNL d   1      31.798  20.641 -20.470  0.00  0.00    -0.531 OA
ATOM     24  O   UNL d   1      33.226  20.682 -20.385  0.00  0.00    -0.531 OA
ENDBRANCH   1  22
TORSDOF 6
ENDMDL
MODEL 2
REMARK VINA RESULT:      -0.6      2.386      5.225
REMARK  6 active torsions:
REMARK  status: ('A' for Active; 'I' for Inactive)
REMARK    1  A    between atoms: N_5  and  C_1 
REMARK    2  A    between atoms: N_14  and  C_3 
REMARK    3  A    between atoms: N_9  and  C_20 
REMARK    4  A    between atoms: C_22  and  N_14 
REMARK    5  A    between atoms: C_20  and  C_21 
REMARK    6  A    between atoms: C_21  and  C_22 
ROOT
ATOM      1  C   UNL d   1      31.944  16.661 -23.572  0.00  0.00     0.200 A 
ATOM      2  C   UNL d   1      31.310  16.140 -23.454  0.00  0.00     0.288 A 
ATOM      3  C   UNL d   1      31.842  17.354 -24.013  0.00  0.00     0.109 A 
ATOM      4  N   UNL d   1      30.572  16.309 -23.776  0.00  0.00    -0.270 N 
ATOM      5  C   UNL d   1      31.098  17.517 -24.333  0.00  0.00     0.036 A 
ATOM      6  C   UNL d   1      30.464  17.001 -24.218  0.00  0.00     0.069 A 
ATOM      7  O   UNL d   1      31.418  15.453 -23.015  0.00  0.00    -0.265 OA
ATOM      8  C   UNL d   1      29.939  15.792 -23.660  0.00  0.00     0.102 C 
ATOM      9  C   UNL d   1      30.986  18.207 -24.775  0.00  0.00     0.003 A 
ATOM     10  C   UNL d   1      29.723  17.168 -24.539  0.00  0.00     0.018 A 
ATOM     11  C   UNL d   1      30.248  18.376 -25.097  0.00  0.00     0.000 A 
ATOM     12  C   UNL d   1      29.615  17.855 -24.979  0.00  0.00     0.002 A 
ENDROOT
BRANCH   3  13
ATOM     13  N   UNL d   1      32.472  17.872 -24.130  0.00  0.00    -0.242 NA
BRANCH  13  14
ATOM     14  C   UNL d   1      32.396  18.667 -23.931  0.00  0.00     0.101 C 
BRANCH  14  15
ATOM     15  C   UNL d   1      32.924  19.011 -23.395  0.00  0.00     0.040 C 
BRANCH  15  16
ATOM     16  C   UNL d   1      33.118  19.808 -23.464  0.00  0.00     0.083 C 
BRANCH  16  17
ATOM     17  N   UNL d   1      33.166  20.284 -22.785  0.00  0.00    -0.285 N 
ATOM     18  C   UNL d   1      33.193  20.015 -22.008  0.00  0.00     0.183 A 
ATOM     19  N   UNL d   1      33.239  20.675 -21.517  0.00  0.00    -0.222 NA
ATOM     20  C   UNL d   1      33.241  21.346 -21.994  0.00  0.00     0.120 A 
ATOM     21  C   UNL d   1      33.196  21.108 -22.773  0.00  0.00     0.102 A 
ENDBRANCH  16  17
ENDBRANCH  15  16
ENDBRANCH  14  15
ENDBRANCH  13  14
ENDBRANCH   3  13
BRANCH   1  22
ATOM     22  N   UNL d   1      32.683  16.485 -23.246  0.00  0.00    -0.107 N 
ATOM     23  O   UNL d   1      33.241  16.061 -23.679  0.00  0.00    -0.531 OA
ATOM     24  O   UNL d   1      32.861  16.737 -22.476  0.00  0.00    -0.531 OA
ENDBRANCH   1  22
TORSDOF 6
ENDMDL
MODEL 3
REMARK VINA RESULT:      -0.2      2.834      5.394
REMARK  6 active torsions:
REMARK  status: ('A' for Active; 'I' for Inactive)
REMARK    1  A    between atoms: N_5  and  C_1 
REMARK    2  A    between atoms: N_14  and  C_3 
REMARK    3  A    between atoms: N_9  and  C_20 
REMARK    4  A    between atoms: C_22  and  N_14 
REMARK    5  A    between atoms: C_20  and  C_21 
REMARK    6  A    between atoms: C_21  and  C_22 
ROOT
ATOM      1  C   UNL d   1      30.755  16.369 -23.610  0.00  0.00     0.200 A 
ATOM      2  C   UNL d   1      30.002  16.112 -23.379  0.00  0.00     0.288 A 
ATOM      3  C   UNL d   1      30.843  17.031 -24.098  0.00  0.00     0.109 A 
ATOM      4  N   UNL d   1      29.332  16.515 -23.635  0.00  0.00    -0.270 N 
ATOM      5  C   UNL d   1      30.165  17.432 -24.352  0.00  0.00     0.036 A 
ATOM      6  C   UNL d   1      29.413  17.180 -24.125  0.00  0.00     0.069 A 
ATOM      7  O   UNL d   1      29.922  15.453 -22.893  0.00  0.00    -0.265 OA
ATOM      8  C   UNL d   1      28.581  16.263 -23.408  0.00  0.00     0.102 C 
ATOM      9  C   UNL d   1      30.243  18.094 -24.840  0.00  0.00     0.003 A 
ATOM     10  C   UNL d   1      28.740  17.582 -24.380  0.00  0.00     0.018 A 
ATOM     11  C   UNL d   1      29.574  18.498 -25.097  0.00  0.00     0.000 A 
ATOM     12  C   UNL d   1      28.820  18.241 -24.866  0.00  0.00     0.002 A 
ENDROOT
BRANCH   3  13
ATOM     13  N   UNL d   1      31.592  17.286 -24.327  0.00  0.00    -0.242 NA
BRANCH  13  14
ATOM     14  C   UNL d   1      31.820  18.066 -24.196  0.00  0.00     0.101 C 
BRANCH  14  15
ATOM     15  C   UNL d   1      32.603  18.239 -23.991  0.00  0.00     0.040 C 
BRANCH  15  16
ATOM     16  C   UNL d   1      32.882  19.011 -24.047  0.00  0.00     0.083 C 
BRANCH  16  17
ATOM     17  N   UNL d   1      33.016  19.456 -23.359  0.00  0.00    -0.285 N 
ATOM     18  C   UNL d   1      33.128  19.152 -22.603  0.00  0.00     0.183 A 
ATOM     19  N   UNL d   1      33.241  19.789 -22.093  0.00  0.00    -0.222 NA
ATOM     20  C   UNL d   1      33.198  20.481 -22.536  0.00  0.00     0.120 A 
ATOM     21  C   UNL d   1      33.060  20.278 -23.315  0.00  0.00     0.102 A 
ENDBRANCH  16  17
ENDBRANCH  15  16
ENDBRANCH  14  15
ENDBRANCH  13  14
ENDBRANCH   3  13
BRANCH   1  22
ATOM     22  N   UNL d   1      31.424  15.958 -23.348  0.00  0.00    -0.107 N 
ATOM     23  O   UNL d   1      31.918  15.579 -23.887  0.00  0.00    -0.531 OA
ATOM     24  O   UNL d   1      31.595  15.930 -22.537  0.00  0.00    -0.531 OA
ENDBRANCH   1  22
TORSDOF 6
ENDMDL
MODEL 4
REMARK VINA RESULT:       0.3      2.097      4.575
REMARK  6 active torsions:
REMARK  status: ('A' for Active; 'I' for Inactive)
REMARK    1  A    between atoms: N_5  and  C_1 
REMARK    2  A    between atoms: N_14  and  C_3 
REMARK    3  A    between atoms: N_9  and  C_20 
REMARK    4  A    between atoms: C_22  and  N_14 
REMARK    5  A    between atoms: C_20  and  C_21 
REMARK    6  A    between atoms: C_21  and  C_22 
ROOT
ATOM      1  C   UNL d   1      32.084  21.541 -20.977  0.00  0.00     0.200 A 
ATOM      2  C   UNL d   1      32.345  21.000 -21.548  0.00  0.00     0.288 A 
ATOM      3  C   UNL d   1      32.174  22.354 -21.095  0.00  0.00     0.109 A 
ATOM      4  N   UNL d   1      32.698  21.270 -22.240  0.00  0.00    -0.270 N 
ATOM      5  C   UNL d   1      32.530  22.618 -21.793  0.00  0.00     0.036 A 
ATOM      6  C   UNL d   1      32.791  22.084 -22.365  0.00  0.00     0.069 A 
ATOM      7  O   UNL d   1      32.251  20.192 -21.424  0.00  0.00    -0.265 OA
ATOM      8  C   UNL d   1      32.959  20.735 -22.811  0.00  0.00     0.102 C 
ATOM      9  C   UNL d   1      32.625  23.430 -21.920  0.00  0.00     0.003 A 
ATOM     10  C   UNL d   1      33.146  22.351 -23.060  0.00  0.00     0.018 A 
ATOM     11  C   UNL d   1      32.978  23.700 -22.613  0.00  0.00     0.000 A 
ATOM     12  C   UNL d   1      33.239  23.159 -23.184  0.00  0.00     0.002 A 
ENDROOT
BRANCH   3  13
ATOM     13  N   UNL d   1      31.915  22.892 -20.527  0.00  0.00    -0.242 NA
BRANCH  13  14
ATOM     14  C   UNL d   1      32.456  23.258 -20.027  0.00  0.00     0.101 C 
BRANCH  14  15
ATOM     15  C   UNL d   1      32.230  23.476 -19.261  0.00  0.00     0.040 C 
BRANCH  15  16
ATOM     16  C   UNL d   1      32.801  23.691 -18.709  0.00  0.00     0.083 C 
BRANCH  16  17
ATOM     17  N   UNL d   1      32.726  23.452 -17.918  0.00  0.00    -0.285 N 
ATOM     18  C   UNL d   1      32.139  23.695 -17.395  0.00  0.00     0.183 A 
ATOM     19  N   UNL d   1      32.278  23.322 -16.674  0.00  0.00    -0.222 NA
ATOM     20  C   UNL d   1      32.948  22.851 -16.756  0.00  0.00     0.120 A 
ATOM     21  C   UNL d   1      33.225  22.930 -17.520  0.00  0.00     0.102 A 
ENDBRANCH  16  17
ENDBRANCH  15  16
ENDBRANCH  14  15
ENDBRANCH  13  14
ENDBRANCH   3  13
BRANCH   1  22
ATOM     22  N   UNL d   1      31.729  21.262 -20.283  0.00  0.00    -0.107 N 
ATOM     23  O   UNL d   1      30.941  21.434 -20.119  0.00  0.00    -0.531 OA
ATOM     24  O   UNL d   1      32.174  20.807 -19.751  0.00  0.00    -0.531 OA
ENDBRANCH   1  22
TORSDOF 6
ENDMDL
