MODEL 1
REMARK VINA RESULT:      -3.2      0.000      0.000
REMARK  3 active torsions:
REMARK  status: ('A' for Active; 'I' for Inactive)
REMARK    1  A    between atoms: S_9  and  C_6 
REMARK    2  A    between atoms: C_13  and  S_9 
REMARK    3  A    between atoms: C_11  and  C_13 
ROOT
ATOM      1  C   UNL d   1      59.008   0.206  29.503  0.00  0.00     0.114 A 
ATOM      2  C   UNL d   1      58.788  -0.572  29.604  0.00  0.00     0.048 A 
ATOM      3  S   UNL d   1      58.596   0.672  30.032  0.00  0.00    -0.068 SA
ATOM      4  C   UNL d   1      58.225  -0.594  30.210  0.00  0.00     0.010 A 
ATOM      5  C   UNL d   1      58.094   0.150  30.484  0.00  0.00     0.031 A 
ATOM      6  C   UNL d   1      59.130  -1.162  29.129  0.00  0.00     0.111 A 
ATOM      7  N   UNL d   1      59.570   0.404  28.930  0.00  0.00    -0.217 NA
ATOM      8  N   UNL d   1      59.688  -0.974  28.558  0.00  0.00    -0.218 NA
ATOM      9  C   UNL d   1      59.908  -0.186  28.459  0.00  0.00     0.200 A 
ATOM     10  C   UNL d   1      57.819  -1.234  30.538  0.00  0.00     0.001 A 
ATOM     11  C   UNL d   1      57.557   0.298  31.093  0.00  0.00     0.006 A 
ATOM     12  C   UNL d   1      57.281  -1.090  31.146  0.00  0.00     0.000 A 
ATOM     13  C   UNL d   1      57.149  -0.351  31.420  0.00  0.00     0.001 A 
ENDROOT
BRANCH   6  14
ATOM     14  S   UNL d   1      58.909  -1.971  29.227  0.00  0.00    -0.083 SA
BRANCH  14  15
ATOM     15  C   UNL d   1      59.180  -2.518  28.703  0.00  0.00     0.161 C 
BRANCH  15  16
ATOM     16  C   UNL d   1      59.196  -3.305  28.930  0.00  0.00     0.197 C 
ATOM     17  O   UNL d   1      58.548  -3.775  28.773  0.00  0.00    -0.647 OA
ATOM     18  O   UNL d   1      59.834  -3.618  29.300  0.00  0.00    -0.647 OA
ENDBRANCH  15  16
ENDBRANCH  14  15
ENDBRANCH   6  14
TORSDOF 3
ENDMDL
MODEL 2
REMARK VINA RESULT:      -3.1      1.957      3.161
REMARK  3 active torsions:
REMARK  status: ('A' for Active; 'I' for Inactive)
REMARK    1  A    between atoms: S_9  and  C_6 
REMARK    2  A    between atoms: C_13  and  S_9 
REMARK    3  A    between atoms: C_11  and  C_13 
ROOT
ATOM      1  C   UNL d   1      60.651  -0.807  28.790  0.00  0.00     0.114 A 
ATOM      2  C   UNL d   1      59.901  -0.819  29.106  0.00  0.00     0.048 A 
ATOM      3  S   UNL d   1      60.845  -1.555  28.526  0.00  0.00    -0.068 SA
ATOM      4  C   UNL d   1      59.616  -1.594  29.040  0.00  0.00     0.010 A 
ATOM      5  C   UNL d   1      60.174  -2.056  28.691  0.00  0.00     0.031 A 
ATOM      6  C   UNL d   1      59.571  -0.122  29.415  0.00  0.00     0.111 A 
ATOM      7  N   UNL d   1      61.081  -0.100  28.778  0.00  0.00    -0.217 NA
ATOM      8  N   UNL d   1      59.991   0.583  29.407  0.00  0.00    -0.218 NA
ATOM      9  C   UNL d   1      60.749   0.592  29.086  0.00  0.00     0.200 A 
ATOM     10  C   UNL d   1      58.893  -1.919  29.269  0.00  0.00     0.001 A 
ATOM     11  C   UNL d   1      60.044  -2.860  28.552  0.00  0.00     0.006 A 
ATOM     12  C   UNL d   1      58.759  -2.721  29.132  0.00  0.00     0.000 A 
ATOM     13  C   UNL d   1      59.311  -3.182  28.786  0.00  0.00     0.001 A 
ENDROOT
BRANCH   6  14
ATOM     14  S   UNL d   1      58.794  -0.126  29.745  0.00  0.00    -0.083 SA
BRANCH  14  15
ATOM     15  C   UNL d   1      58.503   0.549  30.073  0.00  0.00     0.161 C 
BRANCH  15  16
ATOM     16  C   UNL d   1      57.762   0.529  30.421  0.00  0.00     0.197 C 
ATOM     17  O   UNL d   1      57.105   0.682  29.961  0.00  0.00    -0.647 OA
ATOM     18  O   UNL d   1      57.673   0.363  31.199  0.00  0.00    -0.647 OA
ENDBRANCH  15  16
ENDBRANCH  14  15
ENDBRANCH   6  14
TORSDOF 3
ENDMDL
MODEL 3
REMARK VINA RESULT:      -2.3      2.000      3.369
REMARK  3 active torsions:
REMARK  status: ('A' for Active; 'I' for Inactive)
REMARK    1  A    between atoms: S_9  and  C_6 
REMARK    2  A    between atoms: C_13  and  S_9 
REMARK    3  A    between atoms: C_11  and  C_13 
ROOT
ATOM      1  C   UNL d   1      59.578  -1.855  28.855  0.00  0.00     0.114 A 
ATOM      2  C   UNL d   1      59.313  -1.185  29.234  0.00  0.00     0.048 A 
ATOM      3  S   UNL d   1      60.295  -1.696  28.497  0.00  0.00    -0.068 SA
ATOM      4  C   UNL d   1      59.876  -0.591  29.112  0.00  0.00     0.010 A 
ATOM      5  C   UNL d   1      60.480  -0.880  28.667  0.00  0.00     0.031 A 
ATOM      6  C   UNL d   1      58.590  -1.201  29.644  0.00  0.00     0.111 A 
ATOM      7  N   UNL d   1      59.127  -2.548  28.880  0.00  0.00    -0.217 NA
ATOM      8  N   UNL d   1      58.137  -1.884  29.673  0.00  0.00    -0.218 NA
ATOM      9  C   UNL d   1      58.407  -2.560  29.289  0.00  0.00     0.200 A 
ATOM     10  C   UNL d   1      59.890   0.194  29.369  0.00  0.00     0.001 A 
ATOM     11  C   UNL d   1      61.125  -0.410  28.455  0.00  0.00     0.006 A 
ATOM     12  C   UNL d   1      60.532   0.666  29.160  0.00  0.00     0.000 A 
ATOM     13  C   UNL d   1      61.133   0.381  28.718  0.00  0.00     0.001 A 
ENDROOT
BRANCH   6  14
ATOM     14  S   UNL d   1      58.308  -0.511  30.040  0.00  0.00    -0.083 SA
BRANCH  14  15
ATOM     15  C   UNL d   1      57.730  -0.586  30.596  0.00  0.00     0.161 C 
BRANCH  15  16
ATOM     16  C   UNL d   1      57.444   0.091  30.958  0.00  0.00     0.197 C 
ATOM     17  O   UNL d   1      57.019   0.628  30.514  0.00  0.00    -0.647 OA
ATOM     18  O   UNL d   1      57.574   0.232  31.735  0.00  0.00    -0.647 OA
ENDBRANCH  15  16
ENDBRANCH  14  15
ENDBRANCH   6  14
TORSDOF 3
ENDMDL
MODEL 4
REMARK VINA RESULT:      -2.1      4.010      5.223
REMARK  3 active torsions:
REMARK  status: ('A' for Active; 'I' for Inactive)
REMARK    1  A    between atoms: S_9  and  C_6 
REMARK    2  A    between atoms: C_13  and  S_9 
REMARK    3  A    between atoms: C_11  and  C_13 
ROOT
ATOM      1  C   UNL d   1      56.577   0.671  34.851  0.00  0.00     0.114 A 
ATOM      2  C   UNL d   1      56.354   0.671  34.068  0.00  0.00     0.048 A 
ATOM      3  S   UNL d   1      55.909   0.674  35.322  0.00  0.00    -0.068 SA
ATOM      4  C   UNL d   1      55.526   0.675  34.046  0.00  0.00     0.010 A 
ATOM      5  C   UNL d   1      55.237   0.676  34.795  0.00  0.00     0.031 A 
ATOM      6  C   UNL d   1      56.934   0.669  33.473  0.00  0.00     0.111 A 
ATOM      7  N   UNL d   1      57.380   0.668  35.051  0.00  0.00    -0.217 NA
ATOM      8  N   UNL d   1      57.732   0.666  33.663  0.00  0.00    -0.218 NA
ATOM      9  C   UNL d   1      57.955   0.665  34.456  0.00  0.00     0.200 A 
ATOM     10  C   UNL d   1      55.009   0.677  33.402  0.00  0.00     0.001 A 
ATOM     11  C   UNL d   1      54.425   0.680  34.946  0.00  0.00     0.006 A 
ATOM     12  C   UNL d   1      54.198   0.680  33.547  0.00  0.00     0.000 A 
ATOM     13  C   UNL d   1      53.908   0.682  34.292  0.00  0.00     0.001 A 
ENDROOT
BRANCH   6  14
ATOM     14  S   UNL d   1      56.711   0.670  32.659  0.00  0.00    -0.083 SA
BRANCH  14  15
ATOM     15  C   UNL d   1      57.275   0.547  32.098  0.00  0.00     0.161 C 
BRANCH  15  16
ATOM     16  C   UNL d   1      57.062   0.168  31.403  0.00  0.00     0.197 C 
ATOM     17  O   UNL d   1      56.847   0.619  30.757  0.00  0.00    -0.647 OA
ATOM     18  O   UNL d   1      57.062  -0.631  31.348  0.00  0.00    -0.647 OA
ENDBRANCH  15  16
ENDBRANCH  14  15
ENDBRANCH   6  14
TORSDOF 3
ENDMDL
MODEL 5
REMARK VINA RESULT:      -1.8      2.418      3.390
REMARK  3 active torsions:
REMARK  status: ('A' for Active; 'I' for Inactive)
REMARK    1  A    between atoms: S_9  and  C_6 
REMARK    2  A    between atoms: C_13  and  S_9 
REMARK    3  A    between atoms: C_11  and  C_13 
ROOT
ATOM      1  C   UNL d   1      58.961   0.543  29.202  0.00  0.00     0.114 A 
ATOM      2  C   UNL d   1      58.829   0.537  30.006  0.00  0.00     0.048 A 
ATOM      3  S   UNL d   1      59.764   0.592  29.062  0.00  0.00    -0.068 SA
ATOM      4  C   UNL d   1      59.566   0.584  30.379  0.00  0.00     0.010 A 
ATOM      5  C   UNL d   1      60.147   0.618  29.825  0.00  0.00     0.031 A 
ATOM      6  C   UNL d   1      58.052   0.490  30.296  0.00  0.00     0.111 A 
ATOM      7  N   UNL d   1      58.322   0.502  28.679  0.00  0.00    -0.217 NA
ATOM      8  N   UNL d   1      57.412   0.449  29.784  0.00  0.00    -0.218 NA
ATOM      9  C   UNL d   1      57.549   0.455  28.971  0.00  0.00     0.200 A 
ATOM     10  C   UNL d   1      59.758   0.598  31.182  0.00  0.00     0.001 A 
ATOM     11  C   UNL d   1      60.944   0.668  30.036  0.00  0.00     0.006 A 
ATOM     12  C   UNL d   1      60.552   0.648  31.397  0.00  0.00     0.000 A 
ATOM     13  C   UNL d   1      61.131   0.682  30.848  0.00  0.00     0.001 A 
ENDROOT
BRANCH   6  14
ATOM     14  S   UNL d   1      57.905   0.483  31.127  0.00  0.00    -0.083 SA
BRANCH  14  15
ATOM     15  C   UNL d   1      57.146   0.512  31.392  0.00  0.00     0.161 C 
BRANCH  15  16
ATOM     16  C   UNL d   1      56.960   0.130  32.093  0.00  0.00     0.197 C 
ATOM     17  O   UNL d   1      57.075   0.522  32.799  0.00  0.00    -0.647 OA
ATOM     18  O   UNL d   1      56.669  -0.616  32.095  0.00  0.00    -0.647 OA
ENDBRANCH  15  16
ENDBRANCH  14  15
ENDBRANCH   6  14
TORSDOF 3
ENDMDL
MODEL 6
REMARK VINA RESULT:      -1.6      8.982      9.386
REMARK  3 active torsions:
REMARK  status: ('A' for Active; 'I' for Inactive)
REMARK    1  A    between atoms: S_9  and  C_6 
REMARK    2  A    between atoms: C_13  and  S_9 
REMARK    3  A    between atoms: C_11  and  C_13 
ROOT
ATOM      1  C   UNL d   1      58.110  -9.814  30.617  0.00  0.00     0.114 A 
ATOM      2  C   UNL d   1      58.811  -9.815  31.031  0.00  0.00     0.048 A 
ATOM      3  S   UNL d   1      58.271  -9.812  29.816  0.00  0.00    -0.068 SA
ATOM      4  C   UNL d   1      59.427  -9.814  30.478  0.00  0.00     0.010 A 
ATOM      5  C   UNL d   1      59.121  -9.813  29.735  0.00  0.00     0.031 A 
ATOM      6  C   UNL d   1      58.799  -9.817  31.862  0.00  0.00     0.111 A 
ATOM      7  N   UNL d   1      57.390  -9.814  31.024  0.00  0.00    -0.217 NA
ATOM      8  N   UNL d   1      58.090  -9.817  32.274  0.00  0.00    -0.218 NA
ATOM      9  C   UNL d   1      57.382  -9.815  31.852  0.00  0.00     0.200 A 
ATOM     10  C   UNL d   1      60.245  -9.815  30.590  0.00  0.00     0.001 A 
ATOM     11  C   UNL d   1      59.607  -9.812  29.067  0.00  0.00     0.006 A 
ATOM     12  C   UNL d   1      60.734  -9.814  29.926  0.00  0.00     0.000 A 
ATOM     13  C   UNL d   1      60.432  -9.813  29.186  0.00  0.00     0.001 A 
ENDROOT
BRANCH   6  14
ATOM     14  S   UNL d   1      59.521  -9.818  32.300  0.00  0.00    -0.083 SA
BRANCH  14  15
ATOM     15  C   UNL d   1      59.492  -9.804  33.104  0.00  0.00     0.161 C 
BRANCH  15  16
ATOM     16  C   UNL d   1      60.070  -9.389  33.511  0.00  0.00     0.197 C 
ATOM     17  O   UNL d   1      60.831  -9.682  33.525  0.00  0.00    -0.647 OA
ATOM     18  O   UNL d   1      59.899  -8.706  33.893  0.00  0.00    -0.647 OA
ENDBRANCH  15  16
ENDBRANCH  14  15
ENDBRANCH   6  14
TORSDOF 3
ENDMDL
MODEL 7
REMARK VINA RESULT:      -1.3      3.641      4.857
REMARK  3 active torsions:
REMARK  status: ('A' for Active; 'I' for Inactive)
REMARK    1  A    between atoms: S_9  and  C_6 
REMARK    2  A    between atoms: C_13  and  S_9 
REMARK    3  A    between atoms: C_11  and  C_13 
ROOT
ATOM      1  C   UNL d   1      58.420   0.680  33.029  0.00  0.00     0.114 A 
ATOM      2  C   UNL d   1      57.632   0.680  32.823  0.00  0.00     0.048 A 
ATOM      3  S   UNL d   1      58.875   0.680  32.351  0.00  0.00    -0.068 SA
ATOM      4  C   UNL d   1      57.591   0.679  31.996  0.00  0.00     0.010 A 
ATOM      5  C   UNL d   1      58.334   0.679  31.691  0.00  0.00     0.031 A 
ATOM      6  C   UNL d   1      57.050   0.680  33.416  0.00  0.00     0.111 A 
ATOM      7  N   UNL d   1      58.637   0.680  33.827  0.00  0.00    -0.217 NA
ATOM      8  N   UNL d   1      57.257   0.680  34.210  0.00  0.00    -0.218 NA
ATOM      9  C   UNL d   1      58.055   0.681  34.415  0.00  0.00     0.200 A 
ATOM     10  C   UNL d   1      56.936   0.679  31.493  0.00  0.00     0.001 A 
ATOM     11  C   UNL d   1      58.467   0.679  30.875  0.00  0.00     0.006 A 
ATOM     12  C   UNL d   1      57.064   0.679  30.679  0.00  0.00     0.000 A 
ATOM     13  C   UNL d   1      57.802   0.679  30.373  0.00  0.00     0.001 A 
ENDROOT
BRANCH   6  14
ATOM     14  S   UNL d   1      56.231   0.680  33.212  0.00  0.00    -0.083 SA
BRANCH  14  15
ATOM     15  C   UNL d   1      55.683   0.553  33.787  0.00  0.00     0.161 C 
BRANCH  15  16
ATOM     16  C   UNL d   1      54.952   0.249  33.574  0.00  0.00     0.197 C 
ATOM     17  O   UNL d   1      54.277   0.649  33.799  0.00  0.00    -0.647 OA
ATOM     18  O   UNL d   1      54.891  -0.428  33.152  0.00  0.00    -0.647 OA
ENDBRANCH  15  16
ENDBRANCH  14  15
ENDBRANCH   6  14
TORSDOF 3
ENDMDL
MODEL 8
REMARK VINA RESULT:      -0.9      2.729      3.637
REMARK  3 active torsions:
REMARK  status: ('A' for Active; 'I' for Inactive)
REMARK    1  A    between atoms: S_9  and  C_6 
REMARK    2  A    between atoms: C_13  and  S_9 
REMARK    3  A    between atoms: C_11  and  C_13 
ROOT
ATOM      1  C   UNL d   1      59.681   0.669  30.865  0.00  0.00     0.114 A 
ATOM      2  C   UNL d   1      58.867   0.671  30.869  0.00  0.00     0.048 A 
ATOM      3  S   UNL d   1      59.946   0.663  30.092  0.00  0.00    -0.068 SA
ATOM      4  C   UNL d   1      58.614   0.666  30.080  0.00  0.00     0.010 A 
ATOM      5  C   UNL d   1      59.253   0.661  29.594  0.00  0.00     0.031 A 
ATOM      6  C   UNL d   1      58.457   0.677  31.592  0.00  0.00     0.111 A 
ATOM      7  N   UNL d   1      60.097   0.674  31.580  0.00  0.00    -0.217 NA
ATOM      8  N   UNL d   1      58.862   0.682  32.306  0.00  0.00    -0.218 NA
ATOM      9  C   UNL d   1      59.686   0.680  32.298  0.00  0.00     0.200 A 
ATOM     10  C   UNL d   1      57.852   0.665  29.764  0.00  0.00     0.001 A 
ATOM     11  C   UNL d   1      59.171   0.655  28.772  0.00  0.00     0.006 A 
ATOM     12  C   UNL d   1      57.765   0.658  28.944  0.00  0.00     0.000 A 
ATOM     13  C   UNL d   1      58.399   0.654  28.458  0.00  0.00     0.001 A 
ENDROOT
BRANCH   6  14
ATOM     14  S   UNL d   1      57.613   0.679  31.606  0.00  0.00    -0.083 SA
BRANCH  14  15
ATOM     15  C   UNL d   1      57.232   0.682  32.314  0.00  0.00     0.161 C 
BRANCH  15  16
ATOM     16  C   UNL d   1      56.542   0.247  32.391  0.00  0.00     0.197 C 
ATOM     17  O   UNL d   1      56.594  -0.561  32.499  0.00  0.00    -0.647 OA
ATOM     18  O   UNL d   1      55.824   0.599  32.363  0.00  0.00    -0.647 OA
ENDBRANCH  15  16
ENDBRANCH  14  15
ENDBRANCH   6  14
TORSDOF 3
ENDMDL
