MODEL 1
REMARK VINA RESULT:      -8.4      0.000      0.000
REMARK  5 active torsions:
REMARK  status: ('A' for Active; 'I' for Inactive)
REMARK    1  A    between atoms: O_8  and  S_1 
REMARK    2  A    between atoms: C_13  and  S_1 
REMARK    3  A    between atoms: C_7  and  C_2 
REMARK    4  A    between atoms: C_18  and  C_7 
REMARK    5  A    between atoms: C_14  and  O_8 
ROOT
ATOM      1  C   UNL d   1      52.153  33.741  53.036  0.00  0.00     0.139 A 
ATOM      2  C   UNL d   1      53.122  32.856  53.248  0.00  0.00     0.064 A 
ATOM      3  C   UNL d   1      52.929  33.653  53.303  0.00  0.00     0.220 A 
ATOM      4  C   UNL d   1      52.471  32.448  52.948  0.00  0.00     0.105 A 
ATOM      5  O   UNL d   1      51.870  32.998  52.817  0.00  0.00    -0.304 OA
ATOM      6  C   UNL d   1      52.516  31.641  52.838  0.00  0.00     0.050 A 
ATOM      7  C   UNL d   1      53.814  32.449  53.434  0.00  0.00     0.007 A 
ATOM      8  C   UNL d   1      53.207  31.235  53.024  0.00  0.00     0.116 A 
ATOM      9  O   UNL d   1      53.415  34.262  53.574  0.00  0.00    -0.284 OA
ATOM     10  C   UNL d   1      53.852  31.639  53.321  0.00  0.00     0.026 A 
ENDROOT
BRANCH   8  11
ATOM     11  O   UNL d   1      53.248  30.421  52.911  0.00  0.00    -0.227 OA
BRANCH  11  12
ATOM     12  S   UNL d   1      53.281  29.914  53.561  0.00  0.00     0.304 S 
ATOM     13  O   UNL d   1      54.081  30.038  53.633  0.00  0.00    -0.193 OA
ATOM     14  O   UNL d   1      52.481  29.782  53.499  0.00  0.00    -0.193 OA
BRANCH  12  15
ATOM     15  C   UNL d   1      53.310  29.406  54.212  0.00  0.00     0.111 A 
ATOM     16  C   UNL d   1      53.686  28.668  54.147  0.00  0.00     0.013 A 
ATOM     17  C   UNL d   1      53.716  28.161  54.796  0.00  0.00     0.001 A 
ATOM     18  C   UNL d   1      53.369  28.386  55.517  0.00  0.00     0.000 A 
ATOM     19  C   UNL d   1      52.995  29.123  55.575  0.00  0.00     0.001 A 
ATOM     20  C   UNL d   1      52.967  29.629  54.924  0.00  0.00     0.013 A 
ENDBRANCH  12  15
ENDBRANCH  11  12
ENDBRANCH   8  11
BRANCH   1  21
ATOM     21  C   UNL d   1      51.729  34.448  52.994  0.00  0.00     0.029 C 
BRANCH  21  22
ATOM     22  C   UNL d   1      50.961  34.460  52.684  0.00  0.00     0.021 A 
ATOM     23  C   UNL d   1      50.326  34.541  53.196  0.00  0.00     0.099 A 
ATOM     24  N   UNL d   1      49.560  34.555  52.903  0.00  0.00    -0.242 NA
ATOM     25  C   UNL d   1      49.429  34.487  52.082  0.00  0.00     0.099 A 
ATOM     26  C   UNL d   1      50.073  34.406  51.571  0.00  0.00     0.021 A 
ATOM     27  C   UNL d   1      50.840  34.394  51.880  0.00  0.00     0.003 A 
ENDBRANCH  21  22
ENDBRANCH   1  21
TORSDOF 5
ENDMDL
MODEL 2
REMARK VINA RESULT:      -8.2      1.877      5.166
REMARK  5 active torsions:
REMARK  status: ('A' for Active; 'I' for Inactive)
REMARK    1  A    between atoms: O_8  and  S_1 
REMARK    2  A    between atoms: C_13  and  S_1 
REMARK    3  A    between atoms: C_7  and  C_2 
REMARK    4  A    between atoms: C_18  and  C_7 
REMARK    5  A    between atoms: C_14  and  O_8 
ROOT
ATOM      1  C   UNL d   1      53.498  31.720  53.312  0.00  0.00     0.139 A 
ATOM      2  C   UNL d   1      53.280  33.028  53.415  0.00  0.00     0.064 A 
ATOM      3  C   UNL d   1      53.867  32.458  53.337  0.00  0.00     0.220 A 
ATOM      4  C   UNL d   1      52.547  32.650  53.438  0.00  0.00     0.105 A 
ATOM      5  O   UNL d   1      52.683  31.838  53.374  0.00  0.00    -0.304 OA
ATOM      6  C   UNL d   1      51.866  33.091  53.513  0.00  0.00     0.050 A 
ATOM      7  C   UNL d   1      53.322  33.849  53.468  0.00  0.00     0.007 A 
ATOM      8  C   UNL d   1      51.908  33.912  53.566  0.00  0.00     0.116 A 
ATOM      9  O   UNL d   1      54.680  32.589  53.292  0.00  0.00    -0.284 OA
ATOM     10  C   UNL d   1      52.634  34.287  53.543  0.00  0.00     0.026 A 
ENDROOT
BRANCH   8  11
ATOM     11  O   UNL d   1      51.218  34.354  53.642  0.00  0.00    -0.227 OA
BRANCH  11  12
ATOM     12  S   UNL d   1      50.686  34.400  53.013  0.00  0.00     0.304 S 
ATOM     13  O   UNL d   1      50.260  33.776  53.310  0.00  0.00    -0.193 OA
ATOM     14  O   UNL d   1      51.104  35.026  52.706  0.00  0.00    -0.193 OA
BRANCH  12  15
ATOM     15  C   UNL d   1      50.156  34.451  52.382  0.00  0.00     0.111 A 
ATOM     16  C   UNL d   1      49.374  34.697  52.514  0.00  0.00     0.013 A 
ATOM     17  C   UNL d   1      48.843  34.748  51.884  0.00  0.00     0.001 A 
ATOM     18  C   UNL d   1      49.090  34.552  51.116  0.00  0.00     0.000 A 
ATOM     19  C   UNL d   1      49.872  34.307  50.990  0.00  0.00     0.001 A 
ATOM     20  C   UNL d   1      50.400  34.257  51.622  0.00  0.00     0.013 A 
ENDBRANCH  12  15
ENDBRANCH  11  12
ENDBRANCH   8  11
BRANCH   1  21
ATOM     21  C   UNL d   1      53.873  30.989  53.237  0.00  0.00     0.029 C 
BRANCH  21  22
ATOM     22  C   UNL d   1      53.514  30.301  53.525  0.00  0.00     0.021 A 
ATOM     23  C   UNL d   1      52.969  29.908  53.056  0.00  0.00     0.099 A 
ATOM     24  N   UNL d   1      52.606  29.225  53.328  0.00  0.00    -0.242 NA
ATOM     25  C   UNL d   1      52.794  28.930  54.085  0.00  0.00     0.099 A 
ATOM     26  C   UNL d   1      53.345  29.330  54.554  0.00  0.00     0.021 A 
ATOM     27  C   UNL d   1      53.703  30.018  54.267  0.00  0.00     0.003 A 
ENDBRANCH  21  22
ENDBRANCH   1  21
TORSDOF 5
ENDMDL
MODEL 3
REMARK VINA RESULT:      -7.9      2.259      3.569
REMARK  5 active torsions:
REMARK  status: ('A' for Active; 'I' for Inactive)
REMARK    1  A    between atoms: O_8  and  S_1 
REMARK    2  A    between atoms: C_13  and  S_1 
REMARK    3  A    between atoms: C_7  and  C_2 
REMARK    4  A    between atoms: C_18  and  C_7 
REMARK    5  A    between atoms: C_14  and  O_8 
ROOT
ATOM      1  C   UNL d   1      49.334  34.696  52.466  0.00  0.00     0.139 A 
ATOM      2  C   UNL d   1      50.598  34.445  52.137  0.00  0.00     0.064 A 
ATOM      3  C   UNL d   1      49.827  34.445  51.853  0.00  0.00     0.220 A 
ATOM      4  C   UNL d   1      50.589  34.695  52.923  0.00  0.00     0.105 A 
ATOM      5  O   UNL d   1      49.804  34.851  53.127  0.00  0.00    -0.304 OA
ATOM      6  C   UNL d   1      51.288  34.745  53.340  0.00  0.00     0.050 A 
ATOM      7  C   UNL d   1      51.311  34.247  51.776  0.00  0.00     0.007 A 
ATOM      8  C   UNL d   1      52.001  34.547  52.979  0.00  0.00     0.116 A 
ATOM      9  O   UNL d   1      49.579  34.234  51.096  0.00  0.00    -0.284 OA
ATOM     10  C   UNL d   1      52.010  34.300  52.200  0.00  0.00     0.026 A 
ENDROOT
BRANCH   8  11
ATOM     11  O   UNL d   1      52.704  34.599  53.403  0.00  0.00    -0.227 OA
BRANCH  11  12
ATOM     12  S   UNL d   1      53.039  33.921  53.731  0.00  0.00     0.304 S 
ATOM     13  O   UNL d   1      53.435  33.766  53.039  0.00  0.00    -0.193 OA
ATOM     14  O   UNL d   1      52.648  34.065  54.429  0.00  0.00    -0.193 OA
BRANCH  12  15
ATOM     15  C   UNL d   1      53.373  33.243  54.064  0.00  0.00     0.111 A 
ATOM     16  C   UNL d   1      53.702  33.273  54.827  0.00  0.00     0.013 A 
ATOM     17  C   UNL d   1      54.036  32.596  55.160  0.00  0.00     0.001 A 
ATOM     18  C   UNL d   1      54.043  31.882  54.735  0.00  0.00     0.000 A 
ATOM     19  C   UNL d   1      53.713  31.859  53.974  0.00  0.00     0.001 A 
ATOM     20  C   UNL d   1      53.380  32.538  53.644  0.00  0.00     0.013 A 
ENDBRANCH  12  15
ENDBRANCH  11  12
ENDBRANCH   8  11
BRANCH   1  21
ATOM     21  C   UNL d   1      48.514  34.781  52.430  0.00  0.00     0.029 C 
BRANCH  21  22
ATOM     22  C   UNL d   1      48.141  35.428  52.787  0.00  0.00     0.021 A 
ATOM     23  C   UNL d   1      48.046  35.435  53.601  0.00  0.00     0.099 A 
ATOM     24  N   UNL d   1      47.678  36.070  53.967  0.00  0.00    -0.242 NA
ATOM     25  C   UNL d   1      47.401  36.709  53.509  0.00  0.00     0.099 A 
ATOM     26  C   UNL d   1      47.500  36.697  52.688  0.00  0.00     0.021 A 
ATOM     27  C   UNL d   1      47.873  36.050  52.332  0.00  0.00     0.003 A 
ENDBRANCH  21  22
ENDBRANCH   1  21
TORSDOF 5
ENDMDL
MODEL 4
REMARK VINA RESULT:      -7.6      4.091      7.197
REMARK  5 active torsions:
REMARK  status: ('A' for Active; 'I' for Inactive)
REMARK    1  A    between atoms: O_8  and  S_1 
REMARK    2  A    between atoms: C_13  and  S_1 
REMARK    3  A    between atoms: C_7  and  C_2 
REMARK    4  A    between atoms: C_18  and  C_7 
REMARK    5  A    between atoms: C_14  and  O_8 
ROOT
ATOM      1  C   UNL d   1      49.700  34.508  52.248  0.00  0.00     0.139 A 
ATOM      2  C   UNL d   1      48.601  35.228  52.042  0.00  0.00     0.064 A 
ATOM      3  C   UNL d   1      49.139  34.721  51.682  0.00  0.00     0.220 A 
ATOM      4  C   UNL d   1      48.825  35.331  52.830  0.00  0.00     0.105 A 
ATOM      5  O   UNL d   1      49.507  34.884  52.957  0.00  0.00    -0.304 OA
ATOM      6  C   UNL d   1      48.381  35.813  53.316  0.00  0.00     0.050 A 
ATOM      7  C   UNL d   1      47.933  35.610  51.750  0.00  0.00     0.007 A 
ATOM      8  C   UNL d   1      47.713  36.195  53.024  0.00  0.00     0.116 A 
ATOM      9  O   UNL d   1      49.128  34.466  50.898  0.00  0.00    -0.284 OA
ATOM     10  C   UNL d   1      47.491  36.092  52.244  0.00  0.00     0.026 A 
ENDROOT
BRANCH   8  11
ATOM     11  O   UNL d   1      47.268  36.679  53.518  0.00  0.00    -0.227 OA
BRANCH  11  12
ATOM     12  S   UNL d   1      46.530  36.428  53.788  0.00  0.00     0.304 S 
ATOM     13  O   UNL d   1      46.174  36.709  53.115  0.00  0.00    -0.193 OA
ATOM     14  O   UNL d   1      46.876  36.143  54.466  0.00  0.00    -0.193 OA
BRANCH  12  15
ATOM     15  C   UNL d   1      45.794  36.175  54.063  0.00  0.00     0.111 A 
ATOM     16  C   UNL d   1      45.100  36.549  53.798  0.00  0.00     0.013 A 
ATOM     17  C   UNL d   1      44.364  36.297  54.072  0.00  0.00     0.001 A 
ATOM     18  C   UNL d   1      44.314  35.669  54.613  0.00  0.00     0.000 A 
ATOM     19  C   UNL d   1      45.009  35.300  54.874  0.00  0.00     0.001 A 
ATOM     20  C   UNL d   1      45.744  35.555  54.598  0.00  0.00     0.013 A 
ENDBRANCH  12  15
ENDBRANCH  11  12
ENDBRANCH   8  11
BRANCH   1  21
ATOM     21  C   UNL d   1      50.344  34.006  52.131  0.00  0.00     0.029 C 
BRANCH  21  22
ATOM     22  C   UNL d   1      50.999  34.037  52.637  0.00  0.00     0.021 A 
ATOM     23  C   UNL d   1      51.029  33.534  53.283  0.00  0.00     0.099 A 
ATOM     24  N   UNL d   1      51.671  33.554  53.792  0.00  0.00    -0.242 NA
ATOM     25  C   UNL d   1      52.296  34.088  53.650  0.00  0.00     0.099 A 
ATOM     26  C   UNL d   1      52.261  34.593  52.997  0.00  0.00     0.021 A 
ATOM     27  C   UNL d   1      51.607  34.562  52.492  0.00  0.00     0.003 A 
ENDBRANCH  21  22
ENDBRANCH   1  21
TORSDOF 5
ENDMDL
MODEL 5
REMARK VINA RESULT:      -7.3      3.306      5.064
REMARK  5 active torsions:
REMARK  status: ('A' for Active; 'I' for Inactive)
REMARK    1  A    between atoms: O_8  and  S_1 
REMARK    2  A    between atoms: C_13  and  S_1 
REMARK    3  A    between atoms: C_7  and  C_2 
REMARK    4  A    between atoms: C_18  and  C_7 
REMARK    5  A    between atoms: C_14  and  O_8 
ROOT
ATOM      1  C   UNL d   1      47.986  36.036  52.858  0.00  0.00     0.139 A 
ATOM      2  C   UNL d   1      48.713  35.238  52.081  0.00  0.00     0.064 A 
ATOM      3  C   UNL d   1      48.112  35.798  52.077  0.00  0.00     0.220 A 
ATOM      4  C   UNL d   1      48.962  35.125  52.859  0.00  0.00     0.105 A 
ATOM      5  O   UNL d   1      48.510  35.620  53.341  0.00  0.00    -0.304 OA
ATOM      6  C   UNL d   1      49.558  34.592  53.019  0.00  0.00     0.050 A 
ATOM      7  C   UNL d   1      49.066  34.814  51.470  0.00  0.00     0.007 A 
ATOM      8  C   UNL d   1      49.911  34.169  52.408  0.00  0.00     0.116 A 
ATOM      9  O   UNL d   1      47.702  36.079  51.419  0.00  0.00    -0.284 OA
ATOM     10  C   UNL d   1      49.665  34.280  51.637  0.00  0.00     0.026 A 
ENDROOT
BRANCH   8  11
ATOM     11  O   UNL d   1      50.513  33.633  52.574  0.00  0.00    -0.227 OA
BRANCH  11  12
ATOM     12  S   UNL d   1      51.211  33.892  52.929  0.00  0.00     0.304 S 
ATOM     13  O   UNL d   1      51.473  34.194  52.222  0.00  0.00    -0.193 OA
ATOM     14  O   UNL d   1      50.960  33.594  53.642  0.00  0.00    -0.193 OA
BRANCH  12  15
ATOM     15  C   UNL d   1      51.909  34.150  53.288  0.00  0.00     0.111 A 
ATOM     16  C   UNL d   1      52.194  33.764  53.966  0.00  0.00     0.013 A 
ATOM     17  C   UNL d   1      52.891  34.021  54.326  0.00  0.00     0.001 A 
ATOM     18  C   UNL d   1      53.309  34.666  54.011  0.00  0.00     0.000 A 
ATOM     19  C   UNL d   1      53.018  35.047  53.334  0.00  0.00     0.001 A 
ATOM     20  C   UNL d   1      52.321  34.787  52.977  0.00  0.00     0.013 A 
ENDBRANCH  12  15
ENDBRANCH  11  12
ENDBRANCH   8  11
BRANCH   1  21
ATOM     21  C   UNL d   1      47.433  36.591  53.115  0.00  0.00     0.029 C 
BRANCH  21  22
ATOM     22  C   UNL d   1      46.969  36.444  53.785  0.00  0.00     0.021 A 
ATOM     23  C   UNL d   1      47.226  36.709  54.516  0.00  0.00     0.099 A 
ATOM     24  N   UNL d   1      46.777  36.571  55.187  0.00  0.00    -0.242 NA
ATOM     25  C   UNL d   1      46.054  36.158  55.124  0.00  0.00     0.099 A 
ATOM     26  C   UNL d   1      45.799  35.892  54.384  0.00  0.00     0.021 A 
ATOM     27  C   UNL d   1      46.263  36.040  53.715  0.00  0.00     0.003 A 
ENDBRANCH  21  22
ENDBRANCH   1  21
TORSDOF 5
ENDMDL
MODEL 6
REMARK VINA RESULT:      -7.1      3.014      5.855
REMARK  5 active torsions:
REMARK  status: ('A' for Active; 'I' for Inactive)
REMARK    1  A    between atoms: O_8  and  S_1 
REMARK    2  A    between atoms: C_13  and  S_1 
REMARK    3  A    between atoms: C_7  and  C_2 
REMARK    4  A    between atoms: C_18  and  C_7 
REMARK    5  A    between atoms: C_14  and  O_8 
ROOT
ATOM      1  C   UNL d   1      52.758  34.378  53.335  0.00  0.00     0.139 A 
ATOM      2  C   UNL d   1      51.785  34.438  52.431  0.00  0.00     0.064 A 
ATOM      3  C   UNL d   1      52.596  34.516  52.537  0.00  0.00     0.220 A 
ATOM      4  C   UNL d   1      51.441  34.252  53.157  0.00  0.00     0.105 A 
ATOM      5  O   UNL d   1      52.046  34.215  53.718  0.00  0.00    -0.304 OA
ATOM      6  C   UNL d   1      50.635  34.144  53.207  0.00  0.00     0.050 A 
ATOM      7  C   UNL d   1      51.314  34.513  51.759  0.00  0.00     0.007 A 
ATOM      8  C   UNL d   1      50.164  34.219  52.535  0.00  0.00     0.116 A 
ATOM      9  O   UNL d   1      53.155  34.699  51.959  0.00  0.00    -0.284 OA
ATOM     10  C   UNL d   1      50.504  34.403  51.816  0.00  0.00     0.026 A 
ENDROOT
BRANCH   8  11
ATOM     11  O   UNL d   1      49.351  34.109  52.590  0.00  0.00    -0.227 OA
BRANCH  11  12
ATOM     12  S   UNL d   1      48.842  34.758  52.556  0.00  0.00     0.304 S 
ATOM     13  O   UNL d   1      48.993  34.933  53.335  0.00  0.00    -0.193 OA
ATOM     14  O   UNL d   1      48.684  34.593  51.776  0.00  0.00    -0.193 OA
BRANCH  12  15
ATOM     15  C   UNL d   1      48.333  35.407  52.518  0.00  0.00     0.111 A 
ATOM     16  C   UNL d   1      48.265  35.921  53.166  0.00  0.00     0.013 A 
ATOM     17  C   UNL d   1      47.756  36.570  53.129  0.00  0.00     0.001 A 
ATOM     18  C   UNL d   1      47.310  36.710  52.442  0.00  0.00     0.000 A 
ATOM     19  C   UNL d   1      47.382  36.192  51.798  0.00  0.00     0.001 A 
ATOM     20  C   UNL d   1      47.892  35.545  51.839  0.00  0.00     0.013 A 
ENDBRANCH  12  15
ENDBRANCH  11  12
ENDBRANCH   8  11
BRANCH   1  21
ATOM     21  C   UNL d   1      53.502  34.398  53.692  0.00  0.00     0.029 C 
BRANCH  21  22
ATOM     22  C   UNL d   1      53.746  33.784  54.190  0.00  0.00     0.021 A 
ATOM     23  C   UNL d   1      53.975  33.069  53.861  0.00  0.00     0.099 A 
ATOM     24  N   UNL d   1      54.219  32.453  54.343  0.00  0.00    -0.242 NA
ATOM     25  C   UNL d   1      54.235  32.554  55.170  0.00  0.00     0.099 A 
ATOM     26  C   UNL d   1      54.003  33.277  55.498  0.00  0.00     0.021 A 
ATOM     27  C   UNL d   1      53.759  33.891  54.999  0.00  0.00     0.003 A 
ENDBRANCH  21  22
ENDBRANCH   1  21
TORSDOF 5
ENDMDL
MODEL 7
REMARK VINA RESULT:      -6.8      1.278      2.073
REMARK  5 active torsions:
REMARK  status: ('A' for Active; 'I' for Inactive)
REMARK    1  A    between atoms: O_8  and  S_1 
REMARK    2  A    between atoms: C_13  and  S_1 
REMARK    3  A    between atoms: C_7  and  C_2 
REMARK    4  A    between atoms: C_18  and  C_7 
REMARK    5  A    between atoms: C_14  and  O_8 
ROOT
ATOM      1  C   UNL d   1      52.148  33.861  53.116  0.00  0.00     0.139 A 
ATOM      2  C   UNL d   1      51.809  32.577  53.058  0.00  0.00     0.064 A 
ATOM      3  C   UNL d   1      51.509  33.339  53.115  0.00  0.00     0.220 A 
ATOM      4  C   UNL d   1      52.633  32.620  53.024  0.00  0.00     0.105 A 
ATOM      5  O   UNL d   1      52.842  33.418  53.060  0.00  0.00    -0.304 OA
ATOM      6  C   UNL d   1      53.072  31.936  52.966  0.00  0.00     0.050 A 
ATOM      7  C   UNL d   1      51.434  31.844  53.034  0.00  0.00     0.007 A 
ATOM      8  C   UNL d   1      52.697  31.203  52.941  0.00  0.00     0.116 A 
ATOM      9  O   UNL d   1      50.714  33.555  53.162  0.00  0.00    -0.284 OA
ATOM     10  C   UNL d   1      51.881  31.160  52.975  0.00  0.00     0.026 A 
ENDROOT
BRANCH   8  11
ATOM     11  O   UNL d   1      53.144  30.515  52.883  0.00  0.00    -0.227 OA
BRANCH  11  12
ATOM     12  S   UNL d   1      53.217  30.014  53.533  0.00  0.00     0.304 S 
ATOM     13  O   UNL d   1      53.817  30.471  53.834  0.00  0.00    -0.193 OA
ATOM     14  O   UNL d   1      52.618  29.548  53.242  0.00  0.00    -0.193 OA
BRANCH  12  15
ATOM     15  C   UNL d   1      53.288  29.508  54.183  0.00  0.00     0.111 A 
ATOM     16  C   UNL d   1      53.171  29.801  54.952  0.00  0.00     0.013 A 
ATOM     17  C   UNL d   1      53.241  29.298  55.602  0.00  0.00     0.001 A 
ATOM     18  C   UNL d   1      53.428  28.496  55.489  0.00  0.00     0.000 A 
ATOM     19  C   UNL d   1      53.543  28.210  54.719  0.00  0.00     0.001 A 
ATOM     20  C   UNL d   1      53.472  28.717  54.072  0.00  0.00     0.013 A 
ENDBRANCH  12  15
ENDBRANCH  11  12
ENDBRANCH   8  11
BRANCH   1  21
ATOM     21  C   UNL d   1      52.107  34.684  53.164  0.00  0.00     0.029 C 
BRANCH  21  22
ATOM     22  C   UNL d   1      52.570  35.097  53.712  0.00  0.00     0.021 A 
ATOM     23  C   UNL d   1      52.248  35.292  54.440  0.00  0.00     0.099 A 
ATOM     24  N   UNL d   1      52.695  35.702  54.992  0.00  0.00    -0.242 NA
ATOM     25  C   UNL d   1      53.479  35.920  54.811  0.00  0.00     0.099 A 
ATOM     26  C   UNL d   1      53.799  35.721  54.075  0.00  0.00     0.021 A 
ATOM     27  C   UNL d   1      53.336  35.307  53.528  0.00  0.00     0.003 A 
ENDBRANCH  21  22
ENDBRANCH   1  21
TORSDOF 5
ENDMDL
