MODEL 1
REMARK VINA RESULT:      -6.7      0.000      0.000
REMARK  5 active torsions:
REMARK  status: ('A' for Active; 'I' for Inactive)
REMARK    1  A    between atoms: S_10  and  C_5 
REMARK    2  A    between atoms: C_14  and  N_9 
REMARK    3  A    between atoms: C_17  and  S_10 
REMARK    4  A    between atoms: C_15  and  C_14 
REMARK    5  A    between atoms: C_19  and  C_17 
ROOT
ATOM      1  C   UNL d   1     -49.340  14.519  23.116  0.00  0.00     0.174 A 
ATOM      2  N   UNL d   1     -48.558  14.358  22.958  0.00  0.00    -0.203 NA
ATOM      3  C   UNL d   1     -49.710  13.807  23.310  0.00  0.00     0.159 A 
ATOM      4  N   UNL d   1     -49.778  15.209  23.112  0.00  0.00    -0.239 N 
ATOM      5  C   UNL d   1     -48.449  13.546  23.058  0.00  0.00     0.181 A 
ATOM      6  C   UNL d   1     -50.595  15.222  23.299  0.00  0.00     0.358 A 
ATOM      7  N   UNL d   1     -50.965  14.511  23.494  0.00  0.00    -0.152 NA
ATOM      8  C   UNL d   1     -50.518  13.787  23.501  0.00  0.00     0.302 A 
ATOM      9  N   UNL d   1     -49.128  13.128  23.279  0.00  0.00    -0.279 N 
ATOM     10  O   UNL d   1     -51.043  15.918  23.297  0.00  0.00    -0.244 OA
ATOM     11  O   UNL d   1     -50.888  13.076  23.696  0.00  0.00    -0.263 OA
ATOM     12  C   UNL d   1     -49.408  15.920  22.917  0.00  0.00     0.105 C 
ENDROOT
BRANCH   5  13
ATOM     13  S   UNL d   1     -47.673  13.347  22.908  0.00  0.00    -0.049 SA
BRANCH  13  14
ATOM     14  C   UNL d   1     -46.940  13.625  23.160  0.00  0.00     0.038 C 
BRANCH  14  15
ATOM     15  C   UNL d   1     -46.247  13.306  22.847  0.00  0.00     0.007 A 
ATOM     16  C   UNL d   1     -45.906  12.641  23.192  0.00  0.00     0.003 A 
ATOM     17  C   UNL d   1     -45.216  12.321  22.882  0.00  0.00     0.030 A 
ATOM     18  C   UNL d   1     -44.860  12.669  22.219  0.00  0.00     0.140 A 
ATOM     19  C   UNL d   1     -45.202  13.334  21.874  0.00  0.00     0.030 A 
ATOM     20  F   UNL d   1     -44.167  12.350  21.905  0.00  0.00    -0.204 F 
ATOM     21  C   UNL d   1     -45.895  13.652  22.188  0.00  0.00     0.003 A 
ENDBRANCH  14  15
ENDBRANCH  13  14
ENDBRANCH   5  13
BRANCH   9  22
ATOM     22  C   UNL d   1     -49.248  12.333  23.429  0.00  0.00     0.082 C 
BRANCH  22  23
ATOM     23  C   UNL d   1     -49.180  11.791  22.809  0.00  0.00     0.019 C 
ATOM     24  C   UNL d   1     -49.180  10.984  22.966  0.00  0.00     0.002 C 
ENDBRANCH  22  23
ENDBRANCH   9  22
TORSDOF 5
ENDMDL
MODEL 2
REMARK VINA RESULT:      -6.3      3.192      5.287
REMARK  5 active torsions:
REMARK  status: ('A' for Active; 'I' for Inactive)
REMARK    1  A    between atoms: S_10  and  C_5 
REMARK    2  A    between atoms: C_14  and  N_9 
REMARK    3  A    between atoms: C_17  and  S_10 
REMARK    4  A    between atoms: C_15  and  C_14 
REMARK    5  A    between atoms: C_19  and  C_17 
ROOT
ATOM      1  C   UNL d   1     -45.456  11.567  23.159  0.00  0.00     0.174 A 
ATOM      2  N   UNL d   1     -46.238  11.608  23.383  0.00  0.00    -0.203 NA
ATOM      3  C   UNL d   1     -45.276  12.253  22.737  0.00  0.00     0.159 A 
ATOM      4  N   UNL d   1     -44.873  11.005  23.276  0.00  0.00    -0.239 N 
ATOM      5  C   UNL d   1     -46.537  12.322  23.097  0.00  0.00     0.181 A 
ATOM      6  C   UNL d   1     -44.095  11.100  22.980  0.00  0.00     0.358 A 
ATOM      7  N   UNL d   1     -43.915  11.786  22.558  0.00  0.00    -0.152 NA
ATOM      8  C   UNL d   1     -44.515  12.377  22.432  0.00  0.00     0.302 A 
ATOM      9  N   UNL d   1     -45.993  12.785  22.679  0.00  0.00    -0.279 N 
ATOM     10  O   UNL d   1     -43.501  10.535  23.095  0.00  0.00    -0.244 OA
ATOM     11  O   UNL d   1     -44.335  13.062  22.010  0.00  0.00    -0.263 OA
ATOM     12  C   UNL d   1     -45.053  10.319  23.698  0.00  0.00     0.105 C 
ENDROOT
BRANCH   5  13
ATOM     13  S   UNL d   1     -47.321  12.399  23.303  0.00  0.00    -0.049 SA
BRANCH  13  14
ATOM     14  C   UNL d   1     -47.932  11.876  23.484  0.00  0.00     0.038 C 
BRANCH  14  15
ATOM     15  C   UNL d   1     -48.715  12.086  23.331  0.00  0.00     0.007 A 
ATOM     16  C   UNL d   1     -49.167  11.635  22.811  0.00  0.00     0.003 A 
ATOM     17  C   UNL d   1     -49.947  11.840  22.655  0.00  0.00     0.030 A 
ATOM     18  C   UNL d   1     -50.281  12.504  23.024  0.00  0.00     0.140 A 
ATOM     19  C   UNL d   1     -49.828  12.954  23.543  0.00  0.00     0.030 A 
ATOM     20  F   UNL d   1     -51.064  12.714  22.870  0.00  0.00    -0.204 F 
ATOM     21  C   UNL d   1     -49.045  12.744  23.697  0.00  0.00     0.003 A 
ENDBRANCH  14  15
ENDBRANCH  13  14
ENDBRANCH   5  13
BRANCH   9  22
ATOM     22  C   UNL d   1     -46.072  13.514  22.315  0.00  0.00     0.082 C 
BRANCH  22  23
ATOM     23  C   UNL d   1     -46.123  14.194  22.781  0.00  0.00     0.019 C 
ATOM     24  C   UNL d   1     -46.369  14.904  22.448  0.00  0.00     0.002 C 
ENDBRANCH  22  23
ENDBRANCH   9  22
TORSDOF 5
ENDMDL
MODEL 3
REMARK VINA RESULT:      -6.0      0.895      2.322
REMARK  5 active torsions:
REMARK  status: ('A' for Active; 'I' for Inactive)
REMARK    1  A    between atoms: S_10  and  C_5 
REMARK    2  A    between atoms: C_14  and  N_9 
REMARK    3  A    between atoms: C_17  and  S_10 
REMARK    4  A    between atoms: C_15  and  C_14 
REMARK    5  A    between atoms: C_19  and  C_17 
ROOT
ATOM      1  C   UNL d   1     -49.207  12.474  23.246  0.00  0.00     0.174 A 
ATOM      2  N   UNL d   1     -48.409  12.502  23.088  0.00  0.00    -0.203 NA
ATOM      3  C   UNL d   1     -49.494  13.248  23.240  0.00  0.00     0.159 A 
ATOM      4  N   UNL d   1     -49.722  11.857  23.396  0.00  0.00    -0.239 N 
ATOM      5  C   UNL d   1     -48.207  13.296  22.985  0.00  0.00     0.181 A 
ATOM      6  C   UNL d   1     -50.538  11.983  23.545  0.00  0.00     0.358 A 
ATOM      7  N   UNL d   1     -50.825  12.756  23.539  0.00  0.00    -0.152 NA
ATOM      8  C   UNL d   1     -50.296  13.404  23.383  0.00  0.00     0.302 A 
ATOM      9  N   UNL d   1     -48.836  13.828  23.065  0.00  0.00    -0.279 N 
ATOM     10  O   UNL d   1     -51.064  11.362  23.698  0.00  0.00    -0.244 OA
ATOM     11  O   UNL d   1     -50.583  14.178  23.377  0.00  0.00    -0.263 OA
ATOM     12  C   UNL d   1     -49.435  11.084  23.403  0.00  0.00     0.105 C 
ENDROOT
BRANCH   5  13
ATOM     13  S   UNL d   1     -47.411  13.364  22.824  0.00  0.00    -0.049 SA
BRANCH  13  14
ATOM     14  C   UNL d   1     -46.716  13.222  23.243  0.00  0.00     0.038 C 
BRANCH  14  15
ATOM     15  C   UNL d   1     -46.016  13.060  22.839  0.00  0.00     0.007 A 
ATOM     16  C   UNL d   1     -45.696  13.621  22.328  0.00  0.00     0.003 A 
ATOM     17  C   UNL d   1     -44.998  13.463  21.925  0.00  0.00     0.030 A 
ATOM     18  C   UNL d   1     -44.614  12.736  22.032  0.00  0.00     0.140 A 
ATOM     19  C   UNL d   1     -44.935  12.177  22.543  0.00  0.00     0.030 A 
ATOM     20  F   UNL d   1     -43.913  12.575  21.628  0.00  0.00    -0.204 F 
ATOM     21  C   UNL d   1     -45.635  12.338  22.947  0.00  0.00     0.003 A 
ENDBRANCH  14  15
ENDBRANCH  13  14
ENDBRANCH   5  13
BRANCH   9  22
ATOM     22  C   UNL d   1     -48.864  14.644  23.004  0.00  0.00     0.082 C 
BRANCH  22  23
ATOM     23  C   UNL d   1     -48.805  14.996  22.259  0.00  0.00     0.019 C 
ATOM     24  C   UNL d   1     -48.651  15.801  22.195  0.00  0.00     0.002 C 
ENDBRANCH  22  23
ENDBRANCH   9  22
TORSDOF 5
ENDMDL
MODEL 4
REMARK VINA RESULT:      -5.1      8.581     10.191
REMARK  5 active torsions:
REMARK  status: ('A' for Active; 'I' for Inactive)
REMARK    1  A    between atoms: S_10  and  C_5 
REMARK    2  A    between atoms: C_14  and  N_9 
REMARK    3  A    between atoms: C_17  and  S_10 
REMARK    4  A    between atoms: C_15  and  C_14 
REMARK    5  A    between atoms: C_19  and  C_17 
ROOT
ATOM      1  C   UNL d   1     -39.254  14.600  18.238  0.00  0.00     0.174 A 
ATOM      2  N   UNL d   1     -38.913  14.419  18.955  0.00  0.00    -0.203 NA
ATOM      3  C   UNL d   1     -39.882  15.117  18.380  0.00  0.00     0.159 A 
ATOM      4  N   UNL d   1     -39.089  14.373  17.471  0.00  0.00    -0.239 N 
ATOM      5  C   UNL d   1     -39.334  14.826  19.537  0.00  0.00     0.181 A 
ATOM      6  C   UNL d   1     -39.537  14.647  16.817  0.00  0.00     0.358 A 
ATOM      7  N   UNL d   1     -40.164  15.163  16.958  0.00  0.00    -0.152 NA
ATOM      8  C   UNL d   1     -40.344  15.406  17.754  0.00  0.00     0.302 A 
ATOM      9  N   UNL d   1     -39.960  15.288  19.255  0.00  0.00    -0.279 N 
ATOM     10  O   UNL d   1     -39.374  14.419  16.037  0.00  0.00    -0.244 OA
ATOM     11  O   UNL d   1     -40.972  15.922  17.895  0.00  0.00    -0.263 OA
ATOM     12  C   UNL d   1     -38.461  13.856  17.329  0.00  0.00     0.105 C 
ENDROOT
BRANCH   5  13
ATOM     13  S   UNL d   1     -39.019  14.668  20.272  0.00  0.00    -0.049 SA
BRANCH  13  14
ATOM     14  C   UNL d   1     -38.283  14.428  20.553  0.00  0.00     0.038 C 
BRANCH  14  15
ATOM     15  C   UNL d   1     -38.199  14.185  21.337  0.00  0.00     0.007 A 
ATOM     16  C   UNL d   1     -38.052  14.741  21.927  0.00  0.00     0.003 A 
ATOM     17  C   UNL d   1     -37.967  14.502  22.708  0.00  0.00     0.030 A 
ATOM     18  C   UNL d   1     -38.030  13.699  22.904  0.00  0.00     0.140 A 
ATOM     19  C   UNL d   1     -38.177  13.145  22.314  0.00  0.00     0.030 A 
ATOM     20  F   UNL d   1     -37.946  13.456  23.688  0.00  0.00    -0.204 F 
ATOM     21  C   UNL d   1     -38.261  13.388  21.530  0.00  0.00     0.003 A 
ENDBRANCH  14  15
ENDBRANCH  13  14
ENDBRANCH   5  13
BRANCH   9  22
ATOM     22  C   UNL d   1     -40.498  15.765  19.646  0.00  0.00     0.082 C 
BRANCH  22  23
ATOM     23  C   UNL d   1     -41.028  15.422  20.178  0.00  0.00     0.019 C 
ATOM     24  C   UNL d   1     -41.494  15.898  20.659  0.00  0.00     0.002 C 
ENDBRANCH  22  23
ENDBRANCH   9  22
TORSDOF 5
ENDMDL
MODEL 5
REMARK VINA RESULT:      -5.1      8.944     10.428
REMARK  5 active torsions:
REMARK  status: ('A' for Active; 'I' for Inactive)
REMARK    1  A    between atoms: S_10  and  C_5 
REMARK    2  A    between atoms: C_14  and  N_9 
REMARK    3  A    between atoms: C_17  and  S_10 
REMARK    4  A    between atoms: C_15  and  C_14 
REMARK    5  A    between atoms: C_19  and  C_17 
ROOT
ATOM      1  C   UNL d   1     -39.283  14.442  20.060  0.00  0.00     0.174 A 
ATOM      2  N   UNL d   1     -38.938  14.305  19.336  0.00  0.00    -0.203 NA
ATOM      3  C   UNL d   1     -39.917  14.957  19.946  0.00  0.00     0.159 A 
ATOM      4  N   UNL d   1     -39.116  14.174  20.815  0.00  0.00    -0.239 N 
ATOM      5  C   UNL d   1     -39.363  14.738  18.776  0.00  0.00     0.181 A 
ATOM      6  C   UNL d   1     -39.569  14.406  21.482  0.00  0.00     0.358 A 
ATOM      7  N   UNL d   1     -40.203  14.922  21.367  0.00  0.00    -0.152 NA
ATOM      8  C   UNL d   1     -40.384  15.205  20.586  0.00  0.00     0.302 A 
ATOM      9  N   UNL d   1     -39.996  15.176  19.082  0.00  0.00    -0.279 N 
ATOM     10  O   UNL d   1     -39.404  14.139  22.248  0.00  0.00    -0.244 OA
ATOM     11  O   UNL d   1     -41.018  15.720  20.471  0.00  0.00    -0.263 OA
ATOM     12  C   UNL d   1     -38.482  13.659  20.929  0.00  0.00     0.105 C 
ENDROOT
BRANCH   5  13
ATOM     13  S   UNL d   1     -39.046  14.625  18.034  0.00  0.00    -0.049 SA
BRANCH  13  14
ATOM     14  C   UNL d   1     -38.303  14.421  17.742  0.00  0.00     0.038 C 
BRANCH  14  15
ATOM     15  C   UNL d   1     -38.212  14.220  16.947  0.00  0.00     0.007 A 
ATOM     16  C   UNL d   1     -38.113  14.811  16.382  0.00  0.00     0.003 A 
ATOM     17  C   UNL d   1     -38.023  14.615  15.589  0.00  0.00     0.030 A 
ATOM     18  C   UNL d   1     -38.031  13.818  15.357  0.00  0.00     0.140 A 
ATOM     19  C   UNL d   1     -38.129  13.229  15.923  0.00  0.00     0.030 A 
ATOM     20  F   UNL d   1     -37.940  13.617  14.562  0.00  0.00    -0.204 F 
ATOM     21  C   UNL d   1     -38.220  13.430  16.718  0.00  0.00     0.003 A 
ENDBRANCH  14  15
ENDBRANCH  13  14
ENDBRANCH   5  13
BRANCH   9  22
ATOM     22  C   UNL d   1     -40.540  15.666  18.716  0.00  0.00     0.082 C 
BRANCH  22  23
ATOM     23  C   UNL d   1     -40.957  15.388  18.060  0.00  0.00     0.019 C 
ATOM     24  C   UNL d   1     -41.433  15.899  17.628  0.00  0.00     0.002 C 
ENDBRANCH  22  23
ENDBRANCH   9  22
TORSDOF 5
ENDMDL
MODEL 6
REMARK VINA RESULT:      -4.8      1.665      2.679
REMARK  5 active torsions:
REMARK  status: ('A' for Active; 'I' for Inactive)
REMARK    1  A    between atoms: S_10  and  C_5 
REMARK    2  A    between atoms: C_14  and  N_9 
REMARK    3  A    between atoms: C_17  and  S_10 
REMARK    4  A    between atoms: C_15  and  C_14 
REMARK    5  A    between atoms: C_19  and  C_17 
ROOT
ATOM      1  C   UNL d   1     -48.848  13.029  22.309  0.00  0.00     0.174 A 
ATOM      2  N   UNL d   1     -48.287  12.491  22.550  0.00  0.00    -0.203 NA
ATOM      3  C   UNL d   1     -48.538  13.785  22.419  0.00  0.00     0.159 A 
ATOM      4  N   UNL d   1     -49.601  12.946  22.002  0.00  0.00    -0.239 N 
ATOM      5  C   UNL d   1     -47.631  12.920  22.810  0.00  0.00     0.181 A 
ATOM      6  C   UNL d   1     -50.074  13.607  21.794  0.00  0.00     0.358 A 
ATOM      7  N   UNL d   1     -49.764  14.363  21.904  0.00  0.00    -0.152 NA
ATOM      8  C   UNL d   1     -48.981  14.459  22.223  0.00  0.00     0.302 A 
ATOM      9  N   UNL d   1     -47.711  13.742  22.759  0.00  0.00    -0.279 N 
ATOM     10  O   UNL d   1     -50.837  13.529  21.482  0.00  0.00    -0.244 OA
ATOM     11  O   UNL d   1     -48.671  15.216  22.334  0.00  0.00    -0.263 OA
ATOM     12  C   UNL d   1     -49.911  12.190  21.891  0.00  0.00     0.105 C 
ENDROOT
BRANCH   5  13
ATOM     13  S   UNL d   1     -47.045  12.412  23.061  0.00  0.00    -0.049 SA
BRANCH  13  14
ATOM     14  C   UNL d   1     -46.978  11.847  23.656  0.00  0.00     0.038 C 
BRANCH  14  15
ATOM     15  C   UNL d   1     -46.354  11.308  23.646  0.00  0.00     0.007 A 
ATOM     16  C   UNL d   1     -46.506  10.500  23.696  0.00  0.00     0.003 A 
ATOM     17  C   UNL d   1     -45.887   9.960  23.686  0.00  0.00     0.030 A 
ATOM     18  C   UNL d   1     -45.105  10.229  23.626  0.00  0.00     0.140 A 
ATOM     19  C   UNL d   1     -44.954  11.037  23.576  0.00  0.00     0.030 A 
ATOM     20  F   UNL d   1     -44.481   9.690  23.616  0.00  0.00    -0.204 F 
ATOM     21  C   UNL d   1     -45.579  11.576  23.586  0.00  0.00     0.003 A 
ENDBRANCH  14  15
ENDBRANCH  13  14
ENDBRANCH   5  13
BRANCH   9  22
ATOM     22  C   UNL d   1     -47.197  14.348  22.956  0.00  0.00     0.082 C 
BRANCH  22  23
ATOM     23  C   UNL d   1     -46.560  14.514  22.459  0.00  0.00     0.019 C 
ATOM     24  C   UNL d   1     -46.028  15.109  22.655  0.00  0.00     0.002 C 
ENDBRANCH  22  23
ENDBRANCH   9  22
TORSDOF 5
ENDMDL
