MODEL 1
REMARK VINA RESULT:      19.5      0.000      0.000
REMARK  2 active torsions:
REMARK  status: ('A' for Active; 'I' for Inactive)
REMARK    1  A    between atoms: N_2  and  S_1 
REMARK    2  A    between atoms: C_3  and  S_1 
ROOT
ATOM      1  S   UNL d   1     -54.976-102.099 -38.263  0.00  0.00     0.272 S 
ATOM      2  O   UNL d   1     -54.711-101.318 -38.264  0.00  0.00    -0.200 OA
ATOM      3  O   UNL d   1     -55.241-102.879 -38.257  0.00  0.00    -0.200 OA
ENDROOT
BRANCH   1   4
ATOM      4  N   UNL d   1     -55.043-102.075 -37.441  0.00  0.00    -0.225 N 
ATOM      5  C   UNL d   1     -55.433-102.761 -36.998  0.00  0.00     0.118 A 
ATOM      6  C   UNL d   1     -55.507-102.735 -36.094  0.00  0.00     0.142 A 
ATOM      7  O   UNL d   1     -55.190-102.023 -35.633  0.00  0.00    -0.300 OA
ATOM      8  C   UNL d   1     -54.799-101.337 -36.077  0.00  0.00     0.142 A 
ATOM      9  C   UNL d   1     -54.726-101.363 -36.981  0.00  0.00     0.118 A 
ENDBRANCH   1   4
BRANCH   1  10
ATOM     10  C   UNL d   1     -54.911-102.127 -39.084  0.00  0.00     0.104 A 
ATOM     11  C   UNL d   1     -54.845-101.428 -39.515  0.00  0.00     0.015 A 
ATOM     12  C   UNL d   1     -54.779-101.451 -40.341  0.00  0.00     0.028 A 
ATOM     13  C   UNL d   1     -54.713-100.753 -40.776  0.00  0.00     0.002 C 
ATOM     14  C   UNL d   1     -54.779-102.181 -40.726  0.00  0.00     0.140 A 
ATOM     15  C   UNL d   1     -54.845-102.878 -40.291  0.00  0.00     0.030 A 
ATOM     16  F   UNL d   1     -54.714-102.212 -41.548  0.00  0.00    -0.204 F 
ATOM     17  C   UNL d   1     -54.911-102.855 -39.470  0.00  0.00     0.015 A 
ENDBRANCH   1  10
TORSDOF 2
ENDMDL
