MODEL 1
REMARK VINA RESULT:      -9.5      0.000      0.000
REMARK  3 active torsions:
REMARK  status: ('A' for Active; 'I' for Inactive)
REMARK    1  A    between atoms: C_7  and  C_1 
REMARK    2  A    between atoms: C_10  and  C_7 
REMARK    3  A    between atoms: N_8  and  C_9 
ROOT
ATOM      1  C   UNL d   1      52.470  31.988  53.060  0.00  0.00     0.129 A 
ATOM      2  C   UNL d   1      52.979  32.477  53.483  0.00  0.00     0.024 A 
ATOM      3  C   UNL d   1      51.757  32.282  52.780  0.00  0.00     0.050 A 
ATOM      4  C   UNL d   1      51.546  33.069  52.920  0.00  0.00     0.121 A 
ATOM      5  C   UNL d   1      52.051  33.564  53.343  0.00  0.00     0.119 A 
ATOM      6  C   UNL d   1      52.775  33.264  53.627  0.00  0.00     0.028 A 
ATOM      7  O   UNL d   1      50.880  33.511  52.711  0.00  0.00    -0.299 OA
ATOM      8  O   UNL d   1      51.706  34.304  53.398  0.00  0.00    -0.300 OA
ATOM      9  C   UNL d   1      50.979  34.275  53.007  0.00  0.00     0.304 A 
ENDROOT
BRANCH   2  10
ATOM     10  C   UNL d   1      53.690  32.178  53.760  0.00  0.00     0.011 C 
BRANCH  10  11
ATOM     11  C   UNL d   1      54.200  32.670  54.198  0.00  0.00     0.116 A 
ATOM     12  C   UNL d   1      54.130  32.708  55.022  0.00  0.00     0.288 A 
ATOM     13  N   UNL d   1      54.630  33.191  55.455  0.00  0.00    -0.152 NA
ATOM     14  O   UNL d   1      53.551  32.253  55.407  0.00  0.00    -0.265 OA
ATOM     15  C   UNL d   1      55.199  33.637  55.069  0.00  0.00     0.374 A 
ATOM     16  N   UNL d   1      55.268  33.599  54.245  0.00  0.00    -0.152 NA
ATOM     17  O   UNL d   1      55.708  34.129  55.502  0.00  0.00    -0.242 OA
ATOM     18  C   UNL d   1      54.768  33.116  53.812  0.00  0.00     0.288 A 
ATOM     19  O   UNL d   1      54.837  33.078  52.992  0.00  0.00    -0.265 OA
ENDBRANCH  10  11
ENDBRANCH   2  10
BRANCH   1  20
ATOM     20  N   UNL d   1      52.675  31.207  52.919  0.00  0.00    -0.114 N 
ATOM     21  O   UNL d   1      53.084  31.004  52.229  0.00  0.00    -0.532 OA
ATOM     22  O   UNL d   1      52.477  30.625  53.461  0.00  0.00    -0.532 OA
ENDBRANCH   1  20
TORSDOF 3
ENDMDL
MODEL 2
REMARK VINA RESULT:      -8.9      1.054      2.219
REMARK  3 active torsions:
REMARK  status: ('A' for Active; 'I' for Inactive)
REMARK    1  A    between atoms: C_7  and  C_1 
REMARK    2  A    between atoms: C_10  and  C_7 
REMARK    3  A    between atoms: N_8  and  C_9 
ROOT
ATOM      1  C   UNL d   1      52.482  32.170  53.024  0.00  0.00     0.129 A 
ATOM      2  C   UNL d   1      53.165  32.356  53.445  0.00  0.00     0.024 A 
ATOM      3  C   UNL d   1      52.257  31.387  52.934  0.00  0.00     0.050 A 
ATOM      4  C   UNL d   1      52.711  30.780  53.264  0.00  0.00     0.121 A 
ATOM      5  C   UNL d   1      53.396  30.960  53.686  0.00  0.00     0.119 A 
ATOM      6  C   UNL d   1      53.625  31.755  53.777  0.00  0.00     0.028 A 
ATOM      7  O   UNL d   1      52.625  29.959  53.265  0.00  0.00    -0.299 OA
ATOM      8  O   UNL d   1      53.732  30.260  53.946  0.00  0.00    -0.300 OA
ATOM      9  C   UNL d   1      53.257  29.638  53.687  0.00  0.00     0.304 A 
ENDROOT
BRANCH   2  10
ATOM     10  C   UNL d   1      53.386  33.141  53.532  0.00  0.00     0.011 C 
BRANCH  10  11
ATOM     11  C   UNL d   1      53.970  33.343  54.090  0.00  0.00     0.116 A 
ATOM     12  C   UNL d   1      53.749  33.587  54.849  0.00  0.00     0.288 A 
ATOM     13  N   UNL d   1      54.321  33.786  55.400  0.00  0.00    -0.152 NA
ATOM     14  O   UNL d   1      52.944  33.628  55.049  0.00  0.00    -0.265 OA
ATOM     15  C   UNL d   1      55.114  33.744  55.197  0.00  0.00     0.374 A 
ATOM     16  N   UNL d   1      55.335  33.500  54.437  0.00  0.00    -0.152 NA
ATOM     17  O   UNL d   1      55.698  33.945  55.750  0.00  0.00    -0.242 OA
ATOM     18  C   UNL d   1      54.762  33.301  53.886  0.00  0.00     0.288 A 
ATOM     19  O   UNL d   1      54.982  33.058  53.130  0.00  0.00    -0.265 OA
ENDBRANCH  10  11
ENDBRANCH   2  10
BRANCH   1  20
ATOM     20  N   UNL d   1      52.028  32.769  52.696  0.00  0.00    -0.114 N 
ATOM     21  O   UNL d   1      51.339  33.022  53.076  0.00  0.00    -0.532 OA
ATOM     22  O   UNL d   1      52.256  33.118  51.990  0.00  0.00    -0.532 OA
ENDBRANCH   1  20
TORSDOF 3
ENDMDL
MODEL 3
REMARK VINA RESULT:      -8.7      1.516      3.797
REMARK  3 active torsions:
REMARK  status: ('A' for Active; 'I' for Inactive)
REMARK    1  A    between atoms: C_7  and  C_1 
REMARK    2  A    between atoms: C_10  and  C_7 
REMARK    3  A    between atoms: N_8  and  C_9 
ROOT
ATOM      1  C   UNL d   1      53.384  32.923  54.022  0.00  0.00     0.129 A 
ATOM      2  C   UNL d   1      52.728  33.066  53.546  0.00  0.00     0.024 A 
ATOM      3  C   UNL d   1      53.745  32.187  54.010  0.00  0.00     0.050 A 
ATOM      4  C   UNL d   1      53.455  31.585  53.523  0.00  0.00     0.121 A 
ATOM      5  C   UNL d   1      52.799  31.723  53.044  0.00  0.00     0.119 A 
ATOM      6  C   UNL d   1      52.432  32.471  53.056  0.00  0.00     0.028 A 
ATOM      7  O   UNL d   1      53.698  30.806  53.396  0.00  0.00    -0.299 OA
ATOM      8  O   UNL d   1      52.634  31.039  52.625  0.00  0.00    -0.300 OA
ATOM      9  C   UNL d   1      53.190  30.469  52.841  0.00  0.00     0.304 A 
ENDROOT
BRANCH   2  10
ATOM     10  C   UNL d   1      52.370  33.804  53.561  0.00  0.00     0.011 C 
BRANCH  10  11
ATOM     11  C   UNL d   1      51.709  33.950  53.075  0.00  0.00     0.116 A 
ATOM     12  C   UNL d   1      51.815  34.280  52.324  0.00  0.00     0.288 A 
ATOM     13  N   UNL d   1      51.167  34.425  51.844  0.00  0.00    -0.152 NA
ATOM     14  O   UNL d   1      52.580  34.465  52.059  0.00  0.00    -0.265 OA
ATOM     15  C   UNL d   1      50.414  34.241  52.110  0.00  0.00     0.374 A 
ATOM     16  N   UNL d   1      50.309  33.910  52.862  0.00  0.00    -0.152 NA
ATOM     17  O   UNL d   1      49.754  34.385  51.628  0.00  0.00    -0.242 OA
ATOM     18  C   UNL d   1      50.958  33.765  53.342  0.00  0.00     0.288 A 
ATOM     19  O   UNL d   1      50.853  33.436  54.090  0.00  0.00    -0.265 OA
ENDBRANCH  10  11
ENDBRANCH   2  10
BRANCH   1  20
ATOM     20  N   UNL d   1      53.675  33.516  54.507  0.00  0.00    -0.114 N 
ATOM     21  O   UNL d   1      54.270  34.020  54.233  0.00  0.00    -0.532 OA
ATOM     22  O   UNL d   1      53.377  33.611  55.264  0.00  0.00    -0.532 OA
ENDBRANCH   1  20
TORSDOF 3
ENDMDL
MODEL 4
REMARK VINA RESULT:      -8.4      1.422      3.297
REMARK  3 active torsions:
REMARK  status: ('A' for Active; 'I' for Inactive)
REMARK    1  A    between atoms: C_7  and  C_1 
REMARK    2  A    between atoms: C_10  and  C_7 
REMARK    3  A    between atoms: N_8  and  C_9 
ROOT
ATOM      1  C   UNL d   1      53.142  31.949  53.392  0.00  0.00     0.129 A 
ATOM      2  C   UNL d   1      52.679  32.625  53.320  0.00  0.00     0.024 A 
ATOM      3  C   UNL d   1      53.784  31.944  53.902  0.00  0.00     0.050 A 
ATOM      4  C   UNL d   1      53.971  32.617  54.346  0.00  0.00     0.121 A 
ATOM      5  C   UNL d   1      53.511  33.297  54.278  0.00  0.00     0.119 A 
ATOM      6  C   UNL d   1      52.859  33.301  53.760  0.00  0.00     0.028 A 
ATOM      7  O   UNL d   1      54.570  32.773  54.892  0.00  0.00    -0.299 OA
ATOM      8  O   UNL d   1      53.819  33.870  54.775  0.00  0.00    -0.300 OA
ATOM      9  C   UNL d   1      54.476  33.548  55.157  0.00  0.00     0.304 A 
ENDROOT
BRANCH   2  10
ATOM     10  C   UNL d   1      52.038  32.624  52.808  0.00  0.00     0.011 C 
BRANCH  10  11
ATOM     11  C   UNL d   1      51.501  33.261  52.822  0.00  0.00     0.116 A 
ATOM     12  C   UNL d   1      50.842  33.235  53.322  0.00  0.00     0.288 A 
ATOM     13  N   UNL d   1      50.313  33.859  53.338  0.00  0.00    -0.152 NA
ATOM     14  O   UNL d   1      50.721  32.572  53.807  0.00  0.00    -0.265 OA
ATOM     15  C   UNL d   1      50.438  34.511  52.856  0.00  0.00     0.374 A 
ATOM     16  N   UNL d   1      51.097  34.537  52.356  0.00  0.00    -0.152 NA
ATOM     17  O   UNL d   1      49.905  35.147  52.868  0.00  0.00    -0.242 OA
ATOM     18  C   UNL d   1      51.627  33.912  52.341  0.00  0.00     0.288 A 
ATOM     19  O   UNL d   1      52.283  33.938  51.843  0.00  0.00    -0.265 OA
ENDBRANCH  10  11
ENDBRANCH   2  10
BRANCH   1  20
ATOM     20  N   UNL d   1      52.961  31.280  52.954  0.00  0.00    -0.114 N 
ATOM     21  O   UNL d   1      52.543  30.658  53.301  0.00  0.00    -0.532 OA
ATOM     22  O   UNL d   1      53.193  31.227  52.169  0.00  0.00    -0.532 OA
ENDBRANCH   1  20
TORSDOF 3
ENDMDL
MODEL 5
REMARK VINA RESULT:      -7.8      1.147      2.890
REMARK  3 active torsions:
REMARK  status: ('A' for Active; 'I' for Inactive)
REMARK    1  A    between atoms: C_7  and  C_1 
REMARK    2  A    between atoms: C_10  and  C_7 
REMARK    3  A    between atoms: N_8  and  C_9 
ROOT
ATOM      1  C   UNL d   1      53.773  33.197  53.703  0.00  0.00     0.129 A 
ATOM      2  C   UNL d   1      53.406  32.473  53.565  0.00  0.00     0.024 A 
ATOM      3  C   UNL d   1      53.332  33.888  53.689  0.00  0.00     0.050 A 
ATOM      4  C   UNL d   1      52.520  33.865  53.536  0.00  0.00     0.121 A 
ATOM      5  C   UNL d   1      52.147  33.143  53.397  0.00  0.00     0.119 A 
ATOM      6  C   UNL d   1      52.595  32.440  53.412  0.00  0.00     0.028 A 
ATOM      7  O   UNL d   1      51.946  34.456  53.487  0.00  0.00    -0.299 OA
ATOM      8  O   UNL d   1      51.352  33.282  53.263  0.00  0.00    -0.300 OA
ATOM      9  C   UNL d   1      51.224  34.096  53.318  0.00  0.00     0.304 A 
ENDROOT
BRANCH   2  10
ATOM     10  C   UNL d   1      53.851  31.784  53.581  0.00  0.00     0.011 C 
BRANCH  10  11
ATOM     11  C   UNL d   1      53.465  31.046  53.557  0.00  0.00     0.116 A 
ATOM     12  C   UNL d   1      53.302  30.643  54.261  0.00  0.00     0.288 A 
ATOM     13  N   UNL d   1      52.923  29.917  54.241  0.00  0.00    -0.152 NA
ATOM     14  O   UNL d   1      53.524  30.979  54.988  0.00  0.00    -0.265 OA
ATOM     15  C   UNL d   1      52.707  29.591  53.521  0.00  0.00     0.374 A 
ATOM     16  N   UNL d   1      52.870  29.995  52.817  0.00  0.00    -0.152 NA
ATOM     17  O   UNL d   1      52.323  28.856  53.494  0.00  0.00    -0.242 OA
ATOM     18  C   UNL d   1      53.249  30.721  52.838  0.00  0.00     0.288 A 
ATOM     19  O   UNL d   1      53.412  31.122  52.136  0.00  0.00    -0.265 OA
ENDBRANCH  10  11
ENDBRANCH   2  10
BRANCH   1  20
ATOM     20  N   UNL d   1      54.578  33.225  53.855  0.00  0.00    -0.114 N 
ATOM     21  O   UNL d   1      54.850  33.306  54.631  0.00  0.00    -0.532 OA
ATOM     22  O   UNL d   1      55.115  33.174  53.238  0.00  0.00    -0.532 OA
ENDBRANCH   1  20
TORSDOF 3
ENDMDL
