MODEL 1
REMARK VINA RESULT:      -3.1      0.000      0.000
REMARK  6 active torsions:
REMARK  status: ('A' for Active; 'I' for Inactive)
REMARK       I    between atoms: N_2  and  C_1 
REMARK    1  A    between atoms: C_3  and  C_1 
REMARK    2  A    between atoms: C_5  and  N_2 
REMARK    3  A    between atoms: C_6  and  C_3 
REMARK    4  A    between atoms: C_8  and  C_5 
REMARK    5  A    between atoms: O_7  and  C_6 
REMARK    6  A    between atoms: C_9  and  O_7 
ROOT
ATOM      1  C   UNL d   1      33.091  19.672 -22.535  0.00  0.00     0.330 C 
ATOM      2  N   UNL d   1      33.071  18.874 -22.718  0.00  0.00    -0.362 NA
ATOM      3  O   UNL d   1      33.237  20.222 -23.119  0.00  0.00    -0.251 OA
ENDROOT
BRANCH   1   4
ATOM      4  C   UNL d   1      32.965  19.912 -21.768  0.00  0.00     0.103 C 
BRANCH   4   5
ATOM      5  C   UNL d   1      32.873  20.722 -21.606  0.00  0.00     0.129 C 
BRANCH   5   6
ATOM      6  O   UNL d   1      32.622  20.967 -20.850  0.00  0.00    -0.305 OA
BRANCH   6   7
ATOM      7  C   UNL d   1      32.636  21.769 -20.646  0.00  0.00     0.100 A 
ATOM      8  C   UNL d   1      32.075  22.271 -20.939  0.00  0.00     0.025 A 
ATOM      9  C   UNL d   1      32.082  23.083 -20.738  0.00  0.00     0.002 A 
ATOM     10  C   UNL d   1      32.678  23.358 -20.231  0.00  0.00     0.000 A 
ATOM     11  C   UNL d   1      33.239  22.856 -19.938  0.00  0.00     0.002 A 
ATOM     12  C   UNL d   1      33.227  22.059 -20.139  0.00  0.00     0.025 A 
ENDBRANCH   6   7
ENDBRANCH   5   6
ENDBRANCH   4   5
ENDBRANCH   1   4
BRANCH   2  13
ATOM     13  C   UNL d   1      33.047  18.069 -22.885  0.00  0.00     0.165 C 
BRANCH  13  14
ATOM     14  C   UNL d   1      32.712  17.788 -23.580  0.00  0.00     0.032 A 
ATOM     15  C   UNL d   1      31.899  17.653 -23.618  0.00  0.00     0.003 A 
ATOM     16  C   UNL d   1      31.560  17.368 -24.323  0.00  0.00     0.000 A 
ATOM     17  C   UNL d   1      32.037  17.221 -24.982  0.00  0.00     0.000 A 
ATOM     18  C   UNL d   1      32.844  17.357 -24.938  0.00  0.00     0.000 A 
ATOM     19  C   UNL d   1      33.184  17.642 -24.232  0.00  0.00     0.003 A 
ENDBRANCH  13  14
ENDBRANCH   2  13
TORSDOF 6
ENDMDL
MODEL 2
REMARK VINA RESULT:      -3.1      1.041      1.557
REMARK  6 active torsions:
REMARK  status: ('A' for Active; 'I' for Inactive)
REMARK       I    between atoms: N_2  and  C_1 
REMARK    1  A    between atoms: C_3  and  C_1 
REMARK    2  A    between atoms: C_5  and  N_2 
REMARK    3  A    between atoms: C_6  and  C_3 
REMARK    4  A    between atoms: C_8  and  C_5 
REMARK    5  A    between atoms: O_7  and  C_6 
REMARK    6  A    between atoms: C_9  and  O_7 
ROOT
ATOM      1  C   UNL d   1      32.904  18.631 -23.203  0.00  0.00     0.330 C 
ATOM      2  N   UNL d   1      32.834  17.817 -23.235  0.00  0.00    -0.362 NA
ATOM      3  O   UNL d   1      32.740  19.082 -23.863  0.00  0.00    -0.251 OA
ENDROOT
BRANCH   1   4
ATOM      4  C   UNL d   1      33.137  18.989 -22.510  0.00  0.00     0.103 C 
BRANCH   4   5
ATOM      5  C   UNL d   1      32.936  19.784 -22.375  0.00  0.00     0.129 C 
BRANCH   5   6
ATOM      6  O   UNL d   1      33.153  20.150 -21.658  0.00  0.00    -0.305 OA
BRANCH   6   7
ATOM      7  C   UNL d   1      32.900  20.920 -21.491  0.00  0.00     0.100 A 
ATOM      8  C   UNL d   1      33.236  21.547 -21.873  0.00  0.00     0.025 A 
ATOM      9  C   UNL d   1      32.986  22.330 -21.710  0.00  0.00     0.002 A 
ATOM     10  C   UNL d   1      32.388  22.443 -21.147  0.00  0.00     0.000 A 
ATOM     11  C   UNL d   1      32.053  21.815 -20.764  0.00  0.00     0.002 A 
ATOM     12  C   UNL d   1      32.302  21.048 -20.929  0.00  0.00     0.025 A 
ENDBRANCH   6   7
ENDBRANCH   5   6
ENDBRANCH   4   5
ENDBRANCH   1   4
BRANCH   2  13
ATOM     13  C   UNL d   1      32.770  16.997 -23.251  0.00  0.00     0.165 C 
BRANCH  13  14
ATOM     14  C   UNL d   1      32.198  16.624 -23.707  0.00  0.00     0.032 A 
ATOM     15  C   UNL d   1      32.381  16.376 -24.472  0.00  0.00     0.003 A 
ATOM     16  C   UNL d   1      31.801  15.997 -24.934  0.00  0.00     0.000 A 
ATOM     17  C   UNL d   1      31.044  15.870 -24.626  0.00  0.00     0.000 A 
ATOM     18  C   UNL d   1      30.869  16.119 -23.864  0.00  0.00     0.000 A 
ATOM     19  C   UNL d   1      31.449  16.498 -23.402  0.00  0.00     0.003 A 
ENDBRANCH  13  14
ENDBRANCH   2  13
TORSDOF 6
ENDMDL
MODEL 3
REMARK VINA RESULT:      -3.0      1.031      5.337
REMARK  6 active torsions:
REMARK  status: ('A' for Active; 'I' for Inactive)
REMARK       I    between atoms: N_2  and  C_1 
REMARK    1  A    between atoms: C_3  and  C_1 
REMARK    2  A    between atoms: C_5  and  N_2 
REMARK    3  A    between atoms: C_6  and  C_3 
REMARK    4  A    between atoms: C_8  and  C_5 
REMARK    5  A    between atoms: O_7  and  C_6 
REMARK    6  A    between atoms: C_9  and  O_7 
ROOT
ATOM      1  C   UNL d   1      33.094  20.571 -21.990  0.00  0.00     0.330 C 
ATOM      2  N   UNL d   1      33.165  21.386 -22.000  0.00  0.00    -0.362 NA
ATOM      3  O   UNL d   1      32.876  20.188 -21.303  0.00  0.00    -0.251 OA
ENDROOT
BRANCH   1   4
ATOM      4  C   UNL d   1      33.241  20.145 -22.668  0.00  0.00     0.103 C 
BRANCH   4   5
ATOM      5  C   UNL d   1      32.908  19.388 -22.752  0.00  0.00     0.129 C 
BRANCH   5   6
ATOM      6  O   UNL d   1      32.977  18.985 -23.479  0.00  0.00    -0.305 OA
BRANCH   6   7
ATOM      7  C   UNL d   1      32.570  18.275 -23.601  0.00  0.00     0.100 A 
ATOM      8  C   UNL d   1      31.918  18.258 -24.078  0.00  0.00     0.025 A 
ATOM      9  C   UNL d   1      31.502  17.544 -24.206  0.00  0.00     0.002 A 
ATOM     10  C   UNL d   1      31.774  16.856 -23.832  0.00  0.00     0.000 A 
ATOM     11  C   UNL d   1      32.426  16.872 -23.355  0.00  0.00     0.002 A 
ATOM     12  C   UNL d   1      32.832  17.578 -23.233  0.00  0.00     0.025 A 
ENDBRANCH   6   7
ENDBRANCH   5   6
ENDBRANCH   4   5
ENDBRANCH   1   4
BRANCH   2  13
ATOM     13  C   UNL d   1      33.241  22.204 -22.027  0.00  0.00     0.165 C 
BRANCH  13  14
ATOM     14  C   UNL d   1      32.875  22.685 -21.471  0.00  0.00     0.032 A 
ATOM     15  C   UNL d   1      33.226  22.798 -20.732  0.00  0.00     0.003 A 
ATOM     16  C   UNL d   1      32.855  23.285 -20.168  0.00  0.00     0.000 A 
ATOM     17  C   UNL d   1      32.137  23.655 -20.348  0.00  0.00     0.000 A 
ATOM     18  C   UNL d   1      31.794  23.538 -21.084  0.00  0.00     0.000 A 
ATOM     19  C   UNL d   1      32.165  23.050 -21.648  0.00  0.00     0.003 A 
ENDBRANCH  13  14
ENDBRANCH   2  13
TORSDOF 6
ENDMDL
MODEL 4
REMARK VINA RESULT:      -2.2      1.321      5.643
REMARK  6 active torsions:
REMARK  status: ('A' for Active; 'I' for Inactive)
REMARK       I    between atoms: N_2  and  C_1 
REMARK    1  A    between atoms: C_3  and  C_1 
REMARK    2  A    between atoms: C_5  and  N_2 
REMARK    3  A    between atoms: C_6  and  C_3 
REMARK    4  A    between atoms: C_8  and  C_5 
REMARK    5  A    between atoms: O_7  and  C_6 
REMARK    6  A    between atoms: C_9  and  O_7 
ROOT
ATOM      1  C   UNL d   1      32.605  21.340 -20.992  0.00  0.00     0.330 C 
ATOM      2  N   UNL d   1      32.914  21.965 -20.564  0.00  0.00    -0.362 NA
ATOM      3  O   UNL d   1      31.814  21.151 -20.927  0.00  0.00    -0.251 OA
ENDROOT
BRANCH   1   4
ATOM      4  C   UNL d   1      33.090  20.909 -21.484  0.00  0.00     0.103 C 
BRANCH   4   5
ATOM      5  C   UNL d   1      32.780  20.249 -21.882  0.00  0.00     0.129 C 
BRANCH   5   6
ATOM      6  O   UNL d   1      33.202  19.916 -22.520  0.00  0.00    -0.305 OA
BRANCH   6   7
ATOM      7  C   UNL d   1      32.941  19.213 -22.870  0.00  0.00     0.100 A 
ATOM      8  C   UNL d   1      33.146  18.501 -22.548  0.00  0.00     0.025 A 
ATOM      9  C   UNL d   1      32.887  17.785 -22.896  0.00  0.00     0.002 A 
ATOM     10  C   UNL d   1      32.414  17.826 -23.576  0.00  0.00     0.000 A 
ATOM     11  C   UNL d   1      32.209  18.538 -23.898  0.00  0.00     0.002 A 
ATOM     12  C   UNL d   1      32.468  19.239 -23.551  0.00  0.00     0.025 A 
ENDBRANCH   6   7
ENDBRANCH   5   6
ENDBRANCH   4   5
ENDBRANCH   1   4
BRANCH   2  13
ATOM     13  C   UNL d   1      33.240  22.589 -20.140  0.00  0.00     0.165 C 
BRANCH  13  14
ATOM     14  C   UNL d   1      32.871  22.890 -19.471  0.00  0.00     0.032 A 
ATOM     15  C   UNL d   1      32.220  23.390 -19.552  0.00  0.00     0.003 A 
ATOM     16  C   UNL d   1      31.845  23.695 -18.873  0.00  0.00     0.000 A 
ATOM     17  C   UNL d   1      32.125  23.496 -18.121  0.00  0.00     0.000 A 
ATOM     18  C   UNL d   1      32.773  22.998 -18.048  0.00  0.00     0.000 A 
ATOM     19  C   UNL d   1      33.148  22.693 -18.727  0.00  0.00     0.003 A 
ENDBRANCH  13  14
ENDBRANCH   2  13
TORSDOF 6
ENDMDL
MODEL 5
REMARK VINA RESULT:      -2.1      3.095      5.485
REMARK  6 active torsions:
REMARK  status: ('A' for Active; 'I' for Inactive)
REMARK       I    between atoms: N_2  and  C_1 
REMARK    1  A    between atoms: C_3  and  C_1 
REMARK    2  A    between atoms: C_5  and  N_2 
REMARK    3  A    between atoms: C_6  and  C_3 
REMARK    4  A    between atoms: C_8  and  C_5 
REMARK    5  A    between atoms: O_7  and  C_6 
REMARK    6  A    between atoms: C_9  and  O_7 
ROOT
ATOM      1  C   UNL d   1      32.184  15.931 -23.572  0.00  0.00     0.330 C 
ATOM      2  N   UNL d   1      32.716  16.533 -23.727  0.00  0.00    -0.362 NA
ATOM      3  O   UNL d   1      32.287  15.453 -22.918  0.00  0.00    -0.251 OA
ENDROOT
BRANCH   1   4
ATOM      4  C   UNL d   1      31.554  15.811 -24.073  0.00  0.00     0.103 C 
BRANCH   4   5
ATOM      5  C   UNL d   1      30.793  15.719 -23.752  0.00  0.00     0.129 C 
BRANCH   5   6
ATOM      6  O   UNL d   1      30.124  15.831 -24.237  0.00  0.00    -0.305 OA
BRANCH   6   7
ATOM      7  C   UNL d   1      29.410  16.088 -23.908  0.00  0.00     0.100 A 
ATOM      8  C   UNL d   1      29.067  15.669 -23.308  0.00  0.00     0.025 A 
ATOM      9  C   UNL d   1      28.345  15.921 -22.969  0.00  0.00     0.002 A 
ATOM     10  C   UNL d   1      27.991  16.611 -23.264  0.00  0.00     0.000 A 
ATOM     11  C   UNL d   1      28.334  17.031 -23.864  0.00  0.00     0.002 A 
ATOM     12  C   UNL d   1      29.044  16.777 -24.193  0.00  0.00     0.025 A 
ENDBRANCH   6   7
ENDBRANCH   5   6
ENDBRANCH   4   5
ENDBRANCH   1   4
BRANCH   2  13
ATOM     13  C   UNL d   1      33.241  17.143 -23.897  0.00  0.00     0.165 C 
BRANCH  13  14
ATOM     14  C   UNL d   1      33.130  17.898 -23.595  0.00  0.00     0.032 A 
ATOM     15  C   UNL d   1      32.906  18.512 -24.098  0.00  0.00     0.003 A 
ATOM     16  C   UNL d   1      32.793  19.278 -23.791  0.00  0.00     0.000 A 
ATOM     17  C   UNL d   1      32.905  19.422 -22.984  0.00  0.00     0.000 A 
ATOM     18  C   UNL d   1      33.127  18.806 -22.490  0.00  0.00     0.000 A 
ATOM     19  C   UNL d   1      33.240  18.040 -22.797  0.00  0.00     0.003 A 
ENDBRANCH  13  14
ENDBRANCH   2  13
TORSDOF 6
ENDMDL
MODEL 6
REMARK VINA RESULT:      -1.9      1.826      5.432
REMARK  6 active torsions:
REMARK  status: ('A' for Active; 'I' for Inactive)
REMARK       I    between atoms: N_2  and  C_1 
REMARK    1  A    between atoms: C_3  and  C_1 
REMARK    2  A    between atoms: C_5  and  N_2 
REMARK    3  A    between atoms: C_6  and  C_3 
REMARK    4  A    between atoms: C_8  and  C_5 
REMARK    5  A    between atoms: O_7  and  C_6 
REMARK    6  A    between atoms: C_9  and  O_7 
ROOT
ATOM      1  C   UNL d   1      32.589  18.016 -23.306  0.00  0.00     0.330 C 
ATOM      2  N   UNL d   1      32.915  18.760 -23.202  0.00  0.00    -0.362 NA
ATOM      3  O   UNL d   1      32.837  17.393 -22.841  0.00  0.00    -0.251 OA
ENDROOT
BRANCH   1   4
ATOM      4  C   UNL d   1      32.019  17.902 -23.875  0.00  0.00     0.103 C 
BRANCH   4   5
ATOM      5  C   UNL d   1      31.449  17.307 -23.765  0.00  0.00     0.129 C 
BRANCH   5   6
ATOM      6  O   UNL d   1      31.063  16.976 -24.426  0.00  0.00    -0.305 OA
BRANCH   6   7
ATOM      7  C   UNL d   1      30.294  16.680 -24.354  0.00  0.00     0.100 A 
ATOM      8  C   UNL d   1      29.670  17.188 -24.283  0.00  0.00     0.025 A 
ATOM      9  C   UNL d   1      28.889  16.897 -24.209  0.00  0.00     0.002 A 
ATOM     10  C   UNL d   1      28.773  16.076 -24.212  0.00  0.00     0.000 A 
ATOM     11  C   UNL d   1      29.397  15.568 -24.283  0.00  0.00     0.002 A 
ATOM     12  C   UNL d   1      30.163  15.860 -24.355  0.00  0.00     0.025 A 
ENDBRANCH   6   7
ENDBRANCH   5   6
ENDBRANCH   4   5
ENDBRANCH   1   4
BRANCH   2  13
ATOM     13  C   UNL d   1      33.231  19.513 -23.110  0.00  0.00     0.165 C 
BRANCH  13  14
ATOM     14  C   UNL d   1      33.126  19.938 -22.416  0.00  0.00     0.032 A 
ATOM     15  C   UNL d   1      33.233  19.566 -21.687  0.00  0.00     0.003 A 
ATOM     16  C   UNL d   1      33.126  19.997 -20.983  0.00  0.00     0.000 A 
ATOM     17  C   UNL d   1      32.914  20.796 -21.014  0.00  0.00     0.000 A 
ATOM     18  C   UNL d   1      32.809  21.159 -21.742  0.00  0.00     0.000 A 
ATOM     19  C   UNL d   1      32.916  20.728 -22.446  0.00  0.00     0.003 A 
ENDBRANCH  13  14
ENDBRANCH   2  13
TORSDOF 6
ENDMDL
MODEL 7
REMARK VINA RESULT:      -1.4      1.294      2.062
REMARK  6 active torsions:
REMARK  status: ('A' for Active; 'I' for Inactive)
REMARK       I    between atoms: N_2  and  C_1 
REMARK    1  A    between atoms: C_3  and  C_1 
REMARK    2  A    between atoms: C_5  and  N_2 
REMARK    3  A    between atoms: C_6  and  C_3 
REMARK    4  A    between atoms: C_8  and  C_5 
REMARK    5  A    between atoms: O_7  and  C_6 
REMARK    6  A    between atoms: C_9  and  O_7 
ROOT
ATOM      1  C   UNL d   1      32.098  20.813 -21.171  0.00  0.00     0.330 C 
ATOM      2  N   UNL d   1      32.633  20.290 -21.502  0.00  0.00    -0.362 NA
ATOM      3  O   UNL d   1      31.344  20.564 -20.985  0.00  0.00    -0.251 OA
ENDROOT
BRANCH   1   4
ATOM      4  C   UNL d   1      32.322  21.582 -21.029  0.00  0.00     0.103 C 
BRANCH   4   5
ATOM      5  C   UNL d   1      32.180  21.915 -20.281  0.00  0.00     0.129 C 
BRANCH   5   6
ATOM      6  O   UNL d   1      32.497  22.663 -20.094  0.00  0.00    -0.305 OA
BRANCH   6   7
ATOM      7  C   UNL d   1      32.578  22.896 -19.304  0.00  0.00     0.100 A 
ATOM      8  C   UNL d   1      32.086  23.459 -18.996  0.00  0.00     0.025 A 
ATOM      9  C   UNL d   1      32.161  23.700 -18.198  0.00  0.00     0.002 A 
ATOM     10  C   UNL d   1      32.750  23.347 -17.733  0.00  0.00     0.000 A 
ATOM     11  C   UNL d   1      33.241  22.784 -18.041  0.00  0.00     0.002 A 
ATOM     12  C   UNL d   1      33.163  22.551 -18.826  0.00  0.00     0.025 A 
ENDBRANCH   6   7
ENDBRANCH   5   6
ENDBRANCH   4   5
ENDBRANCH   1   4
BRANCH   2  13
ATOM     13  C   UNL d   1      33.182  19.776 -21.835  0.00  0.00     0.165 C 
BRANCH  13  14
ATOM     14  C   UNL d   1      32.997  19.323 -22.495  0.00  0.00     0.032 A 
ATOM     15  C   UNL d   1      32.875  18.511 -22.413  0.00  0.00     0.003 A 
ATOM     16  C   UNL d   1      32.688  18.052 -23.082  0.00  0.00     0.000 A 
ATOM     17  C   UNL d   1      32.623  18.409 -23.825  0.00  0.00     0.000 A 
ATOM     18  C   UNL d   1      32.745  19.217 -23.899  0.00  0.00     0.000 A 
ATOM     19  C   UNL d   1      32.933  19.676 -23.230  0.00  0.00     0.003 A 
ENDBRANCH  13  14
ENDBRANCH   2  13
TORSDOF 6
ENDMDL
