MODEL 1
REMARK VINA RESULT:      -7.8      0.000      0.000
REMARK  7 active torsions:
REMARK  status: ('A' for Active; 'I' for Inactive)
REMARK    1  A    between atoms: C_13  and  N_1 
REMARK    2  A    between atoms: C_2  and  N_6 
REMARK    3  A    between atoms: C_8  and  C_5 
REMARK       I    between atoms: N_6  and  C_8 
REMARK    4  A    between atoms: S_20  and  C_9 
REMARK    5  A    between atoms: C_14  and  C_19 
REMARK    6  A    between atoms: C_19  and  C_23 
REMARK    7  A    between atoms: C_23  and  S_20 
ROOT
ATOM      1  N   UNL d   1     -45.015  13.121  21.811  0.00  0.00    -0.181 NA
ATOM      2  C   UNL d   1     -45.430  12.922  22.428  0.00  0.00     0.283 C 
ATOM      3  O   UNL d   1     -45.106  12.510  22.993  0.00  0.00    -0.265 OA
ENDROOT
BRANCH   2   4
ATOM      4  C   UNL d   1     -46.164  13.134  22.480  0.00  0.00     0.080 A 
ATOM      5  C   UNL d   1     -46.771  12.746  22.218  0.00  0.00     0.088 A 
ATOM      6  N   UNL d   1     -47.403  13.152  22.383  0.00  0.00    -0.273 N 
ATOM      7  C   UNL d   1     -47.187  13.788  22.746  0.00  0.00     0.265 A 
ATOM      8  C   UNL d   1     -46.417  13.783  22.810  0.00  0.00     0.067 A 
ATOM      9  O   UNL d   1     -47.657  14.345  23.008  0.00  0.00    -0.267 OA
BRANCH   6  10
ATOM     10  C   UNL d   1     -48.183  12.933  22.198  0.00  0.00     0.067 A 
ATOM     11  C   UNL d   1     -48.526  13.208  21.499  0.00  0.00     0.020 A 
ATOM     12  C   UNL d   1     -49.303  12.985  21.322  0.00  0.00     0.031 A 
ATOM     13  C   UNL d   1     -49.727  12.501  21.828  0.00  0.00     0.140 A 
ATOM     14  C   UNL d   1     -49.375  12.228  22.529  0.00  0.00     0.031 A 
ATOM     15  F   UNL d   1     -50.510  12.278  21.647  0.00  0.00    -0.204 F 
ATOM     16  C   UNL d   1     -48.613  12.442  22.711  0.00  0.00     0.020 A 
ENDBRANCH   6  10
ENDBRANCH   2   4
BRANCH   1  17
ATOM     17  C   UNL d   1     -44.277  12.910  21.754  0.00  0.00     0.219 A 
ATOM     18  S   UNL d   1     -43.693  13.359  21.530  0.00  0.00    -0.019 SA
ATOM     19  C   UNL d   1     -43.055  12.943  21.549  0.00  0.00     0.165 A 
ATOM     20  N   UNL d   1     -43.228  12.230  21.785  0.00  0.00    -0.133 NA
ATOM     21  N   UNL d   1     -43.998  12.210  21.915  0.00  0.00    -0.120 NA
BRANCH  19  22
ATOM     22  S   UNL d   1     -41.621  13.723  21.091  0.00  0.00    -0.059 SA
BRANCH  22  23
ATOM     23  C   UNL d   1     -41.518  13.979  20.313  0.00  0.00     0.042 C 
BRANCH  23  24
ATOM     24  C   UNL d   1     -40.787  14.288  20.075  0.00  0.00     0.058 C 
BRANCH  24  25
ATOM     25  C   UNL d   1     -40.679  14.490  19.282  0.00  0.00     0.204 A 
ATOM     26  O   UNL d   1     -40.687  13.964  18.639  0.00  0.00    -0.281 OA
ATOM     27  C   UNL d   1     -40.555  14.407  17.949  0.00  0.00     0.152 A 
ATOM     28  C   UNL d   1     -40.466  15.201  18.169  0.00  0.00     0.152 A 
ATOM     29  O   UNL d   1     -40.542  15.256  18.990  0.00  0.00    -0.281 OA
ENDBRANCH  24  25
ENDBRANCH  23  24
ENDBRANCH  22  23
ENDBRANCH  19  22
ENDBRANCH   1  17
TORSDOF 7
ENDMDL
MODEL 2
REMARK VINA RESULT:      -5.9      2.726      7.394
REMARK  7 active torsions:
REMARK  status: ('A' for Active; 'I' for Inactive)
REMARK    1  A    between atoms: C_13  and  N_1 
REMARK    2  A    between atoms: C_2  and  N_6 
REMARK    3  A    between atoms: C_8  and  C_5 
REMARK       I    between atoms: N_6  and  C_8 
REMARK    4  A    between atoms: S_20  and  C_9 
REMARK    5  A    between atoms: C_14  and  C_19 
REMARK    6  A    between atoms: C_19  and  C_23 
REMARK    7  A    between atoms: C_23  and  S_20 
ROOT
ATOM      1  N   UNL d   1     -42.426  13.424  20.716  0.00  0.00    -0.181 NA
ATOM      2  C   UNL d   1     -41.778  13.698  21.030  0.00  0.00     0.283 C 
ATOM      3  O   UNL d   1     -41.667  13.645  21.790  0.00  0.00    -0.265 OA
ENDROOT
BRANCH   2   4
ATOM      4  C   UNL d   1     -41.246  14.023  20.585  0.00  0.00     0.080 A 
ATOM      5  C   UNL d   1     -41.206  13.989  19.820  0.00  0.00     0.088 A 
ATOM      6  N   UNL d   1     -40.590  14.389  19.594  0.00  0.00    -0.273 N 
ATOM      7  C   UNL d   1     -40.249  14.670  20.218  0.00  0.00     0.265 A 
ATOM      8  C   UNL d   1     -40.653  14.445  20.838  0.00  0.00     0.067 A 
ATOM      9  O   UNL d   1     -39.609  15.104  20.231  0.00  0.00    -0.267 OA
BRANCH   6  10
ATOM     10  C   UNL d   1     -40.341  14.496  18.809  0.00  0.00     0.067 A 
ATOM     11  C   UNL d   1     -40.636  15.131  18.372  0.00  0.00     0.020 A 
ATOM     12  C   UNL d   1     -40.383  15.229  17.591  0.00  0.00     0.031 A 
ATOM     13  C   UNL d   1     -39.849  14.708  17.253  0.00  0.00     0.140 A 
ATOM     14  C   UNL d   1     -39.557  14.072  17.699  0.00  0.00     0.031 A 
ATOM     15  F   UNL d   1     -39.595  14.810  16.465  0.00  0.00    -0.204 F 
ATOM     16  C   UNL d   1     -39.800  13.967  18.467  0.00  0.00     0.020 A 
ENDBRANCH   6  10
ENDBRANCH   2   4
BRANCH   1  17
ATOM     17  C   UNL d   1     -42.963  13.097  21.158  0.00  0.00     0.219 A 
ATOM     18  S   UNL d   1     -43.640  13.407  21.354  0.00  0.00    -0.019 SA
ATOM     19  C   UNL d   1     -44.009  12.907  21.796  0.00  0.00     0.165 A 
ATOM     20  N   UNL d   1     -43.572  12.280  21.883  0.00  0.00    -0.133 NA
ATOM     21  N   UNL d   1     -42.913  12.399  21.482  0.00  0.00    -0.120 NA
BRANCH  19  22
ATOM     22  S   UNL d   1     -45.541  13.371  22.357  0.00  0.00    -0.059 SA
BRANCH  22  23
ATOM     23  C   UNL d   1     -46.062  12.805  22.656  0.00  0.00     0.042 C 
BRANCH  23  24
ATOM     24  C   UNL d   1     -46.664  13.034  23.177  0.00  0.00     0.058 C 
BRANCH  24  25
ATOM     25  C   UNL d   1     -47.291  12.516  23.316  0.00  0.00     0.204 A 
ATOM     26  O   UNL d   1     -47.236  11.768  23.672  0.00  0.00    -0.281 OA
ATOM     27  C   UNL d   1     -48.000  11.444  23.697  0.00  0.00     0.152 A 
ATOM     28  C   UNL d   1     -48.521  11.992  23.358  0.00  0.00     0.152 A 
ATOM     29  O   UNL d   1     -48.087  12.654  23.122  0.00  0.00    -0.281 OA
ENDBRANCH  24  25
ENDBRANCH  23  24
ENDBRANCH  22  23
ENDBRANCH  19  22
ENDBRANCH   1  17
TORSDOF 7
ENDMDL
MODEL 3
REMARK VINA RESULT:      -5.2      3.452      8.285
REMARK  7 active torsions:
REMARK  status: ('A' for Active; 'I' for Inactive)
REMARK    1  A    between atoms: C_13  and  N_1 
REMARK    2  A    between atoms: C_2  and  N_6 
REMARK    3  A    between atoms: C_8  and  C_5 
REMARK       I    between atoms: N_6  and  C_8 
REMARK    4  A    between atoms: S_20  and  C_9 
REMARK    5  A    between atoms: C_14  and  C_19 
REMARK    6  A    between atoms: C_19  and  C_23 
REMARK    7  A    between atoms: C_23  and  S_20 
ROOT
ATOM      1  N   UNL d   1     -40.368  14.440  19.883  0.00  0.00    -0.181 NA
ATOM      2  C   UNL d   1     -40.337  15.005  19.360  0.00  0.00     0.283 C 
ATOM      3  O   UNL d   1     -40.876  15.555  19.355  0.00  0.00    -0.265 OA
ENDROOT
BRANCH   2   4
ATOM      4  C   UNL d   1     -39.770  15.017  18.844  0.00  0.00     0.080 A 
ATOM      5  C   UNL d   1     -39.708  14.574  18.223  0.00  0.00     0.088 A 
ATOM      6  N   UNL d   1     -39.060  14.764  17.856  0.00  0.00    -0.273 N 
ATOM      7  C   UNL d   1     -38.722  15.324  18.251  0.00  0.00     0.265 A 
ATOM      8  C   UNL d   1     -39.160  15.486  18.867  0.00  0.00     0.067 A 
ATOM      9  O   UNL d   1     -38.055  15.673  18.068  0.00  0.00    -0.267 OA
BRANCH   6  10
ATOM     10  C   UNL d   1     -38.779  14.419  17.155  0.00  0.00     0.067 A 
ATOM     11  C   UNL d   1     -38.337  13.722  17.194  0.00  0.00     0.020 A 
ATOM     12  C   UNL d   1     -38.062  13.386  16.490  0.00  0.00     0.031 A 
ATOM     13  C   UNL d   1     -38.221  13.735  15.766  0.00  0.00     0.140 A 
ATOM     14  C   UNL d   1     -38.665  14.435  15.736  0.00  0.00     0.031 A 
ATOM     15  F   UNL d   1     -37.942  13.393  15.059  0.00  0.00    -0.204 F 
ATOM     16  C   UNL d   1     -38.941  14.773  16.421  0.00  0.00     0.020 A 
ENDBRANCH   6  10
ENDBRANCH   2   4
BRANCH   1  17
ATOM     17  C   UNL d   1     -40.935  14.423  20.402  0.00  0.00     0.219 A 
ATOM     18  S   UNL d   1     -41.465  13.869  20.478  0.00  0.00    -0.019 SA
ATOM     19  C   UNL d   1     -41.925  14.060  21.055  0.00  0.00     0.165 A 
ATOM     20  N   UNL d   1     -41.692  14.733  21.348  0.00  0.00    -0.133 NA
ATOM     21  N   UNL d   1     -41.069  14.961  20.937  0.00  0.00    -0.120 NA
BRANCH  19  22
ATOM     22  S   UNL d   1     -43.183  12.981  21.416  0.00  0.00    -0.059 SA
BRANCH  22  23
ATOM     23  C   UNL d   1     -43.891  13.262  21.734  0.00  0.00     0.042 C 
BRANCH  23  24
ATOM     24  C   UNL d   1     -44.554  12.766  21.763  0.00  0.00     0.058 C 
BRANCH  24  25
ATOM     25  C   UNL d   1     -45.202  12.992  22.222  0.00  0.00     0.204 A 
ATOM     26  O   UNL d   1     -45.588  13.726  22.193  0.00  0.00    -0.281 OA
ATOM     27  C   UNL d   1     -46.205  13.708  22.749  0.00  0.00     0.152 A 
ATOM     28  C   UNL d   1     -46.197  12.966  23.116  0.00  0.00     0.152 A 
ATOM     29  O   UNL d   1     -45.579  12.521  22.794  0.00  0.00    -0.281 OA
ENDBRANCH  24  25
ENDBRANCH  23  24
ENDBRANCH  22  23
ENDBRANCH  19  22
ENDBRANCH   1  17
TORSDOF 7
ENDMDL
