MODEL 1
REMARK VINA RESULT:      18.4      0.000      0.000
REMARK  2 active torsions:
REMARK  status: ('A' for Active; 'I' for Inactive)
REMARK    1  A    between atoms: N_2  and  S_1 
REMARK    2  A    between atoms: C_3  and  S_1 
ROOT
ATOM      1  S   UNL d   1      45.408 -14.816  44.260  0.00  0.00     0.287 S 
ATOM      2  O   UNL d   1      44.858 -14.290  44.576  0.00  0.00    -0.198 OA
ATOM      3  O   UNL d   1      46.019 -14.528  43.767  0.00  0.00    -0.198 OA
ENDROOT
BRANCH   1   4
ATOM      4  N   UNL d   1      45.360 -15.633  44.430  0.00  0.00    -0.152 N 
ATOM      5  N   UNL d   1      46.002 -16.136  44.251  0.00  0.00    -0.155 NA
ATOM      6  C   UNL d   1      45.954 -16.953  44.421  0.00  0.00     0.104 A 
ATOM      7  C   UNL d   1      46.474 -17.613  44.322  0.00  0.00     0.022 C 
ATOM      8  C   UNL d   1      44.631 -16.765  44.945  0.00  0.00     0.041 A 
ATOM      9  C   UNL d   1      44.680 -15.948  44.775  0.00  0.00     0.096 A 
ATOM     10  C   UNL d   1      44.037 -15.444  44.954  0.00  0.00     0.022 C 
ENDBRANCH   1   4
BRANCH   1  11
ATOM     11  C   UNL d   1      45.479 -13.630  44.013  0.00  0.00     0.117 A 
ATOM     12  C   UNL d   1      45.017 -13.282  43.498  0.00  0.00     0.025 A 
ATOM     13  C   UNL d   1      45.091 -12.515  43.364  0.00  0.00     0.059 A 
ATOM     14 CL   UNL d   1      44.590 -12.136  42.806  0.00  0.00    -0.082 Cl
ATOM     15  C   UNL d   1      45.631 -12.112  43.753  0.00  0.00     0.012 A 
ATOM     16  C   UNL d   1      46.095 -12.460  44.269  0.00  0.00     0.013 A 
ATOM     17  C   UNL d   1      46.018 -13.226  44.399  0.00  0.00     0.070 A 
ATOM     18 CL   UNL d   1      46.515 -13.603  44.953  0.00  0.00    -0.082 Cl
ENDBRANCH   1  11
TORSDOF 2
ENDMDL
