MODEL 1
REMARK VINA RESULT:      21.0      0.000      0.000
REMARK  0 active torsions:
REMARK  status: ('A' for Active; 'I' for Inactive)
ROOT
ATOM      1  C   UNL d   1      46.079 -18.264  44.128  0.00  0.00     0.166 A 
ATOM      2  C   UNL d   1      46.117 -18.105  43.322  0.00  0.00     0.117 A 
ATOM      3  N   UNL d   1      46.222 -19.074  44.214  0.00  0.00    -0.288 N 
ATOM      4  C   UNL d   1      46.277 -18.789  42.925  0.00  0.00     0.038 A 
ATOM      5  N   UNL d   1      45.921 -17.664  44.678  0.00  0.00    -0.225 NA
ATOM      6  C   UNL d   1      46.343 -19.394  43.482  0.00  0.00     0.067 A 
ATOM      7  N   UNL d   1      45.991 -17.328  43.086  0.00  0.00    -0.241 NA
ATOM      8  C   UNL d   1      45.800 -16.902  44.418  0.00  0.00     0.101 A 
ATOM      9  C   UNL d   1      45.839 -16.746  43.616  0.00  0.00     0.099 A 
ATOM     10  C   UNL d   1      46.507 -20.164  43.237  0.00  0.00     0.018 A 
ATOM     11  C   UNL d   1      46.375 -18.955  42.122  0.00  0.00     0.015 A 
ATOM     12  C   UNL d   1      46.539 -19.725  41.878  0.00  0.00     0.058 A 
ATOM     13  C   UNL d   1      46.238 -19.474  44.919  0.00  0.00     0.101 C 
ATOM     14  C   UNL d   1      46.605 -20.330  42.435  0.00  0.00     0.013 A 
ATOM     15 CL   UNL d   1      46.637 -19.891  41.075  0.00  0.00    -0.082 Cl
ATOM     16  C   UNL d   1      45.647 -16.318  44.950  0.00  0.00     0.021 A 
ATOM     17  C   UNL d   1      45.718 -15.984  43.356  0.00  0.00     0.021 A 
ATOM     18  C   UNL d   1      45.558 -15.362  43.886  0.00  0.00     0.002 A 
ATOM     19  C   UNL d   1      45.526 -15.544  44.673  0.00  0.00     0.002 A 
ENDROOT
TORSDOF 0
ENDMDL
