MODEL 1
REMARK VINA RESULT:      11.2      0.000      0.000
REMARK  6 active torsions:
REMARK  status: ('A' for Active; 'I' for Inactive)
REMARK    1  A    between atoms: C_10  and  N_3 
REMARK    2  A    between atoms: C_12  and  C_6 
REMARK    3  A    between atoms: C_20  and  C_10 
REMARK    4  A    between atoms: C_11  and  C_17 
REMARK    5  A    between atoms: O_27  and  C_11 
REMARK    6  A    between atoms: N_13  and  C_20 
ROOT
ATOM      1  C   UNL d   1     -41.648-122.143 -51.425  0.00  0.00     0.083 A 
ATOM      2  C   UNL d   1     -41.723-122.953 -51.612  0.00  0.00     0.161 A 
ATOM      3  N   UNL d   1     -41.573-122.267 -52.753  0.00  0.00    -0.270 N 
ATOM      4  C   UNL d   1     -41.677-123.025 -52.431  0.00  0.00     0.288 A 
ATOM      5  C   UNL d   1     -41.674-121.901 -50.630  0.00  0.00     0.201 A 
ATOM      6  C   UNL d   1     -41.556-121.728 -52.131  0.00  0.00     0.072 A 
ATOM      7  O   UNL d   1     -41.823-123.506 -51.010  0.00  0.00    -0.302 OA
ATOM      8  C   UNL d   1     -41.775-122.465 -50.034  0.00  0.00     0.063 A 
ATOM      9  C   UNL d   1     -41.850-123.271 -50.221  0.00  0.00     0.103 A 
ATOM     10  O   UNL d   1     -41.725-123.730 -52.862  0.00  0.00    -0.264 OA
ATOM     11  O   UNL d   1     -41.600-121.103 -50.441  0.00  0.00    -0.286 OA
ATOM     12  C   UNL d   1     -41.801-122.221 -49.247  0.00  0.00     0.017 A 
ATOM     13  C   UNL d   1     -41.950-123.817 -49.616  0.00  0.00     0.026 A 
ATOM     14  C   UNL d   1     -41.901-122.773 -48.649  0.00  0.00     0.058 A 
ATOM     15  C   UNL d   1     -41.975-123.572 -48.833  0.00  0.00     0.013 A 
ATOM     16 CL   UNL d   1     -41.926-122.528 -47.866  0.00  0.00    -0.082 Cl
ENDROOT
BRANCH   6  17
ATOM     17  C   UNL d   1     -41.465-120.907 -52.159  0.00  0.00     0.016 A 
ATOM     18  C   UNL d   1     -41.560-120.500 -52.873  0.00  0.00     0.002 A 
ATOM     19  C   UNL d   1     -41.470-119.680 -52.900  0.00  0.00     0.005 A 
ATOM     20  C   UNL d   1     -41.282-119.259 -52.211  0.00  0.00     0.063 A 
ATOM     21  C   UNL d   1     -41.186-119.672 -51.494  0.00  0.00     0.005 A 
ATOM     22  C   UNL d   1     -41.278-120.490 -51.471  0.00  0.00     0.002 A 
BRANCH  20  23
ATOM     23  C   UNL d   1     -41.191-118.440 -52.239  0.00  0.00     0.296 C 
ATOM     24  O   UNL d   1     -41.124-118.013 -51.541  0.00  0.00    -0.259 OA
BRANCH  23  25
ATOM     25  O   UNL d   1     -41.169-118.061 -52.965  0.00  0.00    -0.296 OA
ATOM     26  C   UNL d   1     -41.181-117.237 -53.013  0.00  0.00     0.185 C 
ENDBRANCH  23  25
ENDBRANCH  20  23
ENDBRANCH   6  17
BRANCH   3  27
ATOM     27  C   UNL d   1     -41.500-122.089 -53.553  0.00  0.00     0.102 C 
BRANCH  27  28
ATOM     28  C   UNL d   1     -41.592-122.678 -54.124  0.00  0.00     0.100 C 
BRANCH  28  29
ATOM     29  N   UNL d   1     -41.876-122.493 -54.874  0.00  0.00    -0.298 N 
ATOM     30  C   UNL d   1     -41.358-122.226 -55.446  0.00  0.00     0.107 A 
ATOM     31  C   UNL d   1     -41.641-122.041 -56.195  0.00  0.00     0.142 A 
ATOM     32  O   UNL d   1     -42.441-122.124 -56.365  0.00  0.00    -0.300 OA
ATOM     33  C   UNL d   1     -42.955-122.393 -55.785  0.00  0.00     0.142 A 
ATOM     34  C   UNL d   1     -42.672-122.578 -55.036  0.00  0.00     0.107 A 
ENDBRANCH  28  29
ENDBRANCH  27  28
ENDBRANCH   3  27
TORSDOF 6
ENDMDL
