MODEL 1
REMARK VINA RESULT:       8.2      0.000      0.000
REMARK  5 active torsions:
REMARK  status: ('A' for Active; 'I' for Inactive)
REMARK    1  A    between atoms: C_7  and  N_2 
REMARK    2  A    between atoms: C_15  and  C_7 
REMARK    3  A    between atoms: C_8  and  O_14 
REMARK    4  A    between atoms: O_17  and  C_9 
REMARK    5  A    between atoms: O_14  and  C_15 
ROOT
ATOM      1  C   UNL d   1      46.560 -17.766  44.026  0.00  0.00     0.110 C 
ENDROOT
BRANCH   1   2
ATOM      2  N   UNL d   1      46.478 -18.532  43.724  0.00  0.00    -0.266 N 
ATOM      3  C   UNL d   1      46.349 -19.244  44.134  0.00  0.00     0.296 A 
ATOM      4  S   UNL d   1      46.308 -19.858  43.574  0.00  0.00    -0.025 SA
ATOM      5  O   UNL d   1      46.276 -19.321  44.952  0.00  0.00    -0.259 OA
ATOM      6  C   UNL d   1      46.412 -19.522  42.823  0.00  0.00     0.050 A 
ATOM      7  C   UNL d   1      46.425 -19.854  42.058  0.00  0.00     0.008 A 
ATOM      8  C   UNL d   1      46.516 -18.709  42.914  0.00  0.00     0.074 A 
ATOM      9  C   UNL d   1      46.541 -19.374  41.400  0.00  0.00     0.001 A 
ATOM     10  C   UNL d   1      46.645 -18.561  41.494  0.00  0.00     0.002 A 
ATOM     11  C   UNL d   1      46.633 -18.228  42.246  0.00  0.00     0.018 A 
ENDBRANCH   1   2
BRANCH   1  12
ATOM     12  C   UNL d   1      45.900 -17.353  44.287  0.00  0.00     0.142 C 
BRANCH  12  13
ATOM     13  O   UNL d   1      45.964 -16.832  44.937  0.00  0.00    -0.304 OA
BRANCH  13  14
ATOM     14  C   UNL d   1      45.723 -16.044  44.854  0.00  0.00     0.100 A 
ATOM     15  C   UNL d   1      44.933 -15.853  44.892  0.00  0.00     0.027 A 
ATOM     16  C   UNL d   1      44.692 -15.065  44.810  0.00  0.00     0.026 A 
ATOM     17  C   UNL d   1      45.259 -14.476  44.689  0.00  0.00     0.094 A 
ATOM     18  C   UNL d   1      46.060 -14.685  44.653  0.00  0.00     0.026 A 
ATOM     19  C   UNL d   1      46.287 -15.467  44.736  0.00  0.00     0.027 A 
BRANCH  17  20
ATOM     20  O   UNL d   1      45.026 -13.694  44.607  0.00  0.00    -0.328 OA
ATOM     21  C   UNL d   1      45.484 -13.171  44.162  0.00  0.00     0.181 C 
ENDBRANCH  17  20
ENDBRANCH  13  14
ENDBRANCH  12  13
ENDBRANCH   1  12
TORSDOF 5
ENDMDL
MODEL 2
REMARK VINA RESULT:       8.6      1.194      1.776
REMARK  5 active torsions:
REMARK  status: ('A' for Active; 'I' for Inactive)
REMARK    1  A    between atoms: C_7  and  N_2 
REMARK    2  A    between atoms: C_15  and  C_7 
REMARK    3  A    between atoms: C_8  and  O_14 
REMARK    4  A    between atoms: O_17  and  C_9 
REMARK    5  A    between atoms: O_14  and  C_15 
ROOT
ATOM      1  C   UNL d   1      46.161 -17.315  44.555  0.00  0.00     0.110 C 
ENDROOT
BRANCH   1   2
ATOM      2  N   UNL d   1      46.267 -17.891  43.970  0.00  0.00    -0.266 N 
ATOM      3  C   UNL d   1      46.279 -17.800  43.143  0.00  0.00     0.296 A 
ATOM      4  S   UNL d   1      46.404 -18.550  42.805  0.00  0.00    -0.025 SA
ATOM      5  O   UNL d   1      46.184 -17.089  42.737  0.00  0.00    -0.259 OA
ATOM      6  C   UNL d   1      46.468 -19.098  43.424  0.00  0.00     0.050 A 
ATOM      7  C   UNL d   1      46.594 -19.923  43.431  0.00  0.00     0.008 A 
ATOM      8  C   UNL d   1      46.385 -18.695  44.139  0.00  0.00     0.074 A 
ATOM      9  C   UNL d   1      46.633 -20.330  44.145  0.00  0.00     0.001 A 
ATOM     10  C   UNL d   1      46.549 -19.924  44.858  0.00  0.00     0.002 A 
ATOM     11  C   UNL d   1      46.425 -19.110  44.857  0.00  0.00     0.018 A 
ENDBRANCH   1   2
BRANCH   1  12
ATOM     12  C   UNL d   1      46.013 -16.535  44.344  0.00  0.00     0.142 C 
BRANCH  12  13
ATOM     13  O   UNL d   1      45.748 -15.990  44.919  0.00  0.00    -0.304 OA
BRANCH  13  14
ATOM     14  C   UNL d   1      45.600 -15.206  44.701  0.00  0.00     0.100 A 
ATOM     15  C   UNL d   1      46.219 -14.699  44.553  0.00  0.00     0.027 A 
ATOM     16  C   UNL d   1      46.071 -13.915  44.335  0.00  0.00     0.026 A 
ATOM     17  C   UNL d   1      45.290 -13.651  44.269  0.00  0.00     0.094 A 
ATOM     18  C   UNL d   1      44.670 -14.177  44.422  0.00  0.00     0.026 A 
ATOM     19  C   UNL d   1      44.827 -14.951  44.637  0.00  0.00     0.027 A 
BRANCH  17  20
ATOM     20  O   UNL d   1      45.137 -12.874  44.053  0.00  0.00    -0.328 OA
ATOM     21  C   UNL d   1      44.980 -12.687  43.265  0.00  0.00     0.181 C 
ENDBRANCH  17  20
ENDBRANCH  13  14
ENDBRANCH  12  13
ENDBRANCH   1  12
TORSDOF 5
ENDMDL
