MODEL 1
REMARK VINA RESULT:      -3.0      0.000      0.000
REMARK  4 active torsions:
REMARK  status: ('A' for Active; 'I' for Inactive)
REMARK    1  A    between atoms: N_2  and  C_1 
REMARK       I    between atoms: C_5  and  N_2 
REMARK    2  A    between atoms: C_8  and  C_5 
REMARK    3  A    between atoms: O_16  and  C_10 
REMARK    4  A    between atoms: O_17  and  C_12 
ROOT
ATOM      1  N   UNL d   1      32.822  19.796 -21.951  0.00  0.00    -0.184 NA
ATOM      2  C   UNL d   1      32.996  19.598 -22.734  0.00  0.00     0.281 C 
ATOM      3  O   UNL d   1      33.230  20.200 -23.246  0.00  0.00    -0.265 OA
ENDROOT
BRANCH   2   4
ATOM      4  C   UNL d   1      32.948  18.843 -23.017  0.00  0.00     0.060 A 
ATOM      5  C   UNL d   1      32.621  18.710 -23.749  0.00  0.00     0.031 A 
ATOM      6  C   UNL d   1      32.573  17.940 -24.034  0.00  0.00     0.116 A 
ATOM      7  C   UNL d   1      32.851  17.318 -23.587  0.00  0.00     0.116 A 
ATOM      8  C   UNL d   1      33.177  17.451 -22.855  0.00  0.00     0.026 A 
ATOM      9  C   UNL d   1      33.238  18.229 -22.541  0.00  0.00     0.007 A 
BRANCH   6  10
ATOM     10  O   UNL d   1      32.234  17.799 -24.794  0.00  0.00    -0.326 OA
ATOM     11  C   UNL d   1      31.660  18.511 -25.026  0.00  0.00     0.181 C 
ENDBRANCH   6  10
BRANCH   7  12
ATOM     12  O   UNL d   1      32.799  16.544 -23.882  0.00  0.00    -0.326 OA
ATOM     13  C   UNL d   1      33.152  15.823 -23.525  0.00  0.00     0.181 C 
ENDBRANCH   7  12
ENDBRANCH   2   4
BRANCH   1  14
ATOM     14  C   UNL d   1      32.888  20.585 -21.711  0.00  0.00     0.182 A 
ATOM     15  N   UNL d   1      33.077  20.888 -20.951  0.00  0.00    -0.283 N 
ATOM     16  C   UNL d   1      33.063  21.736 -21.039  0.00  0.00     0.072 A 
ATOM     17  C   UNL d   1      33.234  20.463 -20.299  0.00  0.00     0.101 C 
ATOM     18  C   UNL d   1      33.202  22.362 -20.495  0.00  0.00     0.018 A 
ATOM     19  C   UNL d   1      32.878  21.891 -21.797  0.00  0.00     0.048 A 
ATOM     20  C   UNL d   1      33.143  23.162 -20.763  0.00  0.00     0.002 A 
ATOM     21  C   UNL d   1      32.955  23.309 -21.534  0.00  0.00     0.001 A 
ATOM     22  C   UNL d   1      32.816  22.688 -22.075  0.00  0.00     0.008 A 
ATOM     23  S   UNL d   1      32.770  21.215 -22.211  0.00  0.00    -0.048 SA
ENDBRANCH   1  14
TORSDOF 4
ENDMDL
MODEL 2
REMARK VINA RESULT:      -3.0      0.884      1.232
REMARK  4 active torsions:
REMARK  status: ('A' for Active; 'I' for Inactive)
REMARK    1  A    between atoms: N_2  and  C_1 
REMARK       I    between atoms: C_5  and  N_2 
REMARK    2  A    between atoms: C_8  and  C_5 
REMARK    3  A    between atoms: O_16  and  C_10 
REMARK    4  A    between atoms: O_17  and  C_12 
ROOT
ATOM      1  N   UNL d   1      32.857  20.580 -22.488  0.00  0.00    -0.184 NA
ATOM      2  C   UNL d   1      33.032  19.849 -22.144  0.00  0.00     0.281 C 
ATOM      3  O   UNL d   1      33.233  19.831 -21.345  0.00  0.00    -0.265 OA
ENDROOT
BRANCH   2   4
ATOM      4  C   UNL d   1      33.013  19.155 -22.556  0.00  0.00     0.060 A 
ATOM      5  C   UNL d   1      32.779  19.157 -23.334  0.00  0.00     0.031 A 
ATOM      6  C   UNL d   1      32.761  18.447 -23.751  0.00  0.00     0.116 A 
ATOM      7  C   UNL d   1      32.977  17.751 -23.387  0.00  0.00     0.116 A 
ATOM      8  C   UNL d   1      33.211  17.749 -22.609  0.00  0.00     0.026 A 
ATOM      9  C   UNL d   1      33.238  18.461 -22.161  0.00  0.00     0.007 A 
BRANCH   6  10
ATOM     10  O   UNL d   1      32.518  18.447 -24.559  0.00  0.00    -0.326 OA
ATOM     11  C   UNL d   1      33.008  19.092 -25.042  0.00  0.00     0.181 C 
ENDBRANCH   6  10
BRANCH   7  12
ATOM     12  O   UNL d   1      32.956  17.040 -23.814  0.00  0.00    -0.326 OA
ATOM     13  C   UNL d   1      32.969  16.228 -23.479  0.00  0.00     0.181 C 
ENDBRANCH   7  12
ENDBRANCH   2   4
BRANCH   1  14
ATOM     14  C   UNL d   1      32.891  21.262 -22.021  0.00  0.00     0.182 A 
ATOM     15  N   UNL d   1      33.065  22.050 -22.255  0.00  0.00    -0.283 N 
ATOM     16  C   UNL d   1      33.018  22.511 -21.540  0.00  0.00     0.072 A 
ATOM     17  C   UNL d   1      33.236  22.296 -22.989  0.00  0.00     0.101 C 
ATOM     18  C   UNL d   1      33.130  23.330 -21.388  0.00  0.00     0.018 A 
ATOM     19  C   UNL d   1      32.830  22.012 -20.950  0.00  0.00     0.048 A 
ATOM     20  C   UNL d   1      33.041  23.620 -20.599  0.00  0.00     0.002 A 
ATOM     21  C   UNL d   1      32.850  23.105 -20.007  0.00  0.00     0.001 A 
ATOM     22  C   UNL d   1      32.738  22.291 -20.155  0.00  0.00     0.008 A 
ATOM     23  S   UNL d   1      32.750  21.263 -21.220  0.00  0.00    -0.048 SA
ENDBRANCH   1  14
TORSDOF 4
ENDMDL
MODEL 3
REMARK VINA RESULT:      -2.9      1.520      4.865
REMARK  4 active torsions:
REMARK  status: ('A' for Active; 'I' for Inactive)
REMARK    1  A    between atoms: N_2  and  C_1 
REMARK       I    between atoms: C_5  and  N_2 
REMARK    2  A    between atoms: C_8  and  C_5 
REMARK    3  A    between atoms: O_16  and  C_10 
REMARK    4  A    between atoms: O_17  and  C_12 
ROOT
ATOM      1  N   UNL d   1      32.856  19.899 -22.909  0.00  0.00    -0.184 NA
ATOM      2  C   UNL d   1      33.050  19.953 -22.107  0.00  0.00     0.281 C 
ATOM      3  O   UNL d   1      33.240  19.261 -21.702  0.00  0.00    -0.265 OA
ENDROOT
BRANCH   2   4
ATOM      4  C   UNL d   1      33.060  20.654 -21.705  0.00  0.00     0.060 A 
ATOM      5  C   UNL d   1      33.144  21.350 -22.115  0.00  0.00     0.031 A 
ATOM      6  C   UNL d   1      33.154  22.062 -21.702  0.00  0.00     0.116 A 
ATOM      7  C   UNL d   1      33.080  22.068 -20.891  0.00  0.00     0.116 A 
ATOM      8  C   UNL d   1      32.996  21.371 -20.481  0.00  0.00     0.026 A 
ATOM      9  C   UNL d   1      32.983  20.630 -20.880  0.00  0.00     0.007 A 
BRANCH   6  10
ATOM     10  O   UNL d   1      33.241  22.786 -22.126  0.00  0.00    -0.326 OA
ATOM     11  C   UNL d   1      32.786  22.733 -22.951  0.00  0.00     0.181 C 
ENDBRANCH   6  10
BRANCH   7  12
ATOM     12  O   UNL d   1      33.091  22.789 -20.482  0.00  0.00    -0.326 OA
ATOM     13  C   UNL d   1      33.070  22.897 -19.610  0.00  0.00     0.181 C 
ENDBRANCH   7  12
ENDBRANCH   2   4
BRANCH   1  14
ATOM     14  C   UNL d   1      32.861  19.156 -23.273  0.00  0.00     0.182 A 
ATOM     15  N   UNL d   1      32.999  18.970 -24.081  0.00  0.00    -0.283 N 
ATOM     16  C   UNL d   1      32.934  18.121 -24.128  0.00  0.00     0.072 A 
ATOM     17  C   UNL d   1      33.157  19.484 -24.663  0.00  0.00     0.101 C 
ATOM     18  C   UNL d   1      33.010  17.584 -24.771  0.00  0.00     0.018 A 
ATOM     19  C   UNL d   1      32.770  17.856 -23.396  0.00  0.00     0.048 A 
ATOM     20  C   UNL d   1      32.910  16.756 -24.630  0.00  0.00     0.002 A 
ATOM     21  C   UNL d   1      32.744  16.498 -23.884  0.00  0.00     0.001 A 
ATOM     22  C   UNL d   1      32.668  17.029 -23.245  0.00  0.00     0.008 A 
ATOM     23  S   UNL d   1      32.723  18.461 -22.874  0.00  0.00    -0.048 SA
ENDBRANCH   1  14
TORSDOF 4
ENDMDL
MODEL 4
REMARK VINA RESULT:      -2.8      1.611      5.074
REMARK  4 active torsions:
REMARK  status: ('A' for Active; 'I' for Inactive)
REMARK    1  A    between atoms: N_2  and  C_1 
REMARK       I    between atoms: C_5  and  N_2 
REMARK    2  A    between atoms: C_8  and  C_5 
REMARK    3  A    between atoms: O_16  and  C_10 
REMARK    4  A    between atoms: O_17  and  C_12 
ROOT
ATOM      1  N   UNL d   1      32.535  18.972 -23.507  0.00  0.00    -0.184 NA
ATOM      2  C   UNL d   1      32.921  19.229 -22.823  0.00  0.00     0.281 C 
ATOM      3  O   UNL d   1      33.240  18.663 -22.316  0.00  0.00    -0.265 OA
ENDROOT
BRANCH   2   4
ATOM      4  C   UNL d   1      32.999  20.010 -22.631  0.00  0.00     0.060 A 
ATOM      5  C   UNL d   1      32.914  20.243 -21.856  0.00  0.00     0.031 A 
ATOM      6  C   UNL d   1      32.994  21.039 -21.665  0.00  0.00     0.116 A 
ATOM      7  C   UNL d   1      33.156  21.588 -22.244  0.00  0.00     0.116 A 
ATOM      8  C   UNL d   1      33.241  21.355 -23.018  0.00  0.00     0.026 A 
ATOM      9  C   UNL d   1      33.164  20.547 -23.241  0.00  0.00     0.007 A 
BRANCH   6  10
ATOM     10  O   UNL d   1      32.907  21.283 -20.862  0.00  0.00    -0.326 OA
ATOM     11  C   UNL d   1      33.239  20.614 -20.285  0.00  0.00     0.181 C 
ENDBRANCH   6  10
BRANCH   7  12
ATOM     12  O   UNL d   1      33.235  22.389 -22.043  0.00  0.00    -0.326 OA
ATOM     13  C   UNL d   1      33.155  23.075 -22.585  0.00  0.00     0.181 C 
ENDBRANCH   7  12
ENDBRANCH   2   4
BRANCH   1  14
ATOM     14  C   UNL d   1      32.483  18.160 -23.657  0.00  0.00     0.182 A 
ATOM     15  N   UNL d   1      31.934  17.752 -24.144  0.00  0.00    -0.283 N 
ATOM     16  C   UNL d   1      32.151  16.929 -24.084  0.00  0.00     0.072 A 
ATOM     17  C   UNL d   1      31.344  18.075 -24.564  0.00  0.00     0.101 C 
ATOM     18  C   UNL d   1      31.830  16.234 -24.430  0.00  0.00     0.018 A 
ATOM     19  C   UNL d   1      32.779  16.887 -23.596  0.00  0.00     0.048 A 
ATOM     20  C   UNL d   1      32.182  15.485 -24.255  0.00  0.00     0.002 A 
ATOM     21  C   UNL d   1      32.818  15.453 -23.759  0.00  0.00     0.001 A 
ATOM     22  C   UNL d   1      33.139  16.142 -23.414  0.00  0.00     0.008 A 
ATOM     23  S   UNL d   1      32.989  17.612 -23.333  0.00  0.00    -0.048 SA
ENDBRANCH   1  14
TORSDOF 4
ENDMDL
MODEL 5
REMARK VINA RESULT:      -1.5      1.262      2.121
REMARK  4 active torsions:
REMARK  status: ('A' for Active; 'I' for Inactive)
REMARK    1  A    between atoms: N_2  and  C_1 
REMARK       I    between atoms: C_5  and  N_2 
REMARK    2  A    between atoms: C_8  and  C_5 
REMARK    3  A    between atoms: O_16  and  C_10 
REMARK    4  A    between atoms: O_17  and  C_12 
ROOT
ATOM      1  N   UNL d   1      32.700  21.369 -21.847  0.00  0.00    -0.184 NA
ATOM      2  C   UNL d   1      32.982  20.597 -21.763  0.00  0.00     0.281 C 
ATOM      3  O   UNL d   1      33.240  20.352 -21.020  0.00  0.00    -0.265 OA
ENDROOT
BRANCH   2   4
ATOM      4  C   UNL d   1      33.015  20.073 -22.378  0.00  0.00     0.060 A 
ATOM      5  C   UNL d   1      32.957  19.276 -22.229  0.00  0.00     0.031 A 
ATOM      6  C   UNL d   1      32.991  18.746 -22.857  0.00  0.00     0.116 A 
ATOM      7  C   UNL d   1      33.083  19.017 -23.620  0.00  0.00     0.116 A 
ATOM      8  C   UNL d   1      33.142  19.814 -23.769  0.00  0.00     0.026 A 
ATOM      9  C   UNL d   1      33.109  20.377 -23.144  0.00  0.00     0.007 A 
BRANCH   6  10
ATOM     10  O   UNL d   1      32.930  17.918 -22.705  0.00  0.00    -0.326 OA
ATOM     11  C   UNL d   1      32.047  17.627 -22.862  0.00  0.00     0.181 C 
ENDBRANCH   6  10
BRANCH   7  12
ATOM     12  O   UNL d   1      33.117  18.476 -24.248  0.00  0.00    -0.326 OA
ATOM     13  C   UNL d   1      33.240  18.666 -25.096  0.00  0.00     0.181 C 
ENDBRANCH   7  12
ENDBRANCH   2   4
BRANCH   1  14
ATOM     14  C   UNL d   1      32.687  21.866 -21.185  0.00  0.00     0.182 A 
ATOM     15  N   UNL d   1      32.479  22.679 -21.144  0.00  0.00    -0.283 N 
ATOM     16  C   UNL d   1      32.570  22.891 -20.323  0.00  0.00     0.072 A 
ATOM     17  C   UNL d   1      32.249  23.138 -21.748  0.00  0.00     0.101 C 
ATOM     18  C   UNL d   1      32.452  23.614 -19.911  0.00  0.00     0.018 A 
ATOM     19  C   UNL d   1      32.812  22.239 -19.937  0.00  0.00     0.048 A 
ATOM     20  C   UNL d   1      32.594  23.642 -19.078  0.00  0.00     0.002 A 
ATOM     21  C   UNL d   1      32.840  22.975 -18.695  0.00  0.00     0.001 A 
ATOM     22  C   UNL d   1      32.957  22.256 -19.103  0.00  0.00     0.008 A 
ATOM     23  S   UNL d   1      32.887  21.619 -20.437  0.00  0.00    -0.048 SA
ENDBRANCH   1  14
TORSDOF 4
ENDMDL
MODEL 6
REMARK VINA RESULT:      -0.2      2.524      4.216
REMARK  4 active torsions:
REMARK  status: ('A' for Active; 'I' for Inactive)
REMARK    1  A    between atoms: N_2  and  C_1 
REMARK       I    between atoms: C_5  and  N_2 
REMARK    2  A    between atoms: C_8  and  C_5 
REMARK    3  A    between atoms: O_16  and  C_10 
REMARK    4  A    between atoms: O_17  and  C_12 
ROOT
ATOM      1  N   UNL d   1      32.460  22.537 -20.694  0.00  0.00    -0.184 NA
ATOM      2  C   UNL d   1      32.857  23.014 -21.239  0.00  0.00     0.281 C 
ATOM      3  O   UNL d   1      33.240  23.689 -20.964  0.00  0.00    -0.265 OA
ENDROOT
BRANCH   2   4
ATOM      4  C   UNL d   1      32.885  22.846 -22.029  0.00  0.00     0.060 A 
ATOM      5  C   UNL d   1      32.946  22.073 -22.273  0.00  0.00     0.031 A 
ATOM      6  C   UNL d   1      32.974  21.907 -23.079  0.00  0.00     0.116 A 
ATOM      7  C   UNL d   1      32.940  22.510 -23.625  0.00  0.00     0.116 A 
ATOM      8  C   UNL d   1      32.879  23.283 -23.381  0.00  0.00     0.026 A 
ATOM      9  C   UNL d   1      32.849  23.480 -22.563  0.00  0.00     0.007 A 
BRANCH   6  10
ATOM     10  O   UNL d   1      33.037  21.105 -23.334  0.00  0.00    -0.326 OA
ATOM     11  C   UNL d   1      33.055  20.530 -22.587  0.00  0.00     0.181 C 
ENDBRANCH   6  10
BRANCH   7  12
ATOM     12  O   UNL d   1      32.969  22.334 -24.435  0.00  0.00    -0.326 OA
ATOM     13  C   UNL d   1      33.018  22.912 -25.095  0.00  0.00     0.181 C 
ENDBRANCH   7  12
ENDBRANCH   2   4
BRANCH   1  14
ATOM     14  C   UNL d   1      32.462  22.754 -19.895  0.00  0.00     0.182 A 
ATOM     15  N   UNL d   1      31.953  23.290 -19.496  0.00  0.00    -0.283 N 
ATOM     16  C   UNL d   1      32.219  23.289 -18.686  0.00  0.00     0.072 A 
ATOM     17  C   UNL d   1      31.357  23.702 -19.818  0.00  0.00     0.101 C 
ATOM     18  C   UNL d   1      31.951  23.701 -18.004  0.00  0.00     0.018 A 
ATOM     19  C   UNL d   1      32.833  22.785 -18.640  0.00  0.00     0.048 A 
ATOM     20  C   UNL d   1      32.342  23.574 -17.265  0.00  0.00     0.002 A 
ATOM     21  C   UNL d   1      32.965  23.061 -17.229  0.00  0.00     0.001 A 
ATOM     22  C   UNL d   1      33.233  22.651 -17.905  0.00  0.00     0.008 A 
ATOM     23  S   UNL d   1      32.991  22.458 -19.353  0.00  0.00    -0.048 SA
ENDBRANCH   1  14
TORSDOF 4
ENDMDL
