MODEL 1
REMARK VINA RESULT:      12.0      0.000      0.000
REMARK  3 active torsions:
REMARK  status: ('A' for Active; 'I' for Inactive)
REMARK    1  A    between atoms: C_8  and  C_4 
REMARK    2  A    between atoms: N_5  and  C_7 
REMARK    3  A    between atoms: C_12  and  C_6 
ROOT
ATOM      1  O   UNL d   1      45.844 -15.398  44.224  0.00  0.00    -0.268 OA
ATOM      2  N   UNL d   1      44.757 -15.138  44.955  0.00  0.00    -0.121 NA
ATOM      3  N   UNL d   1      44.846 -15.957  44.921  0.00  0.00    -0.121 NA
ATOM      4  C   UNL d   1      45.365 -14.793  44.530  0.00  0.00     0.204 A 
ATOM      5  C   UNL d   1      45.517 -16.123  44.470  0.00  0.00     0.204 A 
ENDROOT
BRANCH   4   6
ATOM      6  C   UNL d   1      45.491 -13.982  44.417  0.00  0.00     0.045 A 
ATOM      7  C   UNL d   1      45.154 -13.597  43.770  0.00  0.00     0.027 A 
ATOM      8  C   UNL d   1      45.282 -12.793  43.661  0.00  0.00     0.127 A 
ATOM      9  C   UNL d   1      45.747 -12.370  44.199  0.00  0.00     0.024 A 
ATOM     10  C   UNL d   1      46.083 -12.751  44.844  0.00  0.00     0.002 A 
ATOM     11  C   UNL d   1      45.956 -13.558  44.954  0.00  0.00     0.004 A 
BRANCH   8  12
ATOM     12  N   UNL d   1      44.939 -12.410  43.006  0.00  0.00    -0.114 N 
ATOM     13  O   UNL d   1      44.126 -12.231  43.011  0.00  0.00    -0.532 OA
ATOM     14  O   UNL d   1      45.401 -12.207  42.352  0.00  0.00    -0.532 OA
ENDBRANCH   8  12
ENDBRANCH   4   6
BRANCH   5  15
ATOM     15  C   UNL d   1      45.809 -16.871  44.296  0.00  0.00     0.043 A 
ATOM     16  C   UNL d   1      45.930 -17.095  43.513  0.00  0.00     0.004 A 
ATOM     17  C   UNL d   1      46.225 -17.852  43.341  0.00  0.00     0.000 A 
ATOM     18  C   UNL d   1      46.397 -18.376  43.953  0.00  0.00     0.000 A 
ATOM     19  C   UNL d   1      46.273 -18.142  44.739  0.00  0.00     0.000 A 
ATOM     20  C   UNL d   1      45.980 -17.394  44.917  0.00  0.00     0.004 A 
ENDBRANCH   5  15
TORSDOF 3
ENDMDL
MODEL 2
REMARK VINA RESULT:      12.5      1.723      4.536
REMARK  3 active torsions:
REMARK  status: ('A' for Active; 'I' for Inactive)
REMARK    1  A    between atoms: C_8  and  C_4 
REMARK    2  A    between atoms: N_5  and  C_7 
REMARK    3  A    between atoms: C_12  and  C_6 
ROOT
ATOM      1  O   UNL d   1      45.992 -16.085  44.123  0.00  0.00    -0.268 OA
ATOM      2  N   UNL d   1      45.078 -16.709  44.871  0.00  0.00    -0.121 NA
ATOM      3  N   UNL d   1      44.957 -15.897  44.953  0.00  0.00    -0.121 NA
ATOM      4  C   UNL d   1      45.709 -16.828  44.364  0.00  0.00     0.204 A 
ATOM      5  C   UNL d   1      45.519 -15.507  44.493  0.00  0.00     0.204 A 
ENDROOT
BRANCH   4   6
ATOM      6  C   UNL d   1      46.022 -17.556  44.125  0.00  0.00     0.045 A 
ATOM      7  C   UNL d   1      46.075 -17.740  43.323  0.00  0.00     0.027 A 
ATOM      8  C   UNL d   1      46.386 -18.464  43.090  0.00  0.00     0.127 A 
ATOM      9  C   UNL d   1      46.646 -19.007  43.657  0.00  0.00     0.024 A 
ATOM     10  C   UNL d   1      46.594 -18.826  44.456  0.00  0.00     0.002 A 
ATOM     11  C   UNL d   1      46.282 -18.099  44.692  0.00  0.00     0.004 A 
BRANCH   8  12
ATOM     12  N   UNL d   1      46.436 -18.644  42.278  0.00  0.00    -0.114 N 
ATOM     13  O   UNL d   1      46.287 -19.421  42.017  0.00  0.00    -0.532 OA
ATOM     14  O   UNL d   1      46.634 -18.058  41.731  0.00  0.00    -0.532 OA
ENDBRANCH   8  12
ENDBRANCH   4   6
BRANCH   5  15
ATOM     15  C   UNL d   1      45.598 -14.693  44.415  0.00  0.00     0.043 A 
ATOM     16  C   UNL d   1      46.108 -14.278  44.910  0.00  0.00     0.004 A 
ATOM     17  C   UNL d   1      46.186 -13.456  44.828  0.00  0.00     0.000 A 
ATOM     18  C   UNL d   1      45.752 -13.057  44.252  0.00  0.00     0.000 A 
ATOM     19  C   UNL d   1      45.241 -13.482  43.757  0.00  0.00     0.000 A 
ATOM     20  C   UNL d   1      45.159 -14.298  43.833  0.00  0.00     0.004 A 
ENDBRANCH   5  15
TORSDOF 3
ENDMDL
MODEL 3
REMARK VINA RESULT:      12.8      1.566      2.283
REMARK  3 active torsions:
REMARK  status: ('A' for Active; 'I' for Inactive)
REMARK    1  A    between atoms: C_8  and  C_4 
REMARK    2  A    between atoms: N_5  and  C_7 
REMARK    3  A    between atoms: C_12  and  C_6 
ROOT
ATOM      1  O   UNL d   1      45.760 -17.177  43.803  0.00  0.00    -0.268 OA
ATOM      2  N   UNL d   1      46.445 -17.056  44.943  0.00  0.00    -0.121 NA
ATOM      3  N   UNL d   1      46.644 -17.783  44.607  0.00  0.00    -0.121 NA
ATOM      4  C   UNL d   1      45.905 -16.684  44.454  0.00  0.00     0.204 A 
ATOM      5  C   UNL d   1      46.224 -17.862  43.902  0.00  0.00     0.204 A 
ENDROOT
BRANCH   4   6
ATOM      6  C   UNL d   1      45.555 -15.943  44.577  0.00  0.00     0.045 A 
ATOM      7  C   UNL d   1      45.991 -15.254  44.447  0.00  0.00     0.027 A 
ATOM      8  C   UNL d   1      45.641 -14.521  44.569  0.00  0.00     0.127 A 
ATOM      9  C   UNL d   1      44.855 -14.473  44.823  0.00  0.00     0.024 A 
ATOM     10  C   UNL d   1      44.420 -15.157  44.953  0.00  0.00     0.002 A 
ATOM     11  C   UNL d   1      44.770 -15.894  44.830  0.00  0.00     0.004 A 
BRANCH   8  12
ATOM     12  N   UNL d   1      46.085 -13.829  44.436  0.00  0.00    -0.114 N 
ATOM     13  O   UNL d   1      46.600 -13.788  43.783  0.00  0.00    -0.532 OA
ATOM     14  O   UNL d   1      46.017 -13.184  44.948  0.00  0.00    -0.532 OA
ENDBRANCH   8  12
ENDBRANCH   4   6
BRANCH   5  15
ATOM     15  C   UNL d   1      46.258 -18.504  43.389  0.00  0.00     0.043 A 
ATOM     16  C   UNL d   1      46.328 -18.381  42.579  0.00  0.00     0.004 A 
ATOM     17  C   UNL d   1      46.362 -19.031  42.064  0.00  0.00     0.000 A 
ATOM     18  C   UNL d   1      46.325 -19.797  42.365  0.00  0.00     0.000 A 
ATOM     19  C   UNL d   1      46.254 -19.912  43.183  0.00  0.00     0.000 A 
ATOM     20  C   UNL d   1      46.220 -19.272  43.699  0.00  0.00     0.004 A 
ENDBRANCH   5  15
TORSDOF 3
ENDMDL
