MODEL 1
REMARK VINA RESULT:      83.6      0.000      0.000
REMARK  4 active torsions:
REMARK  status: ('A' for Active; 'I' for Inactive)
REMARK    1  A    between atoms: N_15  and  C_2 
REMARK    2  A    between atoms: C_3  and  C_9 
REMARK    3  A    between atoms: C_11  and  C_7 
REMARK       I    between atoms: C_9  and  N_14 
REMARK    4  A    between atoms: N_14  and  N_15 
ROOT
ATOM      1  C   UNL d   1     -52.157  25.416  33.842  0.00  0.00     0.062 A 
ATOM      2  N   UNL d   1     -51.183  24.170  33.376  0.00  0.00    -0.245 NA
ATOM      3  C   UNL d   1     -50.854  24.919  33.527  0.00  0.00     0.087 A 
ATOM      4  C   UNL d   1     -51.352  25.538  33.761  0.00  0.00     0.025 A 
ATOM      5  C   UNL d   1     -52.470  24.661  33.687  0.00  0.00     0.022 A 
ATOM      6  C   UNL d   1     -51.988  24.048  33.457  0.00  0.00     0.082 A 
ATOM      7  C   UNL d   1     -53.284  24.551  33.772  0.00  0.00     0.002 A 
ATOM      8  C   UNL d   1     -52.304  23.313  33.307  0.00  0.00     0.019 A 
ATOM      9  C   UNL d   1     -53.606  23.803  33.620  0.00  0.00     0.000 A 
ATOM     10  C   UNL d   1     -53.116  23.189  33.389  0.00  0.00     0.002 A 
ENDROOT
BRANCH   1  11
ATOM     11  C   UNL d   1     -52.640  26.038  34.074  0.00  0.00     0.297 C 
ATOM     12  N   UNL d   1     -52.470  26.333  34.818  0.00  0.00    -0.104 NA
ATOM     13  O   UNL d   1     -53.205  26.238  33.497  0.00  0.00    -0.264 OA
BRANCH  12  14
ATOM     14  N   UNL d   1     -51.861  26.002  35.255  0.00  0.00    -0.118 NA
BRANCH  14  15
ATOM     15  C   UNL d   1     -51.829  26.110  36.079  0.00  0.00     0.215 A 
ATOM     16  N   UNL d   1     -52.380  25.842  36.622  0.00  0.00    -0.219 NA
ATOM     17  C   UNL d   1     -52.143  26.064  37.375  0.00  0.00     0.090 A 
ATOM     18  C   UNL d   1     -51.427  26.479  37.292  0.00  0.00     0.050 A 
ATOM     19  C   UNL d   1     -52.469  25.952  38.119  0.00  0.00     0.018 A 
ATOM     20  C   UNL d   1     -51.037  26.781  37.954  0.00  0.00     0.008 A 
ATOM     21  S   UNL d   1     -51.238  26.504  36.494  0.00  0.00    -0.045 SA
ATOM     22  C   UNL d   1     -51.379  26.660  38.703  0.00  0.00     0.001 A 
ATOM     23  C   UNL d   1     -52.087  26.250  38.785  0.00  0.00     0.002 A 
ATOM     24  C   UNL d   1     -53.183  25.538  38.196  0.00  0.00     0.002 C 
ENDBRANCH  14  15
ENDBRANCH  12  14
ENDBRANCH   1  11
BRANCH   3  25
ATOM     25  C   UNL d   1     -50.036  25.043  33.445  0.00  0.00     0.047 A 
ATOM     26  S   UNL d   1     -49.735  25.810  33.427  0.00  0.00    -0.085 SA
ATOM     27  C   UNL d   1     -48.914  25.770  33.341  0.00  0.00     0.035 A 
ATOM     28  C   UNL d   1     -48.719  24.990  33.308  0.00  0.00     0.007 A 
ATOM     29  C   UNL d   1     -49.405  24.523  33.371  0.00  0.00     0.009 A 
ENDBRANCH   3  25
TORSDOF 4
ENDMDL
