MODEL 1
REMARK VINA RESULT:      -7.4      0.000      0.000
REMARK  4 active torsions:
REMARK  status: ('A' for Active; 'I' for Inactive)
REMARK    1  A    between atoms: N_2  and  C_1 
REMARK       I    between atoms: C_6  and  N_2 
REMARK    2  A    between atoms: C_21  and  N_3 
REMARK    3  A    between atoms: C_8  and  C_6 
REMARK       I    between atoms: C_17  and  N_18 
REMARK    4  A    between atoms: N_18  and  C_19 
ROOT
ATOM      1  C   UNL d   1     -47.956  11.727  23.412  0.00  0.00    -0.031 C 
ATOM      2  C   UNL d   1     -48.290  11.029  23.126  0.00  0.00    -0.008 C 
ATOM      3  C   UNL d   1     -47.623  12.424  23.698  0.00  0.00     0.133 C 
ENDROOT
BRANCH   3   4
ATOM      4  N   UNL d   1     -47.258  12.958  23.181  0.00  0.00    -0.278 N 
ATOM      5  C   UNL d   1     -47.588  13.648  22.881  0.00  0.00     0.183 A 
ATOM      6  S   UNL d   1     -47.029  14.005  22.391  0.00  0.00    -0.048 SA
ATOM      7  C   UNL d   1     -46.349  13.532  22.388  0.00  0.00     0.050 A 
ATOM      8  C   UNL d   1     -45.623  13.609  22.004  0.00  0.00     0.027 A 
ATOM      9  C   UNL d   1     -46.491  12.881  22.879  0.00  0.00     0.073 A 
ATOM     10  C   UNL d   1     -45.039  13.036  22.110  0.00  0.00     0.085 A 
ATOM     11  C   UNL d   1     -45.181  12.386  22.601  0.00  0.00     0.021 A 
ATOM     12  C   UNL d   1     -45.907  12.309  22.985  0.00  0.00     0.020 A 
BRANCH   5  13
ATOM     13  N   UNL d   1     -48.348  13.929  23.047  0.00  0.00    -0.183 NA
ATOM     14  C   UNL d   1     -48.760  14.351  22.470  0.00  0.00     0.287 C 
ATOM     15  O   UNL d   1     -48.412  14.489  21.735  0.00  0.00    -0.265 OA
BRANCH  14  16
ATOM     16  C   UNL d   1     -49.520  14.635  22.629  0.00  0.00     0.088 A 
ATOM     17  S   UNL d   1     -49.736  15.176  23.236  0.00  0.00    -0.075 SA
ATOM     18  C   UNL d   1     -50.548  15.303  23.190  0.00  0.00     0.064 A 
ATOM     19 BR   UNL d   1     -51.010  15.800  23.682  0.00  0.00    -0.042 Br
ATOM     20  C   UNL d   1     -50.842  14.850  22.564  0.00  0.00     0.014 A 
ATOM     21  C   UNL d   1     -50.212  14.444  22.224  0.00  0.00     0.012 A 
ENDBRANCH  14  16
ENDBRANCH   5  13
BRANCH  10  22
ATOM     22  N   UNL d   1     -44.301  13.111  21.721  0.00  0.00    -0.208 NA
ATOM     23  C   UNL d   1     -43.719  12.550  21.841  0.00  0.00     0.279 C 
ATOM     24  O   UNL d   1     -42.993  12.627  21.457  0.00  0.00    -0.265 OA
ATOM     25  C   UNL d   1     -43.847  11.905  22.343  0.00  0.00     0.068 C 
ENDBRANCH  10  22
ENDBRANCH   3   4
TORSDOF 4
ENDMDL
MODEL 2
REMARK VINA RESULT:      -6.7      1.667      2.199
REMARK  4 active torsions:
REMARK  status: ('A' for Active; 'I' for Inactive)
REMARK    1  A    between atoms: N_2  and  C_1 
REMARK       I    between atoms: C_6  and  N_2 
REMARK    2  A    between atoms: C_21  and  N_3 
REMARK    3  A    between atoms: C_8  and  C_6 
REMARK       I    between atoms: C_17  and  N_18 
REMARK    4  A    between atoms: N_18  and  C_19 
ROOT
ATOM      1  C   UNL d   1     -46.380  14.263  22.682  0.00  0.00    -0.031 C 
ATOM      2  C   UNL d   1     -46.005  14.912  23.027  0.00  0.00    -0.008 C 
ATOM      3  C   UNL d   1     -46.755  13.616  22.337  0.00  0.00     0.133 C 
ENDROOT
BRANCH   3   4
ATOM      4  N   UNL d   1     -46.884  12.924  22.773  0.00  0.00    -0.278 N 
ATOM      5  C   UNL d   1     -47.595  12.689  23.112  0.00  0.00     0.183 A 
ATOM      6  S   UNL d   1     -47.469  11.968  23.492  0.00  0.00    -0.048 SA
ATOM      7  C   UNL d   1     -46.675  11.756  23.386  0.00  0.00     0.050 A 
ATOM      8  C   UNL d   1     -46.238  11.104  23.638  0.00  0.00     0.027 A 
ATOM      9  C   UNL d   1     -46.312  12.350  22.940  0.00  0.00     0.073 A 
ATOM     10  C   UNL d   1     -45.439  11.044  23.444  0.00  0.00     0.085 A 
ATOM     11  C   UNL d   1     -45.076  11.638  22.997  0.00  0.00     0.021 A 
ATOM     12  C   UNL d   1     -45.512  12.291  22.745  0.00  0.00     0.020 A 
BRANCH   5  13
ATOM     13  N   UNL d   1     -48.307  13.107  23.074  0.00  0.00    -0.183 NA
ATOM     14  C   UNL d   1     -49.010  12.701  22.930  0.00  0.00     0.287 C 
ATOM     15  O   UNL d   1     -48.997  11.883  22.824  0.00  0.00    -0.265 OA
BRANCH  14  16
ATOM     16  C   UNL d   1     -49.726  13.112  22.891  0.00  0.00     0.088 A 
ATOM     17  S   UNL d   1     -49.878  13.883  23.194  0.00  0.00    -0.075 SA
ATOM     18  C   UNL d   1     -50.663  14.072  23.032  0.00  0.00     0.064 A 
ATOM     19 BR   UNL d   1     -51.061  14.782  23.230  0.00  0.00    -0.042 Br
ATOM     20  C   UNL d   1     -51.003  13.433  22.633  0.00  0.00     0.014 A 
ATOM     21  C   UNL d   1     -50.428  12.849  22.549  0.00  0.00     0.012 A 
ENDBRANCH  14  16
ENDBRANCH   5  13
BRANCH  10  22
ATOM     22  N   UNL d   1     -44.992  10.382  23.698  0.00  0.00    -0.208 NA
ATOM     23  C   UNL d   1     -44.220  10.291  23.446  0.00  0.00     0.279 C 
ATOM     24  O   UNL d   1     -43.783   9.638  23.698  0.00  0.00    -0.265 OA
ATOM     25  C   UNL d   1     -43.869  10.845  22.942  0.00  0.00     0.068 C 
ENDBRANCH  10  22
ENDBRANCH   3   4
TORSDOF 4
ENDMDL
MODEL 3
REMARK VINA RESULT:      -6.7      2.196      4.965
REMARK  4 active torsions:
REMARK  status: ('A' for Active; 'I' for Inactive)
REMARK    1  A    between atoms: N_2  and  C_1 
REMARK       I    between atoms: C_6  and  N_2 
REMARK    2  A    between atoms: C_21  and  N_3 
REMARK    3  A    between atoms: C_8  and  C_6 
REMARK       I    between atoms: C_17  and  N_18 
REMARK    4  A    between atoms: N_18  and  C_19 
ROOT
ATOM      1  C   UNL d   1     -47.817  11.417  23.070  0.00  0.00    -0.031 C 
ATOM      2  C   UNL d   1     -47.724  10.890  23.698  0.00  0.00    -0.008 C 
ATOM      3  C   UNL d   1     -47.910  11.942  22.441  0.00  0.00     0.133 C 
ENDROOT
BRANCH   3   4
ATOM      4  N   UNL d   1     -47.832  12.757  22.561  0.00  0.00    -0.278 N 
ATOM      5  C   UNL d   1     -47.151  13.203  22.449  0.00  0.00     0.183 A 
ATOM      6  S   UNL d   1     -47.328  13.988  22.634  0.00  0.00    -0.048 SA
ATOM      7  C   UNL d   1     -48.124  14.026  22.862  0.00  0.00     0.050 A 
ATOM      8  C   UNL d   1     -48.601  14.654  23.103  0.00  0.00     0.027 A 
ATOM      9  C   UNL d   1     -48.437  13.262  22.816  0.00  0.00     0.073 A 
ATOM     10  C   UNL d   1     -49.391  14.519  23.299  0.00  0.00     0.085 A 
ATOM     11  C   UNL d   1     -49.704  13.755  23.253  0.00  0.00     0.021 A 
ATOM     12  C   UNL d   1     -49.227  13.127  23.012  0.00  0.00     0.020 A 
BRANCH   5  13
ATOM     13  N   UNL d   1     -46.421  12.910  22.196  0.00  0.00    -0.183 NA
ATOM     14  C   UNL d   1     -45.726  13.242  22.490  0.00  0.00     0.287 C 
ATOM     15  O   UNL d   1     -45.764  13.862  23.033  0.00  0.00    -0.265 OA
BRANCH  14  16
ATOM     16  C   UNL d   1     -44.991  12.954  22.241  0.00  0.00     0.088 A 
ATOM     17  S   UNL d   1     -44.496  13.291  21.649  0.00  0.00    -0.075 SA
ATOM     18  C   UNL d   1     -43.822  12.824  21.583  0.00  0.00     0.064 A 
ATOM     19 BR   UNL d   1     -43.175  12.943  21.065  0.00  0.00    -0.042 Br
ATOM     20  C   UNL d   1     -43.888  12.201  22.124  0.00  0.00     0.014 A 
ATOM     21  C   UNL d   1     -44.603  12.285  22.523  0.00  0.00     0.012 A 
ENDBRANCH  14  16
ENDBRANCH   5  13
BRANCH  10  22
ATOM     22  N   UNL d   1     -49.877  15.156  23.544  0.00  0.00    -0.208 NA
ATOM     23  C   UNL d   1     -50.587  15.295  23.163  0.00  0.00     0.279 C 
ATOM     24  O   UNL d   1     -51.064  15.922  23.407  0.00  0.00    -0.265 OA
ATOM     25  C   UNL d   1     -50.834  14.816  22.536  0.00  0.00     0.068 C 
ENDBRANCH  10  22
ENDBRANCH   3   4
TORSDOF 4
ENDMDL
MODEL 4
REMARK VINA RESULT:      -6.5      8.452      9.490
REMARK  4 active torsions:
REMARK  status: ('A' for Active; 'I' for Inactive)
REMARK    1  A    between atoms: N_2  and  C_1 
REMARK       I    between atoms: C_6  and  N_2 
REMARK    2  A    between atoms: C_21  and  N_3 
REMARK    3  A    between atoms: C_8  and  C_6 
REMARK       I    between atoms: C_17  and  N_18 
REMARK    4  A    between atoms: N_18  and  C_19 
ROOT
ATOM      1  C   UNL d   1     -38.012  13.107  18.793  0.00  0.00    -0.031 C 
ATOM      2  C   UNL d   1     -37.940  12.306  18.608  0.00  0.00    -0.008 C 
ATOM      3  C   UNL d   1     -38.084  13.907  18.979  0.00  0.00     0.133 C 
ENDROOT
BRANCH   3   4
ATOM      4  N   UNL d   1     -38.826  14.235  19.141  0.00  0.00    -0.278 N 
ATOM      5  C   UNL d   1     -39.119  14.433  19.882  0.00  0.00     0.183 A 
ATOM      6  S   UNL d   1     -39.878  14.742  19.782  0.00  0.00    -0.048 SA
ATOM      7  C   UNL d   1     -40.053  14.735  18.972  0.00  0.00     0.050 A 
ATOM      8  C   UNL d   1     -40.719  14.974  18.548  0.00  0.00     0.027 A 
ATOM      9  C   UNL d   1     -39.400  14.421  18.574  0.00  0.00     0.073 A 
ATOM     10  C   UNL d   1     -40.733  14.898  17.727  0.00  0.00     0.085 A 
ATOM     11  C   UNL d   1     -40.080  14.584  17.329  0.00  0.00     0.021 A 
ATOM     12  C   UNL d   1     -39.414  14.345  17.752  0.00  0.00     0.020 A 
BRANCH   5  13
ATOM     13  N   UNL d   1     -38.719  14.335  20.599  0.00  0.00    -0.183 NA
ATOM     14  C   UNL d   1     -39.149  14.180  21.286  0.00  0.00     0.287 C 
ATOM     15  O   UNL d   1     -39.971  14.124  21.253  0.00  0.00    -0.265 OA
BRANCH  14  16
ATOM     16  C   UNL d   1     -38.755  14.082  22.007  0.00  0.00     0.088 A 
ATOM     17  S   UNL d   1     -38.609  13.353  22.403  0.00  0.00    -0.075 SA
ATOM     18  C   UNL d   1     -38.203  13.516  23.099  0.00  0.00     0.064 A 
ATOM     19 BR   UNL d   1     -37.940  12.963  23.671  0.00  0.00    -0.042 Br
ATOM     20  C   UNL d   1     -38.092  14.334  23.145  0.00  0.00     0.014 A 
ATOM     21  C   UNL d   1     -38.431  14.676  22.477  0.00  0.00     0.012 A 
ENDBRANCH  14  16
ENDBRANCH   5  13
BRANCH  10  22
ATOM     22  N   UNL d   1     -41.409  15.140  17.294  0.00  0.00    -0.208 NA
ATOM     23  C   UNL d   1     -41.317  15.559  16.598  0.00  0.00     0.279 C 
ATOM     24  O   UNL d   1     -41.984  15.795  16.174  0.00  0.00    -0.265 OA
ATOM     25  C   UNL d   1     -40.565  15.750  16.312  0.00  0.00     0.068 C 
ENDBRANCH  10  22
ENDBRANCH   3   4
TORSDOF 4
ENDMDL
MODEL 5
REMARK VINA RESULT:      -5.2      7.984      9.767
REMARK  4 active torsions:
REMARK  status: ('A' for Active; 'I' for Inactive)
REMARK    1  A    between atoms: N_2  and  C_1 
REMARK       I    between atoms: C_6  and  N_2 
REMARK    2  A    between atoms: C_21  and  N_3 
REMARK    3  A    between atoms: C_8  and  C_6 
REMARK       I    between atoms: C_17  and  N_18 
REMARK    4  A    between atoms: N_18  and  C_19 
ROOT
ATOM      1  C   UNL d   1     -40.928  14.514  19.527  0.00  0.00    -0.031 C 
ATOM      2  C   UNL d   1     -41.376  13.828  19.434  0.00  0.00    -0.008 C 
ATOM      3  C   UNL d   1     -40.480  15.200  19.621  0.00  0.00     0.133 C 
ENDROOT
BRANCH   3   4
ATOM      4  N   UNL d   1     -39.705  15.238  19.332  0.00  0.00    -0.278 N 
ATOM      5  C   UNL d   1     -39.019  15.099  19.762  0.00  0.00     0.183 A 
ATOM      6  S   UNL d   1     -38.376  15.198  19.254  0.00  0.00    -0.048 SA
ATOM      7  C   UNL d   1     -38.669  15.399  18.505  0.00  0.00     0.050 A 
ATOM      8  C   UNL d   1     -38.292  15.562  17.790  0.00  0.00     0.027 A 
ATOM      9  C   UNL d   1     -39.494  15.424  18.554  0.00  0.00     0.073 A 
ATOM     10  C   UNL d   1     -38.739  15.749  17.123  0.00  0.00     0.085 A 
ATOM     11  C   UNL d   1     -39.565  15.774  17.171  0.00  0.00     0.021 A 
ATOM     12  C   UNL d   1     -39.941  15.611  17.887  0.00  0.00     0.020 A 
BRANCH   5  13
ATOM     13  N   UNL d   1     -38.986  14.897  20.563  0.00  0.00    -0.183 NA
ATOM     14  C   UNL d   1     -38.444  15.277  21.056  0.00  0.00     0.287 C 
ATOM     15  O   UNL d   1     -37.941  15.853  20.748  0.00  0.00    -0.265 OA
BRANCH  14  16
ATOM     16  C   UNL d   1     -38.405  15.080  21.858  0.00  0.00     0.088 A 
ATOM     17  S   UNL d   1     -38.483  14.309  22.189  0.00  0.00    -0.075 SA
ATOM     18  C   UNL d   1     -38.408  14.372  23.006  0.00  0.00     0.064 A 
ATOM     19 BR   UNL d   1     -38.446  13.750  23.566  0.00  0.00    -0.042 Br
ATOM     20  C   UNL d   1     -38.285  15.169  23.191  0.00  0.00     0.014 A 
ATOM     21  C   UNL d   1     -38.284  15.597  22.488  0.00  0.00     0.012 A 
ENDBRANCH  14  16
ENDBRANCH   5  13
BRANCH  10  22
ATOM     22  N   UNL d   1     -38.359  15.915  16.394  0.00  0.00    -0.208 NA
ATOM     23  C   UNL d   1     -38.314  15.337  15.819  0.00  0.00     0.279 C 
ATOM     24  O   UNL d   1     -37.940  15.503  15.103  0.00  0.00    -0.265 OA
ATOM     25  C   UNL d   1     -38.639  14.586  15.943  0.00  0.00     0.068 C 
ENDBRANCH  10  22
ENDBRANCH   3   4
TORSDOF 4
ENDMDL
MODEL 6
REMARK VINA RESULT:      -5.2      2.646      5.298
REMARK  4 active torsions:
REMARK  status: ('A' for Active; 'I' for Inactive)
REMARK    1  A    between atoms: N_2  and  C_1 
REMARK       I    between atoms: C_6  and  N_2 
REMARK    2  A    between atoms: C_21  and  N_3 
REMARK    3  A    between atoms: C_8  and  C_6 
REMARK       I    between atoms: C_17  and  N_18 
REMARK    4  A    between atoms: N_18  and  C_19 
ROOT
ATOM      1  C   UNL d   1     -45.790  13.990  22.378  0.00  0.00    -0.031 C 
ATOM      2  C   UNL d   1     -45.329  14.649  22.560  0.00  0.00    -0.008 C 
ATOM      3  C   UNL d   1     -46.250  13.330  22.196  0.00  0.00     0.133 C 
ENDROOT
BRANCH   3   4
ATOM      4  N   UNL d   1     -46.814  13.051  22.734  0.00  0.00    -0.278 N 
ATOM      5  C   UNL d   1     -46.708  12.445  23.279  0.00  0.00     0.183 A 
ATOM      6  S   UNL d   1     -47.413  12.354  23.698  0.00  0.00    -0.048 SA
ATOM      7  C   UNL d   1     -47.958  12.907  23.408  0.00  0.00     0.050 A 
ATOM      8  C   UNL d   1     -48.740  13.071  23.611  0.00  0.00     0.027 A 
ATOM      9  C   UNL d   1     -47.586  13.339  22.809  0.00  0.00     0.073 A 
ATOM     10  C   UNL d   1     -49.151  13.667  23.216  0.00  0.00     0.085 A 
ATOM     11  C   UNL d   1     -48.780  14.100  22.618  0.00  0.00     0.021 A 
ATOM     12  C   UNL d   1     -47.997  13.935  22.415  0.00  0.00     0.020 A 
BRANCH   5  13
ATOM     13  N   UNL d   1     -46.013  12.009  23.385  0.00  0.00    -0.183 NA
ATOM     14  C   UNL d   1     -46.050  11.185  23.403  0.00  0.00     0.287 C 
ATOM     15  O   UNL d   1     -46.776  10.804  23.317  0.00  0.00    -0.265 OA
BRANCH  14  16
ATOM     16  C   UNL d   1     -45.359  10.743  23.508  0.00  0.00     0.088 A 
ATOM     17  S   UNL d   1     -44.571  11.040  23.526  0.00  0.00    -0.075 SA
ATOM     18  C   UNL d   1     -44.061  10.405  23.642  0.00  0.00     0.064 A 
ATOM     19 BR   UNL d   1     -43.225  10.434  23.698  0.00  0.00    -0.042 Br
ATOM     20  C   UNL d   1     -44.516   9.717  23.698  0.00  0.00     0.014 A 
ATOM     21  C   UNL d   1     -45.308   9.927  23.615  0.00  0.00     0.012 A 
ENDBRANCH  14  16
ENDBRANCH   5  13
BRANCH  10  22
ATOM     22  N   UNL d   1     -49.947  13.836  23.420  0.00  0.00    -0.208 NA
ATOM     23  C   UNL d   1     -50.198  14.612  23.464  0.00  0.00     0.279 C 
ATOM     24  O   UNL d   1     -50.982  14.775  23.665  0.00  0.00    -0.265 OA
ATOM     25  C   UNL d   1     -49.680  15.237  23.310  0.00  0.00     0.068 C 
ENDBRANCH  10  22
ENDBRANCH   3   4
TORSDOF 4
ENDMDL
MODEL 7
REMARK VINA RESULT:      -4.6      2.616      5.179
REMARK  4 active torsions:
REMARK  status: ('A' for Active; 'I' for Inactive)
REMARK    1  A    between atoms: N_2  and  C_1 
REMARK       I    between atoms: C_6  and  N_2 
REMARK    2  A    between atoms: C_21  and  N_3 
REMARK    3  A    between atoms: C_8  and  C_6 
REMARK       I    between atoms: C_17  and  N_18 
REMARK    4  A    between atoms: N_18  and  C_19 
ROOT
ATOM      1  C   UNL d   1     -46.990  14.727  22.578  0.00  0.00    -0.031 C 
ATOM      2  C   UNL d   1     -47.379  15.296  22.125  0.00  0.00    -0.008 C 
ATOM      3  C   UNL d   1     -46.601  14.159  23.031  0.00  0.00     0.133 C 
ENDROOT
BRANCH   3   4
ATOM      4  N   UNL d   1     -46.784  13.356  22.945  0.00  0.00    -0.278 N 
ATOM      5  C   UNL d   1     -46.299  12.778  22.620  0.00  0.00     0.183 A 
ATOM      6  S   UNL d   1     -46.705  12.061  22.646  0.00  0.00    -0.048 SA
ATOM      7  C   UNL d   1     -47.446  12.197  22.991  0.00  0.00     0.050 A 
ATOM      8  C   UNL d   1     -48.079  11.695  23.158  0.00  0.00     0.027 A 
ATOM      9  C   UNL d   1     -47.495  13.001  23.176  0.00  0.00     0.073 A 
ATOM     10  C   UNL d   1     -48.761  11.997  23.511  0.00  0.00     0.085 A 
ATOM     11  C   UNL d   1     -48.810  12.801  23.697  0.00  0.00     0.021 A 
ATOM     12  C   UNL d   1     -48.177  13.303  23.529  0.00  0.00     0.020 A 
BRANCH   5  13
ATOM     13  N   UNL d   1     -45.538  12.902  22.320  0.00  0.00    -0.183 NA
ATOM     14  C   UNL d   1     -44.964  12.318  22.416  0.00  0.00     0.287 C 
ATOM     15  O   UNL d   1     -45.151  11.618  22.809  0.00  0.00    -0.265 OA
BRANCH  14  16
ATOM     16  C   UNL d   1     -44.201  12.435  22.120  0.00  0.00     0.088 A 
ATOM     17  S   UNL d   1     -43.942  13.078  21.641  0.00  0.00    -0.075 SA
ATOM     18  C   UNL d   1     -43.144  12.969  21.475  0.00  0.00     0.064 A 
ATOM     19 BR   UNL d   1     -42.651  13.469  21.017  0.00  0.00    -0.042 Br
ATOM     20  C   UNL d   1     -42.899  12.269  21.842  0.00  0.00     0.014 A 
ATOM     21  C   UNL d   1     -43.547  11.946  22.234  0.00  0.00     0.012 A 
ENDBRANCH  14  16
ENDBRANCH   5  13
BRANCH  10  22
ATOM     22  N   UNL d   1     -49.405  11.489  23.683  0.00  0.00    -0.208 NA
ATOM     23  C   UNL d   1     -50.153  11.676  23.410  0.00  0.00     0.279 C 
ATOM     24  O   UNL d   1     -50.785  11.174  23.581  0.00  0.00    -0.265 OA
ATOM     25  C   UNL d   1     -50.285  12.360  22.966  0.00  0.00     0.068 C 
ENDBRANCH  10  22
ENDBRANCH   3   4
TORSDOF 4
ENDMDL
