MODEL 1
REMARK VINA RESULT:      46.2      0.000      0.000
REMARK  6 active torsions:
REMARK  status: ('A' for Active; 'I' for Inactive)
REMARK       I    between atoms: N_2  and  C_1 
REMARK       I    between atoms: N_7  and  C_1 
REMARK    1  A    between atoms: C_4  and  N_2 
REMARK       I    between atoms: C_3  and  N_8 
REMARK    2  A    between atoms: C_6  and  C_3 
REMARK    3  A    between atoms: N_5  and  C_12 
REMARK    4  A    between atoms: C_12  and  C_6 
REMARK    5  A    between atoms: N_8  and  N_7 
REMARK    6  A    between atoms: O_14  and  C_10 
ROOT
ATOM      1  C   UNL d   1     -50.159  26.574  33.729  0.00  0.00     0.387 C 
ATOM      2  N   UNL d   1     -50.322  25.779  33.565  0.00  0.00    -0.188 NA
ATOM      3  N   UNL d   1     -49.389  26.823  33.812  0.00  0.00    -0.085 NA
ATOM      4  O   UNL d   1     -50.784  27.112  33.807  0.00  0.00    -0.241 OA
ENDROOT
BRANCH   3   5
ATOM      5  N   UNL d   1     -49.227  27.617  33.976  0.00  0.00    -0.101 NA
ATOM      6  C   UNL d   1     -48.588  27.819  34.458  0.00  0.00     0.298 C 
ATOM      7  O   UNL d   1     -48.113  27.224  34.776  0.00  0.00    -0.264 OA
BRANCH   6   8
ATOM      8  C   UNL d   1     -48.431  28.610  34.617  0.00  0.00     0.083 C 
BRANCH   8   9
ATOM      9  C   UNL d   1     -48.133  28.824  35.352  0.00  0.00     0.085 C 
BRANCH   9  10
ATOM     10  N   UNL d   1     -47.759  29.554  35.451  0.00  0.00    -0.299 N 
ATOM     11  C   UNL d   1     -48.202  30.241  35.447  0.00  0.00     0.107 A 
ATOM     12  C   UNL d   1     -47.828  30.969  35.547  0.00  0.00     0.142 A 
ATOM     13  O   UNL d   1     -47.007  30.999  35.651  0.00  0.00    -0.300 OA
ATOM     14  C   UNL d   1     -46.562  30.305  35.655  0.00  0.00     0.142 A 
ATOM     15  C   UNL d   1     -46.939  29.584  35.555  0.00  0.00     0.107 A 
ENDBRANCH   9  10
ENDBRANCH   8   9
ENDBRANCH   6   8
ENDBRANCH   3   5
BRANCH   2  16
ATOM     16  C   UNL d   1     -51.103  25.526  33.481  0.00  0.00     0.108 A 
ATOM     17  C   UNL d   1     -51.270  24.729  33.389  0.00  0.00     0.112 A 
ATOM     18  C   UNL d   1     -52.039  24.473  33.306  0.00  0.00     0.026 A 
ATOM     19  C   UNL d   1     -52.660  25.019  33.312  0.00  0.00     0.002 A 
ATOM     20  C   UNL d   1     -52.496  25.823  33.404  0.00  0.00     0.002 A 
ATOM     21  C   UNL d   1     -51.716  26.077  33.488  0.00  0.00     0.021 A 
BRANCH  17  22
ATOM     22  O   UNL d   1     -50.652  24.185  33.383  0.00  0.00    -0.327 OA
ATOM     23  C   UNL d   1     -50.817  23.380  33.488  0.00  0.00     0.181 C 
ENDBRANCH  17  22
ENDBRANCH   2  16
TORSDOF 6
ENDMDL
