MODEL 1
REMARK VINA RESULT:      -5.2      0.000      0.000
REMARK  5 active torsions:
REMARK  status: ('A' for Active; 'I' for Inactive)
REMARK    1  A    between atoms: C_12  and  N_3 
REMARK    2  A    between atoms: C_10  and  N_7 
REMARK    3  A    between atoms: C_11  and  C_10 
REMARK    4  A    between atoms: C_15  and  C_11 
REMARK    5  A    between atoms: C_16  and  C_12 
ROOT
ATOM      1  C   UNL d   1      57.612  -0.070  30.776  0.00  0.00     0.191 A 
ATOM      2  C   UNL d   1      57.295  -0.792  31.045  0.00  0.00     0.196 A 
ATOM      3  N   UNL d   1      58.111  -0.242  30.134  0.00  0.00    -0.191 N 
ATOM      4  N   UNL d   1      57.404   0.628  31.148  0.00  0.00    -0.204 NA
ATOM      5  N   UNL d   1      57.604  -1.394  30.563  0.00  0.00    -0.122 NA
ATOM      6  N   UNL d   1      58.096  -1.051  30.017  0.00  0.00    -0.058 NA
ATOM      7  N   UNL d   1      56.566  -0.095  32.057  0.00  0.00    -0.251 N 
ATOM      8  C   UNL d   1      56.779  -0.797  31.679  0.00  0.00     0.289 A 
ATOM      9  C   UNL d   1      56.884   0.628  31.788  0.00  0.00     0.187 A 
ATOM     10  O   UNL d   1      56.461  -1.519  31.948  0.00  0.00    -0.265 OA
ENDROOT
BRANCH   7  11
ATOM     11  C   UNL d   1      56.042  -0.091  32.703  0.00  0.00     0.127 C 
BRANCH  11  12
ATOM     12  C   UNL d   1      56.260   0.267  33.423  0.00  0.00     0.213 C 
ATOM     13  O   UNL d   1      57.045   0.491  33.548  0.00  0.00    -0.285 OA
BRANCH  12  14
ATOM     14  C   UNL d   1      55.691   0.392  34.001  0.00  0.00     0.041 A 
ATOM     15  C   UNL d   1      54.889   0.354  33.808  0.00  0.00     0.003 A 
ATOM     16  C   UNL d   1      54.321   0.478  34.378  0.00  0.00     0.000 A 
ATOM     17  C   UNL d   1      54.551   0.644  35.156  0.00  0.00     0.000 A 
ATOM     18  C   UNL d   1      55.353   0.682  35.349  0.00  0.00     0.000 A 
ATOM     19  C   UNL d   1      55.920   0.558  34.779  0.00  0.00     0.003 A 
ENDBRANCH  12  14
ENDBRANCH  11  12
ENDBRANCH   7  11
BRANCH   3  20
ATOM     20  C   UNL d   1      58.551   0.311  29.685  0.00  0.00     0.104 C 
BRANCH  20  21
ATOM     21  C   UNL d   1      59.350   0.157  29.505  0.00  0.00     0.019 A 
ATOM     22  C   UNL d   1      59.945   0.359  30.039  0.00  0.00     0.002 A 
ATOM     23  C   UNL d   1      60.717   0.201  29.846  0.00  0.00     0.000 A 
ATOM     24  C   UNL d   1      60.920  -0.151  29.140  0.00  0.00     0.000 A 
ATOM     25  C   UNL d   1      60.307  -0.358  28.592  0.00  0.00     0.000 A 
ATOM     26  C   UNL d   1      59.527  -0.200  28.785  0.00  0.00     0.002 A 
ENDBRANCH  20  21
ENDBRANCH   3  20
TORSDOF 5
ENDMDL
MODEL 2
REMARK VINA RESULT:      -5.0      1.076      5.470
REMARK  5 active torsions:
REMARK  status: ('A' for Active; 'I' for Inactive)
REMARK    1  A    between atoms: C_12  and  N_3 
REMARK    2  A    between atoms: C_10  and  N_7 
REMARK    3  A    between atoms: C_11  and  C_10 
REMARK    4  A    between atoms: C_15  and  C_11 
REMARK    5  A    between atoms: C_16  and  C_12 
ROOT
ATOM      1  C   UNL d   1      57.018  -0.048  31.848  0.00  0.00     0.191 A 
ATOM      2  C   UNL d   1      56.989  -0.837  31.579  0.00  0.00     0.196 A 
ATOM      3  N   UNL d   1      56.552  -0.003  32.534  0.00  0.00    -0.191 N 
ATOM      4  N   UNL d   1      57.457   0.505  31.435  0.00  0.00    -0.204 NA
ATOM      5  N   UNL d   1      56.506  -1.261  32.105  0.00  0.00    -0.122 NA
ATOM      6  N   UNL d   1      56.247  -0.748  32.677  0.00  0.00    -0.058 NA
ATOM      7  N   UNL d   1      57.845  -0.496  30.486  0.00  0.00    -0.251 N 
ATOM      8  C   UNL d   1      57.401  -1.051  30.905  0.00  0.00     0.289 A 
ATOM      9  C   UNL d   1      57.874   0.293  30.755  0.00  0.00     0.187 A 
ATOM     10  O   UNL d   1      57.372  -1.839  30.637  0.00  0.00    -0.265 OA
ENDROOT
BRANCH   7  11
ATOM     11  C   UNL d   1      58.266  -0.705  29.801  0.00  0.00     0.127 C 
BRANCH  11  12
ATOM     12  C   UNL d   1      58.878  -0.218  29.515  0.00  0.00     0.213 C 
ATOM     13  O   UNL d   1      58.796   0.604  29.543  0.00  0.00    -0.285 OA
BRANCH  12  14
ATOM     14  C   UNL d   1      59.557  -0.560  29.206  0.00  0.00     0.041 A 
ATOM     15  C   UNL d   1      59.513  -1.282  28.807  0.00  0.00     0.003 A 
ATOM     16  C   UNL d   1      60.185  -1.625  28.500  0.00  0.00     0.000 A 
ATOM     17  C   UNL d   1      60.916  -1.247  28.589  0.00  0.00     0.000 A 
ATOM     18  C   UNL d   1      60.960  -0.525  28.988  0.00  0.00     0.000 A 
ATOM     19  C   UNL d   1      60.289  -0.182  29.295  0.00  0.00     0.003 A 
ENDBRANCH  12  14
ENDBRANCH  11  12
ENDBRANCH   7  11
BRANCH   3  20
ATOM     20  C   UNL d   1      56.416   0.682  32.997  0.00  0.00     0.104 C 
BRANCH  20  21
ATOM     21  C   UNL d   1      55.838   0.668  33.596  0.00  0.00     0.019 A 
ATOM     22  C   UNL d   1      55.036   0.643  33.404  0.00  0.00     0.002 A 
ATOM     23  C   UNL d   1      54.488   0.630  34.002  0.00  0.00     0.000 A 
ATOM     24  C   UNL d   1      54.707   0.641  34.787  0.00  0.00     0.000 A 
ATOM     25  C   UNL d   1      55.532   0.667  34.984  0.00  0.00     0.000 A 
ATOM     26  C   UNL d   1      56.087   0.680  34.381  0.00  0.00     0.002 A 
ENDBRANCH  20  21
ENDBRANCH   3  20
TORSDOF 5
ENDMDL
MODEL 3
REMARK VINA RESULT:      -4.5      1.643      2.293
REMARK  5 active torsions:
REMARK  status: ('A' for Active; 'I' for Inactive)
REMARK    1  A    between atoms: C_12  and  N_3 
REMARK    2  A    between atoms: C_10  and  N_7 
REMARK    3  A    between atoms: C_11  and  C_10 
REMARK    4  A    between atoms: C_15  and  C_11 
REMARK    5  A    between atoms: C_16  and  C_12 
ROOT
ATOM      1  C   UNL d   1      58.396  -1.184  29.894  0.00  0.00     0.191 A 
ATOM      2  C   UNL d   1      58.609  -0.427  30.171  0.00  0.00     0.196 A 
ATOM      3  N   UNL d   1      58.934  -1.391  29.296  0.00  0.00    -0.191 N 
ATOM      4  N   UNL d   1      57.752  -1.568  30.221  0.00  0.00    -0.204 NA
ATOM      5  N   UNL d   1      59.275  -0.183  29.737  0.00  0.00    -0.122 NA
ATOM      6  N   UNL d   1      59.463  -0.772  29.213  0.00  0.00    -0.058 NA
ATOM      7  N   UNL d   1      57.524  -0.459  31.100  0.00  0.00    -0.251 N 
ATOM      8  C   UNL d   1      58.174  -0.075  30.767  0.00  0.00     0.289 A 
ATOM      9  C   UNL d   1      57.310  -1.217  30.823  0.00  0.00     0.187 A 
ATOM     10  O   UNL d   1      58.388   0.682  31.043  0.00  0.00    -0.265 OA
ENDROOT
BRANCH   7  11
ATOM     11  C   UNL d   1      57.077  -0.109  31.706  0.00  0.00     0.127 C 
BRANCH  11  12
ATOM     12  C   UNL d   1      56.677  -0.581  32.264  0.00  0.00     0.213 C 
ATOM     13  O   UNL d   1      56.692  -1.403  32.192  0.00  0.00    -0.285 OA
BRANCH  12  14
ATOM     14  C   UNL d   1      56.273  -0.222  32.882  0.00  0.00     0.041 A 
ATOM     15  C   UNL d   1      56.684   0.222  33.445  0.00  0.00     0.003 A 
ATOM     16  C   UNL d   1      56.287   0.579  34.059  0.00  0.00     0.000 A 
ATOM     17  C   UNL d   1      55.465   0.496  34.119  0.00  0.00     0.000 A 
ATOM     18  C   UNL d   1      55.054   0.052  33.557  0.00  0.00     0.000 A 
ATOM     19  C   UNL d   1      55.451  -0.305  32.943  0.00  0.00     0.003 A 
ENDBRANCH  12  14
ENDBRANCH  11  12
ENDBRANCH   7  11
BRANCH   3  20
ATOM     20  C   UNL d   1      58.938  -2.103  28.857  0.00  0.00     0.104 C 
BRANCH  20  21
ATOM     21  C   UNL d   1      59.639  -2.548  28.795  0.00  0.00     0.019 A 
ATOM     22  C   UNL d   1      59.647  -3.348  28.997  0.00  0.00     0.002 A 
ATOM     23  C   UNL d   1      60.340  -3.765  28.930  0.00  0.00     0.000 A 
ATOM     24  C   UNL d   1      61.028  -3.415  28.668  0.00  0.00     0.000 A 
ATOM     25  C   UNL d   1      61.019  -2.593  28.461  0.00  0.00     0.000 A 
ATOM     26  C   UNL d   1      60.320  -2.170  28.528  0.00  0.00     0.002 A 
ENDBRANCH  20  21
ENDBRANCH   3  20
TORSDOF 5
ENDMDL
