MODEL 1
REMARK VINA RESULT:      66.1      0.000      0.000
REMARK  5 active torsions:
REMARK  status: ('A' for Active; 'I' for Inactive)
REMARK    1  A    between atoms: C_5  and  N_1 
REMARK    2  A    between atoms: C_7  and  C_3 
REMARK    3  A    between atoms: C_8  and  C_4 
REMARK    4  A    between atoms: N_10  and  C_5 
REMARK    5  A    between atoms: O_21  and  C_15 
ROOT
ATOM      1  N   UNL d   1     -48.059  29.501  35.097  0.00  0.00    -0.203 N 
ATOM      2  N   UNL d   1     -48.418  28.762  35.001  0.00  0.00    -0.163 NA
ATOM      3  C   UNL d   1     -48.923  28.781  34.372  0.00  0.00     0.103 A 
ATOM      4  C   UNL d   1     -48.350  30.011  34.504  0.00  0.00     0.087 A 
ATOM      5  C   UNL d   1     -48.885  29.571  34.051  0.00  0.00     0.040 A 
ENDROOT
BRANCH   4   6
ATOM      6  C   UNL d   1     -48.162  30.804  34.365  0.00  0.00     0.018 A 
ATOM      7  C   UNL d   1     -47.381  31.050  34.309  0.00  0.00     0.004 A 
ATOM      8  C   UNL d   1     -47.195  31.840  34.171  0.00  0.00     0.024 A 
ATOM      9  C   UNL d   1     -47.800  32.389  34.088  0.00  0.00     0.094 A 
ATOM     10  C   UNL d   1     -48.569  32.163  34.140  0.00  0.00     0.024 A 
ATOM     11  C   UNL d   1     -48.756  31.369  34.279  0.00  0.00     0.004 A 
BRANCH   9  12
ATOM     12  O   UNL d   1     -47.589  33.190  33.948  0.00  0.00    -0.328 OA
ATOM     13  C   UNL d   1     -47.971  33.637  33.342  0.00  0.00     0.181 C 
ENDBRANCH   9  12
ENDBRANCH   4   6
BRANCH   1  14
ATOM     14  C   UNL d   1     -47.497  29.712  35.689  0.00  0.00     0.222 C 
ATOM     15  S   UNL d   1     -46.672  29.606  35.528  0.00  0.00    -0.037 SA
BRANCH  14  16
ATOM     16  N   UNL d   1     -47.738  30.025  36.437  0.00  0.00    -0.214 NA
ATOM     17  C   UNL d   1     -47.372  29.761  37.136  0.00  0.00     0.122 C 
ENDBRANCH  14  16
ENDBRANCH   1  14
BRANCH   3  18
ATOM     18  C   UNL d   1     -49.383  28.138  34.107  0.00  0.00     0.019 A 
ATOM     19  C   UNL d   1     -49.219  27.371  34.357  0.00  0.00     0.002 A 
ATOM     20  C   UNL d   1     -49.692  26.739  34.080  0.00  0.00     0.000 A 
ATOM     21  C   UNL d   1     -50.310  26.885  33.566  0.00  0.00     0.000 A 
ATOM     22  C   UNL d   1     -50.460  27.660  33.327  0.00  0.00     0.000 A 
ATOM     23  C   UNL d   1     -50.810  25.993  33.308  0.00  0.00     0.000 C 
ATOM     24  C   UNL d   1     -50.006  28.277  33.591  0.00  0.00     0.002 A 
ENDBRANCH   3  18
TORSDOF 5
ENDMDL
