MODEL 1
REMARK VINA RESULT:      87.3      0.000      0.000
REMARK  7 active torsions:
REMARK  status: ('A' for Active; 'I' for Inactive)
REMARK    1  A    between atoms: N_3  and  S_1 
REMARK    2  A    between atoms: C_6  and  S_1 
REMARK    3  A    between atoms: N_2  and  C_5 
REMARK    4  A    between atoms: C_4  and  N_3 
REMARK    5  A    between atoms: C_5  and  C_4 
REMARK    6  A    between atoms: C_10  and  C_5 
REMARK    7  A    between atoms: O_26  and  C_20 
ROOT
ATOM      1  C   UNL d   1     -56.463-100.255 -43.900  0.00  0.00     0.084 C 
ENDROOT
BRANCH   1   2
ATOM      2  N   UNL d   1     -56.026 -99.879 -44.491  0.00  0.00    -0.300 N 
ATOM      3  C   UNL d   1     -56.346 -99.794 -45.238  0.00  0.00     0.100 A 
ATOM      4  C   UNL d   1     -55.910 -99.418 -45.829  0.00  0.00     0.100 A 
ATOM      5  N   UNL d   1     -55.154 -99.132 -45.664  0.00  0.00    -0.299 N 
ATOM      6  C   UNL d   1     -54.835 -99.221 -44.909  0.00  0.00     0.100 A 
ATOM      7  C   UNL d   1     -54.718 -98.755 -46.260  0.00  0.00     0.100 C 
ATOM      8  C   UNL d   1     -55.270 -99.593 -44.327  0.00  0.00     0.100 A 
ENDBRANCH   1   2
BRANCH   1   9
ATOM      9  C   UNL d   1     -57.266-100.091 -43.812  0.00  0.00     0.130 C 
BRANCH   9  10
ATOM     10  N   UNL d   1     -57.516 -99.322 -43.648  0.00  0.00    -0.155 NA
BRANCH  10  11
ATOM     11  S   UNL d   1     -58.225 -99.194 -43.247  0.00  0.00     0.285 S 
ATOM     12  O   UNL d   1     -57.831 -99.293 -42.527  0.00  0.00    -0.198 OA
ATOM     13  O   UNL d   1     -58.934 -99.066 -42.845  0.00  0.00    -0.198 OA
BRANCH  11  14
ATOM     14  C   UNL d   1     -58.615 -99.095 -43.981  0.00  0.00     0.105 A 
ATOM     15  C   UNL d   1     -58.196 -98.853 -44.635  0.00  0.00     0.015 A 
ATOM     16  C   UNL d   1     -58.586 -98.755 -45.365  0.00  0.00     0.025 A 
ATOM     17  C   UNL d   1     -59.394 -98.905 -45.419  0.00  0.00     0.094 A 
ATOM     18  C   UNL d   1     -59.814 -99.153 -44.743  0.00  0.00     0.025 A 
ATOM     19  C   UNL d   1     -59.423 -99.245 -44.035  0.00  0.00     0.015 A 
BRANCH  17  20
ATOM     20  O   UNL d   1     -59.793 -98.811 -46.144  0.00  0.00    -0.328 OA
ATOM     21  C   UNL d   1     -59.436 -99.041 -46.850  0.00  0.00     0.181 C 
ENDBRANCH  17  20
ENDBRANCH  11  14
ENDBRANCH  10  11
ENDBRANCH   9  10
ENDBRANCH   1   9
BRANCH   1  22
ATOM     22  C   UNL d   1     -56.090-100.800 -43.390  0.00  0.00     0.018 A 
ATOM     23  C   UNL d   1     -55.472-100.553 -42.903  0.00  0.00     0.004 A 
ATOM     24  C   UNL d   1     -55.104-101.092 -42.400  0.00  0.00     0.030 A 
ATOM     25  C   UNL d   1     -55.354-101.878 -42.383  0.00  0.00     0.140 A 
ATOM     26  C   UNL d   1     -55.973-102.125 -42.870  0.00  0.00     0.030 A 
ATOM     27  F   UNL d   1     -54.986-102.417 -41.879  0.00  0.00    -0.204 F 
ATOM     28  C   UNL d   1     -56.341-101.586 -43.373  0.00  0.00     0.004 A 
ENDBRANCH   1  22
TORSDOF 7
ENDMDL
