MODEL 1
REMARK VINA RESULT:      -1.1      0.000      0.000
REMARK  2 active torsions:
REMARK  status: ('A' for Active; 'I' for Inactive)
REMARK    1  A    between atoms: C_6  and  C_1 
REMARK       I    between atoms: N_10  and  C_6 
REMARK    2  A    between atoms: C_12  and  N_10 
ROOT
ATOM      1  C   UNL d   1      57.460   0.257  31.765  0.00  0.00     0.108 A 
ATOM      2  C   UNL d   1      56.404   0.401  32.552  0.00  0.00     0.044 A 
ATOM      3  C   UNL d   1      57.082   0.348  33.029  0.00  0.00     0.112 A 
ATOM      4  S   UNL d   1      57.732   0.259  32.530  0.00  0.00    -0.061 SA
ATOM      5  C   UNL d   1      56.642   0.344  31.763  0.00  0.00     0.116 A 
ATOM      6  N   UNL d   1      57.001   0.389  33.856  0.00  0.00    -0.239 NA
ATOM      7  C   UNL d   1      55.590   0.534  33.724  0.00  0.00     0.056 A 
ATOM      8  C   UNL d   1      56.268   0.481  34.201  0.00  0.00     0.081 A 
ATOM      9  C   UNL d   1      55.655   0.494  32.909  0.00  0.00     0.008 A 
ATOM     10  C   UNL d   1      54.852   0.626  34.065  0.00  0.00     0.193 A 
ATOM     11  C   UNL d   1      55.453   0.614  35.374  0.00  0.00     0.042 A 
ATOM     12  C   UNL d   1      56.197   0.521  35.012  0.00  0.00    -0.003 A 
ATOM     13  C   UNL d   1      54.775   0.667  34.896  0.00  0.00     0.019 A 
ATOM     14  O   UNL d   1      54.168   0.679  33.584  0.00  0.00    -0.287 OA
ATOM     15  N   UNL d   1      56.142   0.370  31.085  0.00  0.00    -0.147 N 
ATOM     16  C   UNL d   1      55.803   0.606  36.106  0.00  0.00     0.009 C 
ATOM     17  C   UNL d   1      55.104   0.681  36.117  0.00  0.00     0.009 C 
ENDROOT
BRANCH   1  18
ATOM     18  C   UNL d   1      57.945   0.179  31.102  0.00  0.00     0.287 C 
ATOM     19  N   UNL d   1      58.642  -0.270  31.130  0.00  0.00    -0.208 NA
ATOM     20  O   UNL d   1      57.728   0.554  30.408  0.00  0.00    -0.265 OA
BRANCH  19  21
ATOM     21  C   UNL d   1      59.122  -0.347  30.472  0.00  0.00     0.085 A 
ATOM     22  C   UNL d   1      59.817   0.092  30.394  0.00  0.00     0.018 A 
ATOM     23  C   UNL d   1      60.293   0.016  29.742  0.00  0.00     0.002 A 
ATOM     24  C   UNL d   1      60.046   0.629  30.991  0.00  0.00     0.002 C 
ATOM     25  C   UNL d   1      60.059  -0.526  29.142  0.00  0.00     0.000 A 
ATOM     26  C   UNL d   1      59.370  -0.960  29.223  0.00  0.00     0.002 A 
ATOM     27  C   UNL d   1      60.511  -0.638  28.460  0.00  0.00     0.000 C 
ATOM     28  C   UNL d   1      58.906  -0.871  29.882  0.00  0.00     0.018 A 
ATOM     29  C   UNL d   1      58.196  -1.316  29.967  0.00  0.00     0.002 C 
ENDBRANCH  19  21
ENDBRANCH   1  18
TORSDOF 2
ENDMDL
MODEL 2
REMARK VINA RESULT:       1.6      1.018      1.463
REMARK  2 active torsions:
REMARK  status: ('A' for Active; 'I' for Inactive)
REMARK    1  A    between atoms: C_6  and  C_1 
REMARK       I    between atoms: N_10  and  C_6 
REMARK    2  A    between atoms: C_12  and  N_10 
ROOT
ATOM      1  C   UNL d   1      57.530  -0.267  31.338  0.00  0.00     0.108 A 
ATOM      2  C   UNL d   1      56.581  -0.681  32.165  0.00  0.00     0.044 A 
ATOM      3  C   UNL d   1      56.805   0.089  32.386  0.00  0.00     0.112 A 
ATOM      4  S   UNL d   1      57.394   0.335  31.865  0.00  0.00    -0.061 SA
ATOM      5  C   UNL d   1      57.036  -0.901  31.511  0.00  0.00     0.116 A 
ATOM      6  N   UNL d   1      56.431   0.450  33.035  0.00  0.00    -0.239 NA
ATOM      7  C   UNL d   1      55.628  -0.710  33.235  0.00  0.00     0.056 A 
ATOM      8  C   UNL d   1      55.851   0.060  33.455  0.00  0.00     0.081 A 
ATOM      9  C   UNL d   1      55.987  -1.077  32.598  0.00  0.00     0.008 A 
ATOM     10  C   UNL d   1      55.047  -1.106  33.653  0.00  0.00     0.193 A 
ATOM     11  C   UNL d   1      54.897   0.031  34.525  0.00  0.00     0.042 A 
ATOM     12  C   UNL d   1      55.490   0.421  34.090  0.00  0.00    -0.003 A 
ATOM     13  C   UNL d   1      54.674  -0.739  34.305  0.00  0.00     0.019 A 
ATOM     14  O   UNL d   1      54.821  -1.882  33.431  0.00  0.00    -0.287 OA
ATOM     15  N   UNL d   1      56.999  -1.635  31.100  0.00  0.00    -0.147 N 
ATOM     16  C   UNL d   1      54.822   0.677  35.010  0.00  0.00     0.009 C 
ATOM     17  C   UNL d   1      54.394   0.142  35.168  0.00  0.00     0.009 C 
ENDROOT
BRANCH   1  18
ATOM     18  C   UNL d   1      58.084  -0.232  30.728  0.00  0.00     0.287 C 
ATOM     19  N   UNL d   1      58.867  -0.483  30.843  0.00  0.00    -0.208 NA
ATOM     20  O   UNL d   1      57.851   0.057  29.999  0.00  0.00    -0.265 OA
BRANCH  19  21
ATOM     21  C   UNL d   1      59.415  -0.448  30.238  0.00  0.00     0.085 A 
ATOM     22  C   UNL d   1      59.397  -0.982  29.610  0.00  0.00     0.018 A 
ATOM     23  C   UNL d   1      59.941  -0.947  29.009  0.00  0.00     0.002 A 
ATOM     24  C   UNL d   1      58.811  -1.577  29.579  0.00  0.00     0.002 C 
ATOM     25  C   UNL d   1      60.530  -0.347  29.043  0.00  0.00     0.000 A 
ATOM     26  C   UNL d   1      60.546   0.182  29.668  0.00  0.00     0.002 A 
ATOM     27  C   UNL d   1      61.105  -0.272  28.455  0.00  0.00     0.000 C 
ATOM     28  C   UNL d   1      59.993   0.132  30.260  0.00  0.00     0.018 A 
ATOM     29  C   UNL d   1      60.008   0.675  30.903  0.00  0.00     0.002 C 
ENDBRANCH  19  21
ENDBRANCH   1  18
TORSDOF 2
ENDMDL
