MODEL 1
REMARK VINA RESULT:       1.5      0.000      0.000
REMARK  6 active torsions:
REMARK  status: ('A' for Active; 'I' for Inactive)
REMARK    1  A    between atoms: C_7  and  C_1 
REMARK    2  A    between atoms: C_10  and  C_2 
REMARK    3  A    between atoms: C_9  and  C_5 
REMARK    4  A    between atoms: O_15  and  C_7 
REMARK    5  A    between atoms: N_14  and  C_9 
REMARK    6  A    between atoms: C_21  and  O_15 
ROOT
ATOM      1  C   UNL d   1      32.700  21.275 -22.470  0.00  0.00     0.088 A 
ATOM      2  C   UNL d   1      32.759  22.097 -22.496  0.00  0.00     0.105 A 
ATOM      3  C   UNL d   1      32.860  20.994 -23.215  0.00  0.00     0.034 A 
ATOM      4  O   UNL d   1      32.956  22.294 -23.266  0.00  0.00    -0.307 OA
ATOM      5  C   UNL d   1      32.885  20.223 -23.523  0.00  0.00     0.059 A 
ATOM      6  C   UNL d   1      33.021  21.610 -23.719  0.00  0.00     0.100 A 
ATOM      7  C   UNL d   1      33.062  20.084 -24.300  0.00  0.00     0.197 A 
ATOM      8  C   UNL d   1      33.201  21.492 -24.503  0.00  0.00     0.028 A 
ATOM      9  C   UNL d   1      33.225  20.725 -24.807  0.00  0.00     0.044 A 
ATOM     10  O   UNL d   1      33.086  19.311 -24.606  0.00  0.00    -0.286 OA
ENDROOT
BRANCH   2  11
ATOM     11  C   UNL d   1      32.640  22.610 -21.865  0.00  0.00     0.023 A 
ATOM     12  C   UNL d   1      33.240  22.703 -21.294  0.00  0.00     0.002 A 
ATOM     13  C   UNL d   1      33.131  23.221 -20.650  0.00  0.00     0.000 A 
ATOM     14  C   UNL d   1      32.418  23.637 -20.593  0.00  0.00     0.000 A 
ATOM     15  C   UNL d   1      31.829  23.544 -21.157  0.00  0.00     0.000 A 
ATOM     16  C   UNL d   1      31.940  23.033 -21.790  0.00  0.00     0.002 A 
ENDBRANCH   2  11
BRANCH   1  17
ATOM     17  C   UNL d   1      32.502  21.185 -21.671  0.00  0.00     0.302 C 
ATOM     18  O   UNL d   1      31.745  21.383 -21.411  0.00  0.00    -0.259 OA
BRANCH  17  19
ATOM     19  O   UNL d   1      33.050  20.901 -21.131  0.00  0.00    -0.271 OA
BRANCH  19  20
ATOM     20  C   UNL d   1      32.833  20.375 -20.539  0.00  0.00     0.126 C 
ATOM     21  C   UNL d   1      33.222  20.367 -19.807  0.00  0.00     0.029 C 
ENDBRANCH  19  20
ENDBRANCH  17  19
ENDBRANCH   1  17
BRANCH   5  22
ATOM     22  C   UNL d   1      32.725  19.578 -23.028  0.00  0.00     0.084 C 
BRANCH  22  23
ATOM     23  N   UNL d   1      32.598  18.825 -23.342  0.00  0.00    -0.300 N 
ATOM     24  C   UNL d   1      33.240  18.390 -23.605  0.00  0.00     0.100 C 
ATOM     25  C   UNL d   1      31.849  18.516 -23.392  0.00  0.00     0.100 C 
ENDBRANCH  22  23
ENDBRANCH   5  22
TORSDOF 6
ENDMDL
MODEL 2
REMARK VINA RESULT:       1.5      0.954      2.170
REMARK  6 active torsions:
REMARK  status: ('A' for Active; 'I' for Inactive)
REMARK    1  A    between atoms: C_7  and  C_1 
REMARK    2  A    between atoms: C_10  and  C_2 
REMARK    3  A    between atoms: C_9  and  C_5 
REMARK    4  A    between atoms: O_15  and  C_7 
REMARK    5  A    between atoms: N_14  and  C_9 
REMARK    6  A    between atoms: C_21  and  O_15 
ROOT
ATOM      1  C   UNL d   1      32.796  20.979 -22.305  0.00  0.00     0.088 A 
ATOM      2  C   UNL d   1      32.766  21.173 -21.504  0.00  0.00     0.105 A 
ATOM      3  C   UNL d   1      32.934  20.179 -22.358  0.00  0.00     0.034 A 
ATOM      4  O   UNL d   1      32.889  20.478 -21.089  0.00  0.00    -0.307 OA
ATOM      5  C   UNL d   1      33.018  19.674 -23.011  0.00  0.00     0.059 A 
ATOM      6  C   UNL d   1      32.994  19.855 -21.616  0.00  0.00     0.100 A 
ATOM      7  C   UNL d   1      33.155  18.882 -22.918  0.00  0.00     0.197 A 
ATOM      8  C   UNL d   1      33.131  19.062 -21.500  0.00  0.00     0.028 A 
ATOM      9  C   UNL d   1      33.215  18.561 -22.152  0.00  0.00     0.044 A 
ATOM     10  O   UNL d   1      33.239  18.379 -23.575  0.00  0.00    -0.286 OA
ENDROOT
BRANCH   2  11
ATOM     11  C   UNL d   1      32.638  21.922 -21.194  0.00  0.00     0.023 A 
ATOM     12  C   UNL d   1      31.887  22.118 -20.890  0.00  0.00     0.002 A 
ATOM     13  C   UNL d   1      31.745  22.876 -20.572  0.00  0.00     0.000 A 
ATOM     14  C   UNL d   1      32.365  23.424 -20.567  0.00  0.00     0.000 A 
ATOM     15  C   UNL d   1      33.103  23.230 -20.866  0.00  0.00     0.000 A 
ATOM     16  C   UNL d   1      33.240  22.483 -21.178  0.00  0.00     0.002 A 
ENDBRANCH   2  11
BRANCH   1  17
ATOM     17  C   UNL d   1      32.664  21.730 -22.625  0.00  0.00     0.302 C 
ATOM     18  O   UNL d   1      31.995  22.158 -22.405  0.00  0.00    -0.259 OA
BRANCH  17  19
ATOM     19  O   UNL d   1      33.190  22.058 -23.161  0.00  0.00    -0.271 OA
BRANCH  19  20
ATOM     20  C   UNL d   1      32.941  22.326 -23.896  0.00  0.00     0.126 C 
ATOM     21  C   UNL d   1      33.149  23.080 -24.171  0.00  0.00     0.029 C 
ENDBRANCH  19  20
ENDBRANCH  17  19
ENDBRANCH   1  17
BRANCH   5  22
ATOM     22  C   UNL d   1      32.961  19.982 -23.779  0.00  0.00     0.084 C 
BRANCH  22  23
ATOM     23  N   UNL d   1      32.665  19.523 -24.398  0.00  0.00    -0.300 N 
ATOM     24  C   UNL d   1      33.143  19.375 -25.047  0.00  0.00     0.100 C 
ATOM     25  C   UNL d   1      31.912  19.221 -24.369  0.00  0.00     0.100 C 
ENDBRANCH  22  23
ENDBRANCH   5  22
TORSDOF 6
ENDMDL
MODEL 3
REMARK VINA RESULT:       2.4      1.823      5.035
REMARK  6 active torsions:
REMARK  status: ('A' for Active; 'I' for Inactive)
REMARK    1  A    between atoms: C_7  and  C_1 
REMARK    2  A    between atoms: C_10  and  C_2 
REMARK    3  A    between atoms: C_9  and  C_5 
REMARK    4  A    between atoms: O_15  and  C_7 
REMARK    5  A    between atoms: N_14  and  C_9 
REMARK    6  A    between atoms: C_21  and  O_15 
ROOT
ATOM      1  C   UNL d   1      32.391  18.183 -23.433  0.00  0.00     0.088 A 
ATOM      2  C   UNL d   1      32.480  17.386 -23.240  0.00  0.00     0.105 A 
ATOM      3  C   UNL d   1      32.650  18.619 -22.798  0.00  0.00     0.034 A 
ATOM      4  O   UNL d   1      32.795  17.362 -22.484  0.00  0.00    -0.307 OA
ATOM      5  C   UNL d   1      32.694  19.438 -22.670  0.00  0.00     0.059 A 
ATOM      6  C   UNL d   1      32.904  18.127 -22.204  0.00  0.00     0.100 A 
ATOM      7  C   UNL d   1      32.980  19.743 -21.977  0.00  0.00     0.197 A 
ATOM      8  C   UNL d   1      33.194  18.413 -21.500  0.00  0.00     0.028 A 
ATOM      9  C   UNL d   1      33.237  19.229 -21.375  0.00  0.00     0.044 A 
ATOM     10  O   UNL d   1      33.023  20.564 -21.852  0.00  0.00    -0.286 OA
ENDROOT
BRANCH   2  11
ATOM     11  C   UNL d   1      32.287  16.748 -23.720  0.00  0.00     0.023 A 
ATOM     12  C   UNL d   1      32.813  16.514 -24.321  0.00  0.00     0.002 A 
ATOM     13  C   UNL d   1      32.629  15.868 -24.815  0.00  0.00     0.000 A 
ATOM     14  C   UNL d   1      31.914  15.469 -24.693  0.00  0.00     0.000 A 
ATOM     15  C   UNL d   1      31.397  15.702 -24.099  0.00  0.00     0.000 A 
ATOM     16  C   UNL d   1      31.582  16.338 -23.615  0.00  0.00     0.002 A 
ENDBRANCH   2  11
BRANCH   1  17
ATOM     17  C   UNL d   1      32.075  18.097 -24.192  0.00  0.00     0.302 C 
ATOM     18  O   UNL d   1      32.565  17.877 -24.818  0.00  0.00    -0.259 OA
BRANCH  17  19
ATOM     19  O   UNL d   1      31.278  18.227 -24.335  0.00  0.00    -0.271 OA
BRANCH  19  20
ATOM     20  C   UNL d   1      31.026  18.668 -24.980  0.00  0.00     0.126 C 
ATOM     21  C   UNL d   1      30.225  18.857 -25.086  0.00  0.00     0.029 C 
ENDBRANCH  19  20
ENDBRANCH  17  19
ENDBRANCH   1  17
BRANCH   5  22
ATOM     22  C   UNL d   1      32.441  19.960 -23.263  0.00  0.00     0.084 C 
BRANCH  22  23
ATOM     23  N   UNL d   1      32.820  20.685 -23.377  0.00  0.00    -0.300 N 
ATOM     24  C   UNL d   1      32.766  21.259 -22.794  0.00  0.00     0.100 C 
ATOM     25  C   UNL d   1      33.240  20.832 -24.056  0.00  0.00     0.100 C 
ENDBRANCH  22  23
ENDBRANCH   5  22
TORSDOF 6
ENDMDL
