MODEL 1
REMARK VINA RESULT:      22.5      0.000      0.000
REMARK  3 active torsions:
REMARK  status: ('A' for Active; 'I' for Inactive)
REMARK    1  A    between atoms: C_9  and  C_4 
REMARK       I    between atoms: C_6  and  N_8 
REMARK    2  A    between atoms: C_13  and  C_6 
REMARK    3  A    between atoms: N_8  and  C_16 
ROOT
ATOM      1  C   UNL d   1      45.794 -15.804  44.380  0.00  0.00     0.019 A 
ATOM      2  C   UNL d   1      45.025 -15.531  44.317  0.00  0.00     0.003 A 
ATOM      3  C   UNL d   1      46.395 -15.309  44.631  0.00  0.00     0.003 A 
ATOM      4  C   UNL d   1      45.458 -14.245  44.762  0.00  0.00     0.085 A 
ATOM      5  C   UNL d   1      46.224 -14.524  44.823  0.00  0.00     0.019 A 
ATOM      6  C   UNL d   1      44.855 -14.750  44.508  0.00  0.00     0.019 A 
ENDROOT
BRANCH   1   7
ATOM      7  C   UNL d   1      45.967 -16.594  44.187  0.00  0.00     0.101 A 
ATOM      8  N   UNL d   1      46.073 -16.855  43.423  0.00  0.00    -0.221 NA
ATOM      9  C   UNL d   1      46.235 -17.663  43.446  0.00  0.00     0.179 A 
ATOM     10  N   UNL d   1      46.230 -17.909  44.227  0.00  0.00    -0.282 N 
ATOM     11  S   UNL d   1      46.401 -18.322  42.972  0.00  0.00    -0.048 SA
ATOM     12  C   UNL d   1      46.063 -17.240  44.692  0.00  0.00     0.101 A 
ATOM     13  C   UNL d   1      46.393 -18.718  44.249  0.00  0.00     0.089 A 
ATOM     14  C   UNL d   1      46.498 -18.969  43.468  0.00  0.00     0.057 A 
ENDBRANCH   1   7
BRANCH   4  15
ATOM     15  N   UNL d   1      45.284 -13.455  44.955  0.00  0.00    -0.208 NA
ATOM     16  C   UNL d   1      45.351 -12.857  44.381  0.00  0.00     0.279 C 
ATOM     17  O   UNL d   1      45.182 -12.083  44.565  0.00  0.00    -0.265 OA
BRANCH  16  18
ATOM     18  C   UNL d   1      45.591 -13.059  43.619  0.00  0.00     0.058 A 
ATOM     19  C   UNL d   1      45.153 -12.815  42.962  0.00  0.00     0.005 A 
ATOM     20  C   UNL d   1      45.530 -13.100  42.286  0.00  0.00     0.000 A 
ATOM     21  C   UNL d   1      46.193 -13.517  42.512  0.00  0.00     0.000 A 
ATOM     22  C   UNL d   1      46.238 -13.496  43.341  0.00  0.00     0.005 A 
ENDBRANCH  16  18
ENDBRANCH   4  15
TORSDOF 3
ENDMDL
