MODEL 1
REMARK VINA RESULT:      -9.9      0.000      0.000
REMARK  4 active torsions:
REMARK  status: ('A' for Active; 'I' for Inactive)
REMARK    1  A    between atoms: S_10  and  C_6 
REMARK    2  A    between atoms: C_16  and  S_10 
REMARK    3  A    between atoms: C_11  and  C_16 
REMARK       I    between atoms: N_13  and  C_11 
REMARK    4  A    between atoms: C_14  and  N_13 
ROOT
ATOM      1  C   UNL d   1      53.403  32.834  53.778  0.00  0.00     0.155 A 
ATOM      2  C   UNL d   1      52.788  32.489  53.344  0.00  0.00     0.107 A 
ATOM      3  N   UNL d   1      52.784  34.115  53.631  0.00  0.00    -0.250 N 
ATOM      4  C   UNL d   1      53.402  33.643  53.921  0.00  0.00     0.285 A 
ATOM      5  N   UNL d   1      52.169  32.961  53.053  0.00  0.00    -0.220 NA
ATOM      6  C   UNL d   1      52.176  33.771  53.202  0.00  0.00     0.182 A 
ATOM      7  N   UNL d   1      53.933  32.239  53.992  0.00  0.00    -0.239 NA
ATOM      8  C   UNL d   1      52.932  31.679  53.287  0.00  0.00     0.037 A 
ATOM      9  C   UNL d   1      53.644  31.521  53.690  0.00  0.00     0.083 A 
ATOM     10  O   UNL d   1      54.017  33.998  54.356  0.00  0.00    -0.265 OA
ATOM     11  C   UNL d   1      52.781  34.933  53.774  0.00  0.00     0.104 C 
ATOM     12  C   UNL d   1      52.518  31.065  52.927  0.00  0.00     0.003 A 
ATOM     13  C   UNL d   1      53.937  30.745  53.729  0.00  0.00     0.019 A 
ATOM     14  C   UNL d   1      52.810  30.291  52.966  0.00  0.00     0.000 A 
ATOM     15  C   UNL d   1      53.514  30.134  53.365  0.00  0.00     0.002 A 
ENDROOT
BRANCH   6  16
ATOM     16  S   UNL d   1      51.561  34.244  52.913  0.00  0.00    -0.044 SA
BRANCH  16  17
ATOM     17  C   UNL d   1      50.788  33.954  52.891  0.00  0.00     0.101 C 
BRANCH  17  18
ATOM     18  C   UNL d   1      50.195  34.389  52.518  0.00  0.00     0.286 C 
ATOM     19  N   UNL d   1      49.474  34.490  52.895  0.00  0.00    -0.208 NA
ATOM     20  O   UNL d   1      50.316  34.720  51.777  0.00  0.00    -0.265 OA
BRANCH  19  21
ATOM     21  C   UNL d   1      48.872  34.926  52.524  0.00  0.00     0.085 A 
ATOM     22  C   UNL d   1      48.564  35.584  52.895  0.00  0.00     0.019 A 
ATOM     23  C   UNL d   1      47.963  36.021  52.524  0.00  0.00     0.002 A 
ATOM     24  C   UNL d   1      47.638  36.700  52.896  0.00  0.00     0.000 C 
ATOM     25  C   UNL d   1      47.682  35.790  51.788  0.00  0.00     0.000 A 
ATOM     26  C   UNL d   1      47.997  35.120  51.414  0.00  0.00     0.002 A 
ATOM     27  C   UNL d   1      48.591  34.694  51.787  0.00  0.00     0.019 A 
ENDBRANCH  19  21
ENDBRANCH  17  18
ENDBRANCH  16  17
ENDBRANCH   6  16
TORSDOF 4
ENDMDL
MODEL 2
REMARK VINA RESULT:      -8.8      1.322      5.875
REMARK  4 active torsions:
REMARK  status: ('A' for Active; 'I' for Inactive)
REMARK    1  A    between atoms: S_10  and  C_6 
REMARK    2  A    between atoms: C_16  and  S_10 
REMARK    3  A    between atoms: C_11  and  C_16 
REMARK       I    between atoms: N_13  and  C_11 
REMARK    4  A    between atoms: C_14  and  N_13 
ROOT
ATOM      1  C   UNL d   1      48.078  35.276  52.013  0.00  0.00     0.155 A 
ATOM      2  C   UNL d   1      48.514  35.409  52.704  0.00  0.00     0.107 A 
ATOM      3  N   UNL d   1      49.180  34.550  51.460  0.00  0.00    -0.250 N 
ATOM      4  C   UNL d   1      48.409  34.848  51.394  0.00  0.00     0.285 A 
ATOM      5  N   UNL d   1      49.287  35.109  52.771  0.00  0.00    -0.220 NA
ATOM      6  C   UNL d   1      49.610  34.683  52.146  0.00  0.00     0.182 A 
ATOM      7  N   UNL d   1      47.340  35.632  52.102  0.00  0.00    -0.239 NA
ATOM      8  C   UNL d   1      48.050  35.847  53.225  0.00  0.00     0.037 A 
ATOM      9  C   UNL d   1      47.318  35.988  52.852  0.00  0.00     0.083 A 
ATOM     10  O   UNL d   1      47.977  34.711  50.696  0.00  0.00    -0.265 OA
ATOM     11  C   UNL d   1      49.516  34.118  50.836  0.00  0.00     0.104 C 
ATOM     12  C   UNL d   1      48.188  36.138  53.983  0.00  0.00     0.003 A 
ATOM     13  C   UNL d   1      46.728  36.421  53.244  0.00  0.00     0.019 A 
ATOM     14  C   UNL d   1      47.600  36.570  54.374  0.00  0.00     0.000 A 
ATOM     15  C   UNL d   1      46.875  36.709  54.006  0.00  0.00     0.002 A 
ENDROOT
BRANCH   6  16
ATOM     16  S   UNL d   1      50.379  34.384  52.210  0.00  0.00    -0.044 SA
BRANCH  16  17
ATOM     17  C   UNL d   1      50.687  34.179  52.948  0.00  0.00     0.101 C 
BRANCH  17  18
ATOM     18  C   UNL d   1      51.477  33.956  53.020  0.00  0.00     0.286 C 
ATOM     19  N   UNL d   1      51.699  33.452  53.627  0.00  0.00    -0.208 NA
ATOM     20  O   UNL d   1      52.042  34.230  52.493  0.00  0.00    -0.265 OA
BRANCH  19  21
ATOM     21  C   UNL d   1      52.494  33.224  53.704  0.00  0.00     0.085 A 
ATOM     22  C   UNL d   1      52.962  33.577  54.271  0.00  0.00     0.019 A 
ATOM     23  C   UNL d   1      53.756  33.350  54.348  0.00  0.00     0.002 A 
ATOM     24  C   UNL d   1      54.249  33.706  54.929  0.00  0.00     0.000 C 
ATOM     25  C   UNL d   1      54.068  32.772  53.854  0.00  0.00     0.000 A 
ATOM     26  C   UNL d   1      53.589  32.415  53.278  0.00  0.00     0.002 A 
ATOM     27  C   UNL d   1      52.805  32.646  53.210  0.00  0.00     0.019 A 
ENDBRANCH  19  21
ENDBRANCH  17  18
ENDBRANCH  16  17
ENDBRANCH   6  16
TORSDOF 4
ENDMDL
MODEL 3
REMARK VINA RESULT:      -8.4      1.099      2.106
REMARK  4 active torsions:
REMARK  status: ('A' for Active; 'I' for Inactive)
REMARK    1  A    between atoms: S_10  and  C_6 
REMARK    2  A    between atoms: C_16  and  S_10 
REMARK    3  A    between atoms: C_11  and  C_16 
REMARK       I    between atoms: N_13  and  C_11 
REMARK    4  A    between atoms: C_14  and  N_13 
ROOT
ATOM      1  C   UNL d   1      53.531  32.479  53.883  0.00  0.00     0.155 A 
ATOM      2  C   UNL d   1      53.301  33.268  53.985  0.00  0.00     0.107 A 
ATOM      3  N   UNL d   1      52.396  32.258  53.042  0.00  0.00    -0.250 N 
ATOM      4  C   UNL d   1      53.081  31.976  53.414  0.00  0.00     0.285 A 
ATOM      5  N   UNL d   1      52.614  33.551  53.612  0.00  0.00    -0.220 NA
ATOM      6  C   UNL d   1      52.170  33.040  53.145  0.00  0.00     0.182 A 
ATOM      7  N   UNL d   1      54.225  32.356  54.312  0.00  0.00    -0.239 NA
ATOM      8  C   UNL d   1      53.848  33.638  54.477  0.00  0.00     0.037 A 
ATOM      9  C   UNL d   1      54.425  33.072  54.682  0.00  0.00     0.083 A 
ATOM     10  O   UNL d   1      53.306  31.182  53.307  0.00  0.00    -0.265 OA
ATOM     11  C   UNL d   1      51.939  31.752  52.568  0.00  0.00     0.104 C 
ATOM     12  C   UNL d   1      53.906  34.406  54.767  0.00  0.00     0.003 A 
ATOM     13  C   UNL d   1      55.057  33.282  55.178  0.00  0.00     0.019 A 
ATOM     14  C   UNL d   1      54.536  34.617  55.262  0.00  0.00     0.000 A 
ATOM     15  C   UNL d   1      55.106  34.057  55.465  0.00  0.00     0.002 A 
ENDROOT
BRANCH   6  16
ATOM     16  S   UNL d   1      51.485  33.319  52.772  0.00  0.00    -0.044 SA
BRANCH  16  17
ATOM     17  C   UNL d   1      51.129  34.020  53.026  0.00  0.00     0.101 C 
BRANCH  17  18
ATOM     18  C   UNL d   1      50.503  34.344  52.598  0.00  0.00     0.286 C 
ATOM     19  N   UNL d   1      49.804  34.526  52.985  0.00  0.00    -0.208 NA
ATOM     20  O   UNL d   1      50.570  34.485  51.793  0.00  0.00    -0.265 OA
BRANCH  19  21
ATOM     21  C   UNL d   1      49.170  34.853  52.558  0.00  0.00     0.085 A 
ATOM     22  C   UNL d   1      48.739  35.465  52.882  0.00  0.00     0.019 A 
ATOM     23  C   UNL d   1      48.106  35.791  52.457  0.00  0.00     0.002 A 
ATOM     24  C   UNL d   1      47.654  36.422  52.779  0.00  0.00     0.000 C 
ATOM     25  C   UNL d   1      47.916  35.498  51.713  0.00  0.00     0.000 A 
ATOM     26  C   UNL d   1      48.356  34.876  51.386  0.00  0.00     0.002 A 
ATOM     27  C   UNL d   1      48.980  34.559  51.814  0.00  0.00     0.019 A 
ENDBRANCH  19  21
ENDBRANCH  17  18
ENDBRANCH  16  17
ENDBRANCH   6  16
TORSDOF 4
ENDMDL
