MODEL 1
REMARK VINA RESULT:      -8.4      0.000      0.000
REMARK  5 active torsions:
REMARK  status: ('A' for Active; 'I' for Inactive)
REMARK    1  A    between atoms: C_6  and  C_1 
REMARK    2  A    between atoms: C_7  and  C_4 
REMARK    3  A    between atoms: O_14  and  C_6 
REMARK    4  A    between atoms: O_15  and  C_9 
REMARK    5  A    between atoms: O_16  and  C_10 
ROOT
ATOM      1  C   UNL d   1      52.757  32.839  53.258  0.00  0.00     0.027 A 
ATOM      2  C   UNL d   1      52.100  33.289  53.030  0.00  0.00     0.028 A 
ATOM      3  C   UNL d   1      52.056  34.085  53.226  0.00  0.00     0.116 A 
ATOM      4  C   UNL d   1      52.669  34.441  53.653  0.00  0.00     0.116 A 
ATOM      5  C   UNL d   1      53.370  33.195  53.685  0.00  0.00     0.004 A 
ATOM      6  C   UNL d   1      53.322  33.999  53.881  0.00  0.00     0.026 A 
ENDROOT
BRANCH   1   7
ATOM      7  C   UNL d   1      52.803  32.040  53.061  0.00  0.00     0.127 A 
ATOM      8  C   UNL d   1      52.838  31.417  53.597  0.00  0.00     0.054 A 
ATOM      9  C   UNL d   1      52.879  30.713  53.164  0.00  0.00     0.173 A 
ATOM     10  N   UNL d   1      52.868  30.909  52.363  0.00  0.00    -0.121 NA
ATOM     11  O   UNL d   1      52.820  31.731  52.306  0.00  0.00    -0.211 OA
BRANCH   9  12
ATOM     12  C   UNL d   1      52.922  29.956  53.474  0.00  0.00     0.316 C 
ATOM     13  O   UNL d   1      52.468  29.346  53.145  0.00  0.00    -0.257 OA
BRANCH  12  14
ATOM     14  O   UNL d   1      53.418  29.799  54.113  0.00  0.00    -0.294 OA
ATOM     15  C   UNL d   1      53.421  29.052  54.451  0.00  0.00     0.185 C 
ENDBRANCH  12  14
ENDBRANCH   9  12
ENDBRANCH   1   7
BRANCH   3  16
ATOM     16  O   UNL d   1      51.403  34.528  52.998  0.00  0.00    -0.326 OA
ATOM     17  C   UNL d   1      50.725  34.151  52.728  0.00  0.00     0.181 C 
ENDBRANCH   3  16
BRANCH   4  18
ATOM     18  O   UNL d   1      52.622  35.236  53.847  0.00  0.00    -0.326 OA
ATOM     19  C   UNL d   1      53.154  35.557  54.388  0.00  0.00     0.181 C 
ENDBRANCH   4  18
TORSDOF 5
ENDMDL
MODEL 2
REMARK VINA RESULT:      -7.5      1.619      3.848
REMARK  5 active torsions:
REMARK  status: ('A' for Active; 'I' for Inactive)
REMARK    1  A    between atoms: C_6  and  C_1 
REMARK    2  A    between atoms: C_7  and  C_4 
REMARK    3  A    between atoms: O_14  and  C_6 
REMARK    4  A    between atoms: O_15  and  C_9 
REMARK    5  A    between atoms: O_16  and  C_10 
ROOT
ATOM      1  C   UNL d   1      52.542  33.577  53.329  0.00  0.00     0.027 A 
ATOM      2  C   UNL d   1      52.806  32.792  53.307  0.00  0.00     0.028 A 
ATOM      3  C   UNL d   1      53.416  32.548  53.800  0.00  0.00     0.116 A 
ATOM      4  C   UNL d   1      53.768  33.086  54.322  0.00  0.00     0.116 A 
ATOM      5  C   UNL d   1      52.894  34.115  53.850  0.00  0.00     0.004 A 
ATOM      6  C   UNL d   1      53.509  33.865  54.346  0.00  0.00     0.026 A 
ENDROOT
BRANCH   1   7
ATOM      7  C   UNL d   1      51.930  33.824  52.834  0.00  0.00     0.127 A 
ATOM      8  C   UNL d   1      51.177  34.045  53.079  0.00  0.00     0.054 A 
ATOM      9  C   UNL d   1      50.743  34.252  52.406  0.00  0.00     0.173 A 
ATOM     10  N   UNL d   1      51.234  34.157  51.750  0.00  0.00    -0.121 NA
ATOM     11  O   UNL d   1      51.967  33.892  52.022  0.00  0.00    -0.211 OA
BRANCH   9  12
ATOM     12  C   UNL d   1      49.964  34.506  52.391  0.00  0.00     0.316 C 
ATOM     13  O   UNL d   1      49.626  34.850  53.065  0.00  0.00    -0.257 OA
BRANCH  12  14
ATOM     14  O   UNL d   1      49.514  34.421  51.706  0.00  0.00    -0.294 OA
ATOM     15  C   UNL d   1      48.757  34.734  51.676  0.00  0.00     0.185 C 
ENDBRANCH  12  14
ENDBRANCH   9  12
ENDBRANCH   1   7
BRANCH   3  16
ATOM     16  O   UNL d   1      53.675  31.769  53.776  0.00  0.00    -0.326 OA
ATOM     17  C   UNL d   1      53.246  31.207  53.359  0.00  0.00     0.181 C 
ENDBRANCH   3  16
BRANCH   4  18
ATOM     18  O   UNL d   1      54.376  32.839  54.812  0.00  0.00    -0.326 OA
ATOM     19  C   UNL d   1      54.777  33.389  55.275  0.00  0.00     0.181 C 
ENDBRANCH   4  18
TORSDOF 5
ENDMDL
MODEL 3
REMARK VINA RESULT:      -6.1      1.542      4.412
REMARK  5 active torsions:
REMARK  status: ('A' for Active; 'I' for Inactive)
REMARK    1  A    between atoms: C_6  and  C_1 
REMARK    2  A    between atoms: C_7  and  C_4 
REMARK    3  A    between atoms: O_14  and  C_6 
REMARK    4  A    between atoms: O_15  and  C_9 
REMARK    5  A    between atoms: O_16  and  C_10 
ROOT
ATOM      1  C   UNL d   1      53.481  31.439  53.712  0.00  0.00     0.027 A 
ATOM      2  C   UNL d   1      53.637  30.786  54.196  0.00  0.00     0.028 A 
ATOM      3  C   UNL d   1      53.341  30.045  53.998  0.00  0.00     0.116 A 
ATOM      4  C   UNL d   1      52.887  29.950  53.312  0.00  0.00     0.116 A 
ATOM      5  C   UNL d   1      53.026  31.344  53.026  0.00  0.00     0.004 A 
ATOM      6  C   UNL d   1      52.730  30.596  52.830  0.00  0.00     0.026 A 
ENDROOT
BRANCH   1   7
ATOM      7  C   UNL d   1      53.777  32.184  53.909  0.00  0.00     0.127 A 
ATOM      8  C   UNL d   1      53.331  32.820  54.176  0.00  0.00     0.054 A 
ATOM      9  C   UNL d   1      53.846  33.454  54.306  0.00  0.00     0.173 A 
ATOM     10  N   UNL d   1      54.608  33.201  54.118  0.00  0.00    -0.121 NA
ATOM     11  O   UNL d   1      54.558  32.414  53.873  0.00  0.00    -0.211 OA
BRANCH   9  12
ATOM     12  C   UNL d   1      53.639  34.200  54.575  0.00  0.00     0.316 C 
ATOM     13  O   UNL d   1      53.882  34.454  55.325  0.00  0.00    -0.257 OA
BRANCH  12  14
ATOM     14  O   UNL d   1      53.187  34.699  54.100  0.00  0.00    -0.294 OA
ATOM     15  C   UNL d   1      53.004  35.453  54.363  0.00  0.00     0.185 C 
ENDBRANCH  12  14
ENDBRANCH   9  12
ENDBRANCH   1   7
BRANCH   3  16
ATOM     16  O   UNL d   1      53.498  29.399  54.480  0.00  0.00    -0.326 OA
ATOM     17  C   UNL d   1      53.313  29.431  55.280  0.00  0.00     0.181 C 
ENDBRANCH   3  16
BRANCH   4  18
ATOM     18  O   UNL d   1      52.593  29.210  53.118  0.00  0.00    -0.326 OA
ATOM     19  C   UNL d   1      52.309  29.070  52.358  0.00  0.00     0.181 C 
ENDBRANCH   4  18
TORSDOF 5
ENDMDL
MODEL 4
REMARK VINA RESULT:      -5.9      2.045      3.319
REMARK  5 active torsions:
REMARK  status: ('A' for Active; 'I' for Inactive)
REMARK    1  A    between atoms: C_6  and  C_1 
REMARK    2  A    between atoms: C_7  and  C_4 
REMARK    3  A    between atoms: O_14  and  C_6 
REMARK    4  A    between atoms: O_15  and  C_9 
REMARK    5  A    between atoms: O_16  and  C_10 
ROOT
ATOM      1  C   UNL d   1      51.067  34.301  52.647  0.00  0.00     0.027 A 
ATOM      2  C   UNL d   1      50.410  34.583  53.065  0.00  0.00     0.028 A 
ATOM      3  C   UNL d   1      49.687  34.676  52.686  0.00  0.00     0.116 A 
ATOM      4  C   UNL d   1      49.613  34.487  51.883  0.00  0.00     0.116 A 
ATOM      5  C   UNL d   1      50.993  34.112  51.845  0.00  0.00     0.004 A 
ATOM      6  C   UNL d   1      50.263  34.207  51.466  0.00  0.00     0.026 A 
ENDROOT
BRANCH   1   7
ATOM      7  C   UNL d   1      51.793  34.207  53.027  0.00  0.00     0.127 A 
ATOM      8  C   UNL d   1      52.106  33.494  53.292  0.00  0.00     0.054 A 
ATOM      9  C   UNL d   1      52.840  33.653  53.637  0.00  0.00     0.173 A 
ATOM     10  N   UNL d   1      52.975  34.464  53.580  0.00  0.00    -0.121 NA
ATOM     11  O   UNL d   1      52.323  34.801  53.202  0.00  0.00    -0.211 OA
BRANCH   9  12
ATOM     12  C   UNL d   1      53.346  33.103  53.975  0.00  0.00     0.316 C 
ATOM     13  O   UNL d   1      53.597  32.445  53.538  0.00  0.00    -0.257 OA
BRANCH  12  14
ATOM     14  O   UNL d   1      53.606  33.203  54.750  0.00  0.00    -0.294 OA
ATOM     15  C   UNL d   1      54.068  32.624  55.101  0.00  0.00     0.185 C 
ENDBRANCH  12  14
ENDBRANCH   9  12
ENDBRANCH   1   7
BRANCH   3  16
ATOM     16  O   UNL d   1      49.038  34.956  53.104  0.00  0.00    -0.326 OA
ATOM     17  C   UNL d   1      49.105  35.638  53.556  0.00  0.00     0.181 C 
ENDBRANCH   3  16
BRANCH   4  18
ATOM     18  O   UNL d   1      48.891  34.581  51.508  0.00  0.00    -0.326 OA
ATOM     19  C   UNL d   1      48.844  34.512  50.689  0.00  0.00     0.181 C 
ENDBRANCH   4  18
TORSDOF 5
ENDMDL
