MODEL 1
REMARK VINA RESULT:      -2.9      0.000      0.000
REMARK  5 active torsions:
REMARK  status: ('A' for Active; 'I' for Inactive)
REMARK    1  A    between atoms: C_9  and  C_5 
REMARK    2  A    between atoms: N_14  and  C_6 
REMARK    3  A    between atoms: N_11  and  C_9 
REMARK    4  A    between atoms: C_15  and  N_11 
REMARK    5  A    between atoms: C_16  and  C_15 
ROOT
ATOM      1  N   UNL d   1      33.223  20.648 -21.687  0.00  0.00    -0.258 N 
ATOM      2  N   UNL d   1      33.226  21.368 -22.863  0.00  0.00    -0.209 NA
ATOM      3  C   UNL d   1      33.221  21.350 -22.056  0.00  0.00     0.152 A 
ATOM      4  C   UNL d   1      33.229  19.934 -22.088  0.00  0.00     0.270 A 
ATOM      5  C   UNL d   1      33.234  19.953 -22.932  0.00  0.00     0.111 A 
ATOM      6  C   UNL d   1      33.233  20.684 -23.282  0.00  0.00     0.170 A 
ATOM      7  C   UNL d   1      33.215  22.063 -21.618  0.00  0.00     0.035 A 
ATOM      8  C   UNL d   1      33.217  20.629 -20.825  0.00  0.00     0.084 A 
ATOM      9  O   UNL d   1      33.231  19.203 -21.719  0.00  0.00    -0.266 OA
ATOM     10  C   UNL d   1      33.211  21.313 -20.424  0.00  0.00     0.019 A 
ATOM     11  C   UNL d   1      33.210  22.044 -20.787  0.00  0.00     0.005 A 
ATOM     12  C   UNL d   1      33.213  22.795 -21.999  0.00  0.00     0.003 C 
ENDROOT
BRANCH   5  13
ATOM     13  C   UNL d   1      33.241  19.241 -23.381  0.00  0.00     0.107 C 
BRANCH  13  14
ATOM     14  N   UNL d   1      32.551  18.784 -23.469  0.00  0.00    -0.242 NA
BRANCH  14  15
ATOM     15  C   UNL d   1      32.581  18.092 -23.922  0.00  0.00     0.099 C 
BRANCH  15  16
ATOM     16  C   UNL d   1      31.905  17.661 -24.055  0.00  0.00     0.019 A 
ATOM     17  C   UNL d   1      31.342  17.921 -24.592  0.00  0.00     0.002 A 
ATOM     18  C   UNL d   1      30.660  17.499 -24.734  0.00  0.00     0.000 A 
ATOM     19  C   UNL d   1      30.537  16.787 -24.323  0.00  0.00     0.000 A 
ATOM     20  C   UNL d   1      31.112  16.522 -23.774  0.00  0.00     0.000 A 
ATOM     21  C   UNL d   1      31.781  16.950 -23.644  0.00  0.00     0.002 A 
ENDBRANCH  15  16
ENDBRANCH  14  15
ENDBRANCH  13  14
ENDBRANCH   5  13
BRANCH   6  22
ATOM     22  N   UNL d   1      33.238  20.703 -24.125  0.00  0.00    -0.223 NA
ATOM     23  C   UNL d   1      33.240  21.435 -24.513  0.00  0.00     0.121 C 
ENDBRANCH   6  22
TORSDOF 5
ENDMDL
