MODEL 1
REMARK VINA RESULT:      -2.8      0.000      0.000
REMARK  6 active torsions:
REMARK  status: ('A' for Active; 'I' for Inactive)
REMARK    1  A    between atoms: N_5  and  C_1 
REMARK       I    between atoms: C_11  and  N_5 
REMARK    2  A    between atoms: C_22  and  C_7 
REMARK    3  A    between atoms: C_8  and  C_10 
REMARK    4  A    between atoms: C_20  and  C_11 
REMARK    5  A    between atoms: C_13  and  S_15 
REMARK    6  A    between atoms: S_15  and  C_20 
ROOT
ATOM      1  S   UNL d   1      33.222  19.282 -22.314  0.00  0.00    -0.061 SA
ENDROOT
BRANCH   1   2
ATOM      2  C   UNL d   1      33.174  20.057 -22.037  0.00  0.00     0.133 A 
ATOM      3  N   UNL d   1      33.241  20.687 -22.551  0.00  0.00    -0.141 NA
ATOM      4  N   UNL d   1      33.194  21.456 -22.281  0.00  0.00    -0.147 NA
ATOM      5  C   UNL d   1      33.079  21.597 -21.478  0.00  0.00     0.109 A 
ATOM      6  C   UNL d   1      33.011  20.965 -20.952  0.00  0.00     0.024 A 
ATOM      7  C   UNL d   1      33.058  20.203 -21.228  0.00  0.00     0.029 A 
BRANCH   5   8
ATOM      8  C   UNL d   1      33.031  22.368 -21.199  0.00  0.00     0.049 A 
ATOM      9  S   UNL d   1      32.836  23.036 -21.636  0.00  0.00    -0.085 SA
ATOM     10  C   UNL d   1      32.853  23.694 -21.142  0.00  0.00     0.035 A 
ATOM     11  C   UNL d   1      33.065  23.428 -20.380  0.00  0.00     0.007 A 
ATOM     12  C   UNL d   1      33.175  22.611 -20.414  0.00  0.00     0.009 A 
ENDBRANCH   5   8
ENDBRANCH   1   2
BRANCH   1  13
ATOM     13  C   UNL d   1      33.014  19.105 -23.086  0.00  0.00     0.099 C 
BRANCH  13  14
ATOM     14  C   UNL d   1      32.830  18.327 -23.290  0.00  0.00     0.288 C 
ATOM     15  N   UNL d   1      32.309  18.179 -23.908  0.00  0.00    -0.181 NA
ATOM     16  O   UNL d   1      33.165  17.702 -22.879  0.00  0.00    -0.265 OA
BRANCH  15  17
ATOM     17  C   UNL d   1      32.125  17.411 -24.113  0.00  0.00     0.219 A 
ATOM     18  S   UNL d   1      31.374  17.066 -24.084  0.00  0.00    -0.026 SA
ATOM     19  C   UNL d   1      31.443  16.294 -24.336  0.00  0.00     0.135 A 
ATOM     20  N   UNL d   1      32.231  16.155 -24.522  0.00  0.00    -0.139 NA
ATOM     21  N   UNL d   1      32.646  16.843 -24.383  0.00  0.00    -0.121 NA
BRANCH  19  22
ATOM     22  C   UNL d   1      30.829  15.746 -24.395  0.00  0.00     0.028 C 
ATOM     23  C   UNL d   1      30.470  15.454 -23.721  0.00  0.00     0.002 C 
ENDBRANCH  19  22
ENDBRANCH  15  17
ENDBRANCH  13  14
ENDBRANCH   1  13
TORSDOF 6
ENDMDL
MODEL 2
REMARK VINA RESULT:      -2.0      0.973      1.161
REMARK  6 active torsions:
REMARK  status: ('A' for Active; 'I' for Inactive)
REMARK    1  A    between atoms: N_5  and  C_1 
REMARK       I    between atoms: C_11  and  N_5 
REMARK    2  A    between atoms: C_22  and  C_7 
REMARK    3  A    between atoms: C_8  and  C_10 
REMARK    4  A    between atoms: C_20  and  C_11 
REMARK    5  A    between atoms: C_13  and  S_15 
REMARK    6  A    between atoms: S_15  and  C_20 
ROOT
ATOM      1  S   UNL d   1      33.241  19.018 -23.049  0.00  0.00    -0.061 SA
ENDROOT
BRANCH   1   2
ATOM      2  C   UNL d   1      33.135  19.691 -22.584  0.00  0.00     0.133 A 
ATOM      3  N   UNL d   1      33.057  19.629 -21.774  0.00  0.00    -0.141 NA
ATOM      4  N   UNL d   1      32.952  20.292 -21.311  0.00  0.00    -0.147 NA
ATOM      5  C   UNL d   1      32.923  21.035 -21.666  0.00  0.00     0.109 A 
ATOM      6  C   UNL d   1      33.000  21.106 -22.484  0.00  0.00     0.024 A 
ATOM      7  C   UNL d   1      33.105  20.442 -22.939  0.00  0.00     0.029 A 
BRANCH   5   8
ATOM      8  C   UNL d   1      32.817  21.707 -21.205  0.00  0.00     0.049 A 
ATOM      9  S   UNL d   1      32.451  21.744 -20.471  0.00  0.00    -0.085 SA
ATOM     10  C   UNL d   1      32.464  22.523 -20.205  0.00  0.00     0.035 A 
ATOM     11  C   UNL d   1      32.848  22.979 -20.788  0.00  0.00     0.007 A 
ATOM     12  C   UNL d   1      33.066  22.477 -21.406  0.00  0.00     0.009 A 
ENDBRANCH   5   8
ENDBRANCH   1   2
BRANCH   1  13
ATOM     13  C   UNL d   1      32.897  18.308 -22.833  0.00  0.00     0.099 C 
BRANCH  13  14
ATOM     14  C   UNL d   1      32.563  17.824 -23.412  0.00  0.00     0.288 C 
ATOM     15  N   UNL d   1      31.958  17.305 -23.213  0.00  0.00    -0.181 NA
ATOM     16  O   UNL d   1      32.832  17.860 -24.185  0.00  0.00    -0.265 OA
BRANCH  15  17
ATOM     17  C   UNL d   1      31.625  16.825 -23.783  0.00  0.00     0.219 A 
ATOM     18  S   UNL d   1      30.864  16.900 -24.097  0.00  0.00    -0.026 SA
ATOM     19  C   UNL d   1      30.762  16.307 -24.648  0.00  0.00     0.135 A 
ATOM     20  N   UNL d   1      31.453  15.865 -24.679  0.00  0.00    -0.139 NA
ATOM     21  N   UNL d   1      31.980  16.187 -24.146  0.00  0.00    -0.121 NA
BRANCH  19  22
ATOM     22  C   UNL d   1      30.082  16.175 -25.097  0.00  0.00     0.028 C 
ATOM     23  C   UNL d   1      29.396  16.591 -24.941  0.00  0.00     0.002 C 
ENDBRANCH  19  22
ENDBRANCH  15  17
ENDBRANCH  13  14
ENDBRANCH   1  13
TORSDOF 6
ENDMDL
