MODEL 1
REMARK VINA RESULT:      -3.3      0.000      0.000
REMARK  4 active torsions:
REMARK  status: ('A' for Active; 'I' for Inactive)
REMARK    1  A    between atoms: C_3  and  N_1 
REMARK    2  A    between atoms: C_6  and  C_3 
REMARK    3  A    between atoms: C_9  and  C_3 
REMARK    4  A    between atoms: N_5  and  C_6 
ROOT
ATOM      1  C   UNL d   1      58.423   0.052  30.322  0.00  0.00     0.106 C 
ENDROOT
BRANCH   1   2
ATOM      2  N   UNL d   1      58.512  -0.534  29.733  0.00  0.00    -0.228 N 
ATOM      3  N   UNL d   1      58.718  -1.337  29.771  0.00  0.00    -0.165 NA
ATOM      4  C   UNL d   1      58.713  -1.617  29.008  0.00  0.00     0.103 A 
ATOM      5  C   UNL d   1      58.889  -2.408  28.776  0.00  0.00     0.022 C 
ATOM      6  C   UNL d   1      58.514  -1.023  28.502  0.00  0.00     0.040 A 
ATOM      7  C   UNL d   1      58.386  -0.341  28.941  0.00  0.00     0.085 A 
ATOM      8  C   UNL d   1      58.168   0.410  28.651  0.00  0.00     0.021 C 
ENDBRANCH   1   2
BRANCH   1   9
ATOM      9  C   UNL d   1      58.955   0.682  30.357  0.00  0.00     0.167 C 
BRANCH   9  10
ATOM     10  N   UNL d   1      59.652   0.617  30.795  0.00  0.00    -0.111 N 
ATOM     11  O   UNL d   1      59.636   0.681  31.618  0.00  0.00    -0.532 OA
ATOM     12  O   UNL d   1      60.378   0.486  30.403  0.00  0.00    -0.532 OA
ENDBRANCH   9  10
ENDBRANCH   1   9
BRANCH   1  13
ATOM     13  C   UNL d   1      57.781  -0.001  30.888  0.00  0.00     0.019 A 
ATOM     14  C   UNL d   1      57.330   0.661  31.061  0.00  0.00     0.002 A 
ATOM     15  C   UNL d   1      56.714   0.604  31.607  0.00  0.00     0.000 A 
ATOM     16  C   UNL d   1      56.548  -0.113  31.980  0.00  0.00     0.000 A 
ATOM     17  C   UNL d   1      57.000  -0.774  31.807  0.00  0.00     0.000 A 
ATOM     18  C   UNL d   1      55.914  -0.165  32.540  0.00  0.00     0.000 C 
ATOM     19  C   UNL d   1      57.616  -0.717  31.261  0.00  0.00     0.002 A 
ENDBRANCH   1  13
TORSDOF 4
ENDMDL
MODEL 2
REMARK VINA RESULT:      -2.7      0.968      1.418
REMARK  4 active torsions:
REMARK  status: ('A' for Active; 'I' for Inactive)
REMARK    1  A    between atoms: C_3  and  N_1 
REMARK    2  A    between atoms: C_6  and  C_3 
REMARK    3  A    between atoms: C_9  and  C_3 
REMARK    4  A    between atoms: N_5  and  C_6 
ROOT
ATOM      1  C   UNL d   1      57.642  -0.005  31.413  0.00  0.00     0.106 C 
ENDROOT
BRANCH   1   2
ATOM      2  N   UNL d   1      57.864  -0.459  30.747  0.00  0.00    -0.228 N 
ATOM      3  N   UNL d   1      58.098  -1.251  30.664  0.00  0.00    -0.165 NA
ATOM      4  C   UNL d   1      58.243  -1.370  29.874  0.00  0.00     0.103 A 
ATOM      5  C   UNL d   1      58.496  -2.097  29.527  0.00  0.00     0.022 C 
ATOM      6  C   UNL d   1      58.110  -0.689  29.466  0.00  0.00     0.040 A 
ATOM      7  C   UNL d   1      57.873  -0.111  29.999  0.00  0.00     0.085 A 
ATOM      8  C   UNL d   1      57.675   0.681  29.827  0.00  0.00     0.021 C 
ENDBRANCH   1   2
BRANCH   1   9
ATOM      9  C   UNL d   1      58.060   0.682  31.598  0.00  0.00     0.167 C 
BRANCH   9  10
ATOM     10  N   UNL d   1      58.697   0.655  32.123  0.00  0.00    -0.111 N 
ATOM     11  O   UNL d   1      59.471   0.621  31.838  0.00  0.00    -0.532 OA
ATOM     12  O   UNL d   1      58.558   0.661  32.947  0.00  0.00    -0.532 OA
ENDBRANCH   9  10
ENDBRANCH   1   9
BRANCH   1  13
ATOM     13  C   UNL d   1      56.982  -0.252  31.902  0.00  0.00     0.019 A 
ATOM     14  C   UNL d   1      56.405   0.288  32.117  0.00  0.00     0.002 A 
ATOM     15  C   UNL d   1      55.773   0.045  32.588  0.00  0.00     0.000 A 
ATOM     16  C   UNL d   1      55.716  -0.737  32.843  0.00  0.00     0.000 A 
ATOM     17  C   UNL d   1      56.293  -1.277  32.628  0.00  0.00     0.000 A 
ATOM     18  C   UNL d   1      55.063  -0.981  33.327  0.00  0.00     0.000 C 
ATOM     19  C   UNL d   1      56.925  -1.034  32.157  0.00  0.00     0.002 A 
ENDBRANCH   1  13
TORSDOF 4
ENDMDL
MODEL 3
REMARK VINA RESULT:      -2.6      1.060      3.121
REMARK  4 active torsions:
REMARK  status: ('A' for Active; 'I' for Inactive)
REMARK    1  A    between atoms: C_3  and  N_1 
REMARK    2  A    between atoms: C_6  and  C_3 
REMARK    3  A    between atoms: C_9  and  C_3 
REMARK    4  A    between atoms: N_5  and  C_6 
ROOT
ATOM      1  C   UNL d   1      59.141  -0.305  29.292  0.00  0.00     0.106 C 
ENDROOT
BRANCH   1   2
ATOM      2  N   UNL d   1      58.578  -0.020  29.841  0.00  0.00    -0.228 N 
ATOM      3  N   UNL d   1      58.503  -0.114  30.662  0.00  0.00    -0.165 NA
ATOM      4  C   UNL d   1      57.838   0.298  30.884  0.00  0.00     0.103 A 
ATOM      5  C   UNL d   1      57.541   0.360  31.671  0.00  0.00     0.022 C 
ATOM      6  C   UNL d   1      57.502   0.640  30.238  0.00  0.00     0.040 A 
ATOM      7  C   UNL d   1      57.953   0.450  29.579  0.00  0.00     0.085 A 
ATOM      8  C   UNL d   1      57.815   0.682  28.790  0.00  0.00     0.021 C 
ENDBRANCH   1   2
BRANCH   1   9
ATOM      9  C   UNL d   1      59.602   0.228  28.863  0.00  0.00     0.167 C 
BRANCH   9  10
ATOM     10  N   UNL d   1      60.390   0.362  29.071  0.00  0.00    -0.111 N 
ATOM     11  O   UNL d   1      60.592   0.542  29.850  0.00  0.00    -0.532 OA
ATOM     12  O   UNL d   1      60.986   0.314  28.487  0.00  0.00    -0.532 OA
ENDBRANCH   9  10
ENDBRANCH   1   9
BRANCH   1  13
ATOM     13  C   UNL d   1      59.239  -1.150  29.175  0.00  0.00     0.019 A 
ATOM     14  C   UNL d   1      59.749  -1.575  29.655  0.00  0.00     0.002 A 
ATOM     15  C   UNL d   1      59.840  -2.386  29.538  0.00  0.00     0.000 A 
ATOM     16  C   UNL d   1      59.421  -2.773  28.941  0.00  0.00     0.000 A 
ATOM     17  C   UNL d   1      58.912  -2.348  28.461  0.00  0.00     0.000 A 
ATOM     18  C   UNL d   1      59.519  -3.608  28.825  0.00  0.00     0.000 C 
ATOM     19  C   UNL d   1      58.821  -1.536  28.579  0.00  0.00     0.002 A 
ENDBRANCH   1  13
TORSDOF 4
ENDMDL
MODEL 4
REMARK VINA RESULT:      -1.9      1.759      3.263
REMARK  4 active torsions:
REMARK  status: ('A' for Active; 'I' for Inactive)
REMARK    1  A    between atoms: C_3  and  N_1 
REMARK    2  A    between atoms: C_6  and  C_3 
REMARK    3  A    between atoms: C_9  and  C_3 
REMARK    4  A    between atoms: N_5  and  C_6 
ROOT
ATOM      1  C   UNL d   1      58.718  -0.925  29.614  0.00  0.00     0.106 C 
ENDROOT
BRANCH   1   2
ATOM      2  N   UNL d   1      59.343  -0.370  29.618  0.00  0.00    -0.228 N 
ATOM      3  N   UNL d   1      60.009  -0.283  30.105  0.00  0.00    -0.165 NA
ATOM      4  C   UNL d   1      60.416   0.365  29.833  0.00  0.00     0.103 A 
ATOM      5  C   UNL d   1      61.133   0.666  30.160  0.00  0.00     0.022 C 
ATOM      6  C   UNL d   1      60.031   0.682  29.201  0.00  0.00     0.040 A 
ATOM      7  C   UNL d   1      59.359   0.233  29.056  0.00  0.00     0.085 A 
ATOM      8  C   UNL d   1      58.793   0.354  28.455  0.00  0.00     0.021 C 
ENDBRANCH   1   2
BRANCH   1   9
ATOM      9  C   UNL d   1      57.969  -0.701  29.877  0.00  0.00     0.167 C 
BRANCH   9  10
ATOM     10  N   UNL d   1      57.742  -0.839  30.660  0.00  0.00    -0.111 N 
ATOM     11  O   UNL d   1      57.743  -0.224  31.210  0.00  0.00    -0.532 OA
ATOM     12  O   UNL d   1      57.511  -1.607  30.895  0.00  0.00    -0.532 OA
ENDBRANCH   9  10
ENDBRANCH   1   9
BRANCH   1  13
ATOM     13  C   UNL d   1      58.855  -1.725  29.336  0.00  0.00     0.019 A 
ATOM     14  C   UNL d   1      58.372  -2.048  28.758  0.00  0.00     0.002 A 
ATOM     15  C   UNL d   1      58.508  -2.818  28.495  0.00  0.00     0.000 A 
ATOM     16  C   UNL d   1      59.125  -3.266  28.809  0.00  0.00     0.000 A 
ATOM     17  C   UNL d   1      59.608  -2.943  29.387  0.00  0.00     0.000 A 
ATOM     18  C   UNL d   1      59.260  -4.057  28.535  0.00  0.00     0.000 C 
ATOM     19  C   UNL d   1      59.472  -2.173  29.650  0.00  0.00     0.002 A 
ENDBRANCH   1  13
TORSDOF 4
ENDMDL
MODEL 5
REMARK VINA RESULT:      -1.8      1.493      2.041
REMARK  4 active torsions:
REMARK  status: ('A' for Active; 'I' for Inactive)
REMARK    1  A    between atoms: C_3  and  N_1 
REMARK    2  A    between atoms: C_6  and  C_3 
REMARK    3  A    between atoms: C_9  and  C_3 
REMARK    4  A    between atoms: N_5  and  C_6 
ROOT
ATOM      1  C   UNL d   1      58.389  -0.378  29.969  0.00  0.00     0.106 C 
ENDROOT
BRANCH   1   2
ATOM      2  N   UNL d   1      59.114  -0.010  29.773  0.00  0.00    -0.228 N 
ATOM      3  N   UNL d   1      59.835   0.053  30.179  0.00  0.00    -0.165 NA
ATOM      4  C   UNL d   1      60.335   0.479  29.702  0.00  0.00     0.103 A 
ATOM      5  C   UNL d   1      61.133   0.682  29.886  0.00  0.00     0.022 C 
ATOM      6  C   UNL d   1      59.956   0.682  29.022  0.00  0.00     0.040 A 
ATOM      7  C   UNL d   1      59.192   0.383  29.053  0.00  0.00     0.085 A 
ATOM      8  C   UNL d   1      58.599   0.457  28.471  0.00  0.00     0.021 C 
ENDBRANCH   1   2
BRANCH   1   9
ATOM      9  C   UNL d   1      58.108  -1.001  29.507  0.00  0.00     0.167 C 
BRANCH   9  10
ATOM     10  N   UNL d   1      58.210  -1.783  29.754  0.00  0.00    -0.111 N 
ATOM     11  O   UNL d   1      58.913  -2.184  29.593  0.00  0.00    -0.532 OA
ATOM     12  O   UNL d   1      57.596  -2.170  30.169  0.00  0.00    -0.532 OA
ENDBRANCH   9  10
ENDBRANCH   1   9
BRANCH   1  13
ATOM     13  C   UNL d   1      57.938  -0.108  30.647  0.00  0.00     0.019 A 
ATOM     14  C   UNL d   1      57.284   0.374  30.541  0.00  0.00     0.002 A 
ATOM     15  C   UNL d   1      56.854   0.631  31.196  0.00  0.00     0.000 A 
ATOM     16  C   UNL d   1      57.077   0.406  31.958  0.00  0.00     0.000 A 
ATOM     17  C   UNL d   1      57.731  -0.075  32.064  0.00  0.00     0.000 A 
ATOM     18  C   UNL d   1      56.631   0.673  32.628  0.00  0.00     0.000 C 
ATOM     19  C   UNL d   1      58.161  -0.332  31.408  0.00  0.00     0.002 A 
ENDBRANCH   1  13
TORSDOF 4
ENDMDL
MODEL 6
REMARK VINA RESULT:      -1.8      3.018      4.899
REMARK  4 active torsions:
REMARK  status: ('A' for Active; 'I' for Inactive)
REMARK    1  A    between atoms: C_3  and  N_1 
REMARK    2  A    between atoms: C_6  and  C_3 
REMARK    3  A    between atoms: C_9  and  C_3 
REMARK    4  A    between atoms: N_5  and  C_6 
ROOT
ATOM      1  C   UNL d   1      55.839  -0.454  33.257  0.00  0.00     0.106 C 
ENDROOT
BRANCH   1   2
ATOM      2  N   UNL d   1      55.683  -0.061  33.978  0.00  0.00    -0.228 N 
ATOM      3  N   UNL d   1      56.116   0.008  34.682  0.00  0.00    -0.165 NA
ATOM      4  C   UNL d   1      55.672   0.464  35.187  0.00  0.00     0.103 A 
ATOM      5  C   UNL d   1      55.893   0.681  35.971  0.00  0.00     0.022 C 
ATOM      6  C   UNL d   1      54.986   0.679  34.826  0.00  0.00     0.040 A 
ATOM      7  C   UNL d   1      54.979   0.359  34.070  0.00  0.00     0.085 A 
ATOM      8  C   UNL d   1      54.379   0.436  33.496  0.00  0.00     0.021 C 
ENDBRANCH   1   2
BRANCH   1   9
ATOM      9  C   UNL d   1      55.403  -1.124  33.052  0.00  0.00     0.167 C 
BRANCH   9  10
ATOM     10  N   UNL d   1      55.771  -1.861  32.995  0.00  0.00    -0.111 N 
ATOM     11  O   UNL d   1      55.918  -2.309  33.673  0.00  0.00    -0.532 OA
ATOM     12  O   UNL d   1      55.995  -2.156  32.246  0.00  0.00    -0.532 OA
ENDBRANCH   9  10
ENDBRANCH   1   9
BRANCH   1  13
ATOM     13  C   UNL d   1      56.452  -0.163  32.731  0.00  0.00     0.019 A 
ATOM     14  C   UNL d   1      56.253   0.146  31.999  0.00  0.00     0.002 A 
ATOM     15  C   UNL d   1      56.845   0.424  31.498  0.00  0.00     0.000 A 
ATOM     16  C   UNL d   1      57.637   0.394  31.727  0.00  0.00     0.000 A 
ATOM     17  C   UNL d   1      57.836   0.086  32.459  0.00  0.00     0.000 A 
ATOM     18  C   UNL d   1      58.242   0.682  31.207  0.00  0.00     0.000 C 
ATOM     19  C   UNL d   1      57.243  -0.193  32.961  0.00  0.00     0.002 A 
ENDBRANCH   1  13
TORSDOF 4
ENDMDL
MODEL 7
REMARK VINA RESULT:      -1.4      2.955      3.961
REMARK  4 active torsions:
REMARK  status: ('A' for Active; 'I' for Inactive)
REMARK    1  A    between atoms: C_3  and  N_1 
REMARK    2  A    between atoms: C_6  and  C_3 
REMARK    3  A    between atoms: C_9  and  C_3 
REMARK    4  A    between atoms: N_5  and  C_6 
ROOT
ATOM      1  C   UNL d   1      56.205  -0.337  32.914  0.00  0.00     0.106 C 
ENDROOT
BRANCH   1   2
ATOM      2  N   UNL d   1      56.925   0.016  32.676  0.00  0.00    -0.228 N 
ATOM      3  N   UNL d   1      57.666   0.074  33.045  0.00  0.00    -0.165 NA
ATOM      4  C   UNL d   1      58.148   0.484  32.537  0.00  0.00     0.103 A 
ATOM      5  C   UNL d   1      58.957   0.678  32.678  0.00  0.00     0.022 C 
ATOM      6  C   UNL d   1      57.739   0.681  31.872  0.00  0.00     0.040 A 
ATOM      7  C   UNL d   1      56.973   0.395  31.946  0.00  0.00     0.085 A 
ATOM      8  C   UNL d   1      56.353   0.467  31.392  0.00  0.00     0.021 C 
ENDBRANCH   1   2
BRANCH   1   9
ATOM      9  C   UNL d   1      55.872  -0.938  32.456  0.00  0.00     0.167 C 
BRANCH   9  10
ATOM     10  N   UNL d   1      55.851  -1.714  32.737  0.00  0.00    -0.111 N 
ATOM     11  O   UNL d   1      56.531  -2.068  33.042  0.00  0.00    -0.532 OA
ATOM     12  O   UNL d   1      55.134  -2.145  32.713  0.00  0.00    -0.532 OA
ENDBRANCH   9  10
ENDBRANCH   1   9
BRANCH   1  13
ATOM     13  C   UNL d   1      55.812  -0.075  33.630  0.00  0.00     0.019 A 
ATOM     14  C   UNL d   1      55.112   0.347  33.585  0.00  0.00     0.002 A 
ATOM     15  C   UNL d   1      54.739   0.596  34.277  0.00  0.00     0.000 A 
ATOM     16  C   UNL d   1      55.066   0.423  35.015  0.00  0.00     0.000 A 
ATOM     17  C   UNL d   1      55.765   0.000  35.061  0.00  0.00     0.000 A 
ATOM     18  C   UNL d   1      54.678   0.682  35.723  0.00  0.00     0.000 C 
ATOM     19  C   UNL d   1      56.138  -0.249  34.368  0.00  0.00     0.002 A 
ENDBRANCH   1  13
TORSDOF 4
ENDMDL
