MODEL 1
REMARK VINA RESULT:      10.1      0.000      0.000
REMARK  2 active torsions:
REMARK  status: ('A' for Active; 'I' for Inactive)
REMARK       I    between atoms: N_2  and  C_1 
REMARK       I    between atoms: N_4  and  C_1 
REMARK    1  A    between atoms: C_3  and  N_2 
REMARK    2  A    between atoms: C_7  and  N_4 
ROOT
ATOM      1  C   UNL d   1      46.032 -16.990  44.337  0.00  0.00     0.370 C 
ATOM      2  N   UNL d   1      46.000 -16.437  44.954  0.00  0.00    -0.172 NA
ATOM      3  N   UNL d   1      46.320 -17.758  44.505  0.00  0.00    -0.191 NA
ATOM      4  O   UNL d   1      45.798 -16.814  43.594  0.00  0.00    -0.242 OA
ENDROOT
BRANCH   2   5
ATOM      5  C   UNL d   1      45.717 -15.679  44.792  0.00  0.00     0.167 A 
ATOM      6  N   UNL d   1      46.218 -15.085  44.460  0.00  0.00    -0.225 NA
ATOM      7  C   UNL d   1      45.925 -14.337  44.304  0.00  0.00     0.101 A 
ATOM      8  C   UNL d   1      45.132 -14.169  44.475  0.00  0.00     0.021 A 
ATOM      9  C   UNL d   1      44.645 -14.752  44.799  0.00  0.00     0.005 A 
ATOM     10  C   UNL d   1      44.936 -15.490  44.952  0.00  0.00     0.039 A 
ENDBRANCH   2   5
BRANCH   3  11
ATOM     11  C   UNL d   1      46.356 -18.316  43.902  0.00  0.00     0.086 A 
ATOM     12  C   UNL d   1      46.395 -18.076  43.129  0.00  0.00     0.019 A 
ATOM     13  C   UNL d   1      46.432 -18.645  42.524  0.00  0.00     0.002 A 
ATOM     14  C   UNL d   1      46.429 -19.463  42.718  0.00  0.00     0.000 A 
ATOM     15  C   UNL d   1      46.390 -19.691  43.492  0.00  0.00     0.002 A 
ATOM     16  C   UNL d   1      46.353 -19.138  44.095  0.00  0.00     0.019 A 
ENDBRANCH   3  11
TORSDOF 2
ENDMDL
MODEL 2
REMARK VINA RESULT:      10.2      0.605      3.935
REMARK  2 active torsions:
REMARK  status: ('A' for Active; 'I' for Inactive)
REMARK       I    between atoms: N_2  and  C_1 
REMARK       I    between atoms: N_4  and  C_1 
REMARK    1  A    between atoms: C_3  and  N_2 
REMARK    2  A    between atoms: C_7  and  N_4 
ROOT
ATOM      1  C   UNL d   1      45.868 -16.515  44.396  0.00  0.00     0.370 C 
ATOM      2  N   UNL d   1      45.904 -17.309  44.633  0.00  0.00    -0.172 NA
ATOM      3  N   UNL d   1      45.619 -15.943  44.955  0.00  0.00    -0.191 NA
ATOM      4  O   UNL d   1      46.063 -16.281  43.658  0.00  0.00    -0.242 OA
ENDROOT
BRANCH   2   5
ATOM      5  C   UNL d   1      46.150 -17.875  44.085  0.00  0.00     0.167 A 
ATOM      6  N   UNL d   1      46.292 -17.670  43.278  0.00  0.00    -0.225 NA
ATOM      7  C   UNL d   1      46.535 -18.241  42.743  0.00  0.00     0.101 A 
ATOM      8  C   UNL d   1      46.641 -19.021  43.003  0.00  0.00     0.021 A 
ATOM      9  C   UNL d   1      46.501 -19.216  43.793  0.00  0.00     0.005 A 
ATOM     10  C   UNL d   1      46.261 -18.651  44.319  0.00  0.00     0.039 A 
ENDBRANCH   2   5
BRANCH   3  11
ATOM     11  C   UNL d   1      45.578 -15.153  44.733  0.00  0.00     0.086 A 
ATOM     12  C   UNL d   1      46.255 -14.709  44.691  0.00  0.00     0.019 A 
ATOM     13  C   UNL d   1      46.207 -13.910  44.466  0.00  0.00     0.002 A 
ATOM     14  C   UNL d   1      45.460 -13.569  44.285  0.00  0.00     0.000 A 
ATOM     15  C   UNL d   1      44.793 -14.022  44.330  0.00  0.00     0.002 A 
ATOM     16  C   UNL d   1      44.829 -14.810  44.551  0.00  0.00     0.019 A 
ENDBRANCH   3  11
TORSDOF 2
ENDMDL
