MODEL 1
REMARK VINA RESULT:      -8.1      0.000      0.000
REMARK  3 active torsions:
REMARK  status: ('A' for Active; 'I' for Inactive)
REMARK    1  A    between atoms: S_9  and  C_3 
REMARK    2  A    between atoms: C_15  and  S_9 
REMARK    3  A    between atoms: C_11  and  C_15 
ROOT
ATOM      1  N   UNL d   1     -47.380  13.480  22.996  0.00  0.00    -0.263 N 
ATOM      2  C   UNL d   1     -46.569  13.629  22.878  0.00  0.00     0.202 A 
ATOM      3  C   UNL d   1     -47.783  14.189  22.829  0.00  0.00     0.202 A 
ATOM      4  N   UNL d   1     -46.474  14.412  22.642  0.00  0.00    -0.121 NA
ATOM      5  S   UNL d   1     -46.159  12.916  23.045  0.00  0.00    -0.047 SA
ATOM      6  N   UNL d   1     -47.231  14.759  22.613  0.00  0.00    -0.121 NA
ATOM      7  C   UNL d   1     -47.468  12.694  23.232  0.00  0.00     0.074 A 
ATOM      8  C   UNL d   1     -46.722  12.343  23.264  0.00  0.00     0.049 A 
ATOM      9  C   UNL d   1     -48.139  12.255  23.422  0.00  0.00     0.018 A 
ATOM     10  C   UNL d   1     -46.650  11.564  23.482  0.00  0.00     0.008 A 
ATOM     11  C   UNL d   1     -48.060  11.464  23.643  0.00  0.00     0.002 A 
ATOM     12  C   UNL d   1     -47.310  11.121  23.672  0.00  0.00     0.001 A 
ENDROOT
BRANCH   3  13
ATOM     13  S   UNL d   1     -48.593  14.295  22.874  0.00  0.00    -0.047 SA
BRANCH  13  14
ATOM     14  C   UNL d   1     -48.912  15.050  22.837  0.00  0.00     0.045 C 
BRANCH  14  15
ATOM     15  C   UNL d   1     -49.720  15.165  22.970  0.00  0.00     0.036 A 
ATOM     16  S   UNL d   1     -50.051  15.645  23.557  0.00  0.00    -0.086 SA
ATOM     17  C   UNL d   1     -50.867  15.595  23.487  0.00  0.00     0.035 A 
ATOM     18  C   UNL d   1     -51.049  15.089  22.863  0.00  0.00     0.007 A 
ATOM     19  C   UNL d   1     -50.333  14.825  22.546  0.00  0.00     0.007 A 
ENDBRANCH  14  15
ENDBRANCH  13  14
ENDBRANCH   3  13
TORSDOF 3
ENDMDL
MODEL 2
REMARK VINA RESULT:      -7.3      1.326      2.080
REMARK  3 active torsions:
REMARK  status: ('A' for Active; 'I' for Inactive)
REMARK    1  A    between atoms: S_9  and  C_3 
REMARK    2  A    between atoms: C_15  and  S_9 
REMARK    3  A    between atoms: C_11  and  C_15 
ROOT
ATOM      1  N   UNL d   1     -47.957  12.372  23.159  0.00  0.00    -0.263 N 
ATOM      2  C   UNL d   1     -47.773  11.628  23.487  0.00  0.00     0.202 A 
ATOM      3  C   UNL d   1     -48.786  12.443  23.171  0.00  0.00     0.202 A 
ATOM      4  N   UNL d   1     -48.473  11.249  23.696  0.00  0.00    -0.121 NA
ATOM      5  S   UNL d   1     -46.937  11.552  23.476  0.00  0.00    -0.047 SA
ATOM      6  N   UNL d   1     -49.103  11.758  23.499  0.00  0.00    -0.121 NA
ATOM      7  C   UNL d   1     -47.251  12.745  22.951  0.00  0.00     0.074 A 
ATOM      8  C   UNL d   1     -46.622  12.247  23.144  0.00  0.00     0.049 A 
ATOM      9  C   UNL d   1     -47.105  13.481  22.609  0.00  0.00     0.018 A 
ATOM     10  C   UNL d   1     -45.859  12.483  22.995  0.00  0.00     0.008 A 
ATOM     11  C   UNL d   1     -46.327  13.715  22.461  0.00  0.00     0.002 A 
ATOM     12  C   UNL d   1     -45.704  13.210  22.657  0.00  0.00     0.001 A 
ENDROOT
BRANCH   3  13
ATOM     13  S   UNL d   1     -49.209  13.088  22.901  0.00  0.00    -0.047 SA
BRANCH  13  14
ATOM     14  C   UNL d   1     -50.000  13.177  23.105  0.00  0.00     0.045 C 
BRANCH  14  15
ATOM     15  C   UNL d   1     -50.405  13.867  22.897  0.00  0.00     0.036 A 
ATOM     16  S   UNL d   1     -50.706  14.043  22.146  0.00  0.00    -0.086 SA
ATOM     17  C   UNL d   1     -51.064  14.781  22.191  0.00  0.00     0.035 A 
ATOM     18  C   UNL d   1     -50.990  15.065  22.961  0.00  0.00     0.007 A 
ATOM     19  C   UNL d   1     -50.581  14.493  23.393  0.00  0.00     0.007 A 
ENDBRANCH  14  15
ENDBRANCH  13  14
ENDBRANCH   3  13
TORSDOF 3
ENDMDL
MODEL 3
REMARK VINA RESULT:      -7.1      1.610      4.151
REMARK  3 active torsions:
REMARK  status: ('A' for Active; 'I' for Inactive)
REMARK    1  A    between atoms: S_9  and  C_3 
REMARK    2  A    between atoms: C_15  and  S_9 
REMARK    3  A    between atoms: C_11  and  C_15 
ROOT
ATOM      1  N   UNL d   1     -49.671  13.884  22.277  0.00  0.00    -0.263 N 
ATOM      2  C   UNL d   1     -50.346  13.614  21.870  0.00  0.00     0.202 A 
ATOM      3  C   UNL d   1     -49.035  13.402  22.036  0.00  0.00     0.202 A 
ATOM      4  N   UNL d   1     -50.132  12.981  21.389  0.00  0.00    -0.121 NA
ATOM      5  S   UNL d   1     -50.990  14.096  22.110  0.00  0.00    -0.047 SA
ATOM      6  N   UNL d   1     -49.315  12.851  21.494  0.00  0.00    -0.121 NA
ATOM      7  C   UNL d   1     -49.893  14.518  22.756  0.00  0.00     0.074 A 
ATOM      8  C   UNL d   1     -50.701  14.653  22.657  0.00  0.00     0.049 A 
ATOM      9  C   UNL d   1     -49.456  14.989  23.271  0.00  0.00     0.018 A 
ATOM     10  C   UNL d   1     -51.064  15.251  23.069  0.00  0.00     0.008 A 
ATOM     11  C   UNL d   1     -49.830  15.596  23.687  0.00  0.00     0.002 A 
ATOM     12  C   UNL d   1     -50.639  15.724  23.583  0.00  0.00     0.001 A 
ENDROOT
BRANCH   3  13
ATOM     13  S   UNL d   1     -48.264  13.472  22.298  0.00  0.00    -0.047 SA
BRANCH  13  14
ATOM     14  C   UNL d   1     -47.726  12.869  22.158  0.00  0.00     0.045 C 
BRANCH  14  15
ATOM     15  C   UNL d   1     -46.956  12.924  22.454  0.00  0.00     0.036 A 
ATOM     16  S   UNL d   1     -46.658  12.510  23.105  0.00  0.00    -0.086 SA
ATOM     17  C   UNL d   1     -45.873  12.733  23.202  0.00  0.00     0.035 A 
ATOM     18  C   UNL d   1     -45.680  13.281  22.619  0.00  0.00     0.007 A 
ATOM     19  C   UNL d   1     -46.356  13.396  22.158  0.00  0.00     0.007 A 
ENDBRANCH  14  15
ENDBRANCH  13  14
ENDBRANCH   3  13
TORSDOF 3
ENDMDL
MODEL 4
REMARK VINA RESULT:      -7.0      1.896      3.923
REMARK  3 active torsions:
REMARK  status: ('A' for Active; 'I' for Inactive)
REMARK    1  A    between atoms: S_9  and  C_3 
REMARK    2  A    between atoms: C_15  and  S_9 
REMARK    3  A    between atoms: C_11  and  C_15 
ROOT
ATOM      1  N   UNL d   1     -49.068  12.254  23.018  0.00  0.00    -0.263 N 
ATOM      2  C   UNL d   1     -49.442  11.614  23.399  0.00  0.00     0.202 A 
ATOM      3  C   UNL d   1     -48.247  12.130  23.090  0.00  0.00     0.202 A 
ATOM      4  N   UNL d   1     -48.867  11.108  23.698  0.00  0.00    -0.121 NA
ATOM      5  S   UNL d   1     -50.270  11.735  23.329  0.00  0.00    -0.047 SA
ATOM      6  N   UNL d   1     -48.123  11.431  23.505  0.00  0.00    -0.121 NA
ATOM      7  C   UNL d   1     -49.650  12.757  22.721  0.00  0.00     0.074 A 
ATOM      8  C   UNL d   1     -50.390  12.444  22.908  0.00  0.00     0.049 A 
ATOM      9  C   UNL d   1     -49.596  13.464  22.301  0.00  0.00     0.018 A 
ATOM     10  C   UNL d   1     -51.064  12.834  22.678  0.00  0.00     0.008 A 
ATOM     11  C   UNL d   1     -50.284  13.856  22.070  0.00  0.00     0.002 A 
ATOM     12  C   UNL d   1     -51.021  13.535  22.262  0.00  0.00     0.001 A 
ENDROOT
BRANCH   3  13
ATOM     13  S   UNL d   1     -47.667  12.625  22.795  0.00  0.00    -0.047 SA
BRANCH  13  14
ATOM     14  C   UNL d   1     -46.917  12.626  23.130  0.00  0.00     0.045 C 
BRANCH  14  15
ATOM     15  C   UNL d   1     -46.332  13.128  22.833  0.00  0.00     0.036 A 
ATOM     16  S   UNL d   1     -45.708  12.905  22.338  0.00  0.00    -0.086 SA
ATOM     17  C   UNL d   1     -45.264  13.578  22.181  0.00  0.00     0.035 A 
ATOM     18  C   UNL d   1     -45.605  14.217  22.572  0.00  0.00     0.007 A 
ATOM     19  C   UNL d   1     -46.267  13.932  22.974  0.00  0.00     0.007 A 
ENDBRANCH  14  15
ENDBRANCH  13  14
ENDBRANCH   3  13
TORSDOF 3
ENDMDL
MODEL 5
REMARK VINA RESULT:      -5.5      8.427     10.267
REMARK  3 active torsions:
REMARK  status: ('A' for Active; 'I' for Inactive)
REMARK    1  A    between atoms: S_9  and  C_3 
REMARK    2  A    between atoms: C_15  and  S_9 
REMARK    3  A    between atoms: C_11  and  C_15 
ROOT
ATOM      1  N   UNL d   1     -40.238  14.706  19.176  0.00  0.00    -0.263 N 
ATOM      2  C   UNL d   1     -40.903  14.281  19.443  0.00  0.00     0.202 A 
ATOM      3  C   UNL d   1     -40.171  14.560  18.359  0.00  0.00     0.202 A 
ATOM      4  N   UNL d   1     -41.239  13.883  18.806  0.00  0.00    -0.121 NA
ATOM      5  S   UNL d   1     -40.974  14.425  20.267  0.00  0.00    -0.047 SA
ATOM      6  N   UNL d   1     -40.781  14.058  18.131  0.00  0.00    -0.121 NA
ATOM      7  C   UNL d   1     -39.907  15.102  19.820  0.00  0.00     0.074 A 
ATOM      8  C   UNL d   1     -40.355  14.933  20.492  0.00  0.00     0.049 A 
ATOM      9  C   UNL d   1     -39.251  15.597  19.875  0.00  0.00     0.018 A 
ATOM     10  C   UNL d   1     -40.147  15.256  21.208  0.00  0.00     0.008 A 
ATOM     11  C   UNL d   1     -39.044  15.922  20.605  0.00  0.00     0.002 A 
ATOM     12  C   UNL d   1     -39.498  15.748  21.272  0.00  0.00     0.001 A 
ENDROOT
BRANCH   3  13
ATOM     13  S   UNL d   1     -39.593  14.869  17.870  0.00  0.00    -0.047 SA
BRANCH  13  14
ATOM     14  C   UNL d   1     -39.609  14.714  17.064  0.00  0.00     0.045 C 
BRANCH  14  15
ATOM     15  C   UNL d   1     -39.024  15.025  16.571  0.00  0.00     0.036 A 
ATOM     16  S   UNL d   1     -38.374  14.611  16.270  0.00  0.00    -0.086 SA
ATOM     17  C   UNL d   1     -37.940  15.134  15.809  0.00  0.00     0.035 A 
ATOM     18  C   UNL d   1     -38.312  15.868  15.819  0.00  0.00     0.007 A 
ATOM     19  C   UNL d   1     -38.984  15.795  16.293  0.00  0.00     0.007 A 
ENDBRANCH  14  15
ENDBRANCH  13  14
ENDBRANCH   3  13
TORSDOF 3
ENDMDL
MODEL 6
REMARK VINA RESULT:      -5.4      8.736     10.207
REMARK  3 active torsions:
REMARK  status: ('A' for Active; 'I' for Inactive)
REMARK    1  A    between atoms: S_9  and  C_3 
REMARK    2  A    between atoms: C_15  and  S_9 
REMARK    3  A    between atoms: C_11  and  C_15 
ROOT
ATOM      1  N   UNL d   1     -39.248  14.598  17.354  0.00  0.00    -0.263 N 
ATOM      2  C   UNL d   1     -39.152  14.977  16.619  0.00  0.00     0.202 A 
ATOM      3  C   UNL d   1     -39.726  15.096  17.821  0.00  0.00     0.202 A 
ATOM      4  N   UNL d   1     -39.560  15.691  16.631  0.00  0.00    -0.121 NA
ATOM      5  S   UNL d   1     -38.670  14.478  16.145  0.00  0.00    -0.047 SA
ATOM      6  N   UNL d   1     -39.917  15.764  17.381  0.00  0.00    -0.121 NA
ATOM      7  C   UNL d   1     -38.837  13.883  17.335  0.00  0.00     0.074 A 
ATOM      8  C   UNL d   1     -38.480  13.804  16.595  0.00  0.00     0.049 A 
ATOM      9  C   UNL d   1     -38.744  13.294  17.903  0.00  0.00     0.018 A 
ATOM     10  C   UNL d   1     -38.037  13.144  16.428  0.00  0.00     0.008 A 
ATOM     11  C   UNL d   1     -38.293  12.625  17.728  0.00  0.00     0.002 A 
ATOM     12  C   UNL d   1     -37.940  12.554  16.985  0.00  0.00     0.001 A 
ENDROOT
BRANCH   3  13
ATOM     13  S   UNL d   1     -39.962  14.941  18.588  0.00  0.00    -0.047 SA
BRANCH  13  14
ATOM     14  C   UNL d   1     -40.456  15.467  18.981  0.00  0.00     0.045 C 
BRANCH  14  15
ATOM     15  C   UNL d   1     -40.616  15.361  19.785  0.00  0.00     0.036 A 
ATOM     16  S   UNL d   1     -40.491  15.921  20.381  0.00  0.00    -0.086 SA
ATOM     17  C   UNL d   1     -40.727  15.583  21.091  0.00  0.00     0.035 A 
ATOM     18  C   UNL d   1     -40.997  14.819  20.944  0.00  0.00     0.007 A 
ATOM     19  C   UNL d   1     -40.926  14.687  20.132  0.00  0.00     0.007 A 
ENDBRANCH  14  15
ENDBRANCH  13  14
ENDBRANCH   3  13
TORSDOF 3
ENDMDL
