MODEL 1
REMARK VINA RESULT:      -8.0      0.000      0.000
REMARK  6 active torsions:
REMARK  status: ('A' for Active; 'I' for Inactive)
REMARK    1  A    between atoms: C_9  and  N_2 
REMARK    2  A    between atoms: O_11  and  C_7 
REMARK    3  A    between atoms: C_8  and  O_10 
REMARK    4  A    between atoms: C_12  and  C_9 
REMARK    5  A    between atoms: O_10  and  C_15 
REMARK    6  A    between atoms: C_15  and  C_12 
ROOT
ATOM      1  C   UNL d   1      52.234  33.777  52.958  0.00  0.00     0.087 C 
ENDROOT
BRANCH   1   2
ATOM      2  N   UNL d   1      52.725  33.211  53.304  0.00  0.00    -0.251 N 
ATOM      3  C   UNL d   1      52.825  32.410  53.102  0.00  0.00     0.378 A 
ATOM      4  O   UNL d   1      53.384  32.081  53.620  0.00  0.00    -0.258 OA
ATOM      5  O   UNL d   1      52.432  32.022  52.493  0.00  0.00    -0.237 OA
ATOM      6  C   UNL d   1      53.629  32.673  54.138  0.00  0.00     0.121 A 
ATOM      7  C   UNL d   1      54.172  32.678  54.768  0.00  0.00     0.026 A 
ATOM      8  C   UNL d   1      53.224  33.372  53.945  0.00  0.00     0.092 A 
ATOM      9  C   UNL d   1      54.304  33.367  55.194  0.00  0.00     0.002 A 
ATOM     10  C   UNL d   1      53.900  34.057  54.999  0.00  0.00     0.002 A 
ATOM     11  C   UNL d   1      53.360  34.064  54.376  0.00  0.00     0.020 A 
ENDBRANCH   1   2
BRANCH   1  12
ATOM     12  C   UNL d   1      51.423  33.706  53.023  0.00  0.00     0.046 C 
BRANCH  12  13
ATOM     13  C   UNL d   1      50.931  34.123  52.508  0.00  0.00     0.124 C 
BRANCH  13  14
ATOM     14  O   UNL d   1      50.216  34.433  52.780  0.00  0.00    -0.303 OA
BRANCH  14  15
ATOM     15  C   UNL d   1      49.612  34.608  52.247  0.00  0.00     0.122 A 
ATOM     16  C   UNL d   1      48.980  35.084  52.481  0.00  0.00     0.117 A 
ATOM     17  C   UNL d   1      48.375  35.261  51.952  0.00  0.00     0.026 A 
ATOM     18  C   UNL d   1      48.404  34.959  51.179  0.00  0.00     0.002 A 
ATOM     19  C   UNL d   1      49.032  34.485  50.942  0.00  0.00     0.002 A 
ATOM     20  C   UNL d   1      49.636  34.310  51.475  0.00  0.00     0.027 A 
BRANCH  16  21
ATOM     21  O   UNL d   1      48.955  35.382  53.253  0.00  0.00    -0.326 OA
ATOM     22  C   UNL d   1      48.341  35.890  53.475  0.00  0.00     0.181 C 
ENDBRANCH  16  21
ENDBRANCH  14  15
ENDBRANCH  13  14
ENDBRANCH  12  13
ENDBRANCH   1  12
TORSDOF 6
ENDMDL
MODEL 2
REMARK VINA RESULT:      -8.0      1.104      1.461
REMARK  6 active torsions:
REMARK  status: ('A' for Active; 'I' for Inactive)
REMARK    1  A    between atoms: C_9  and  N_2 
REMARK    2  A    between atoms: O_11  and  C_7 
REMARK    3  A    between atoms: C_8  and  O_10 
REMARK    4  A    between atoms: C_12  and  C_9 
REMARK    5  A    between atoms: O_10  and  C_15 
REMARK    6  A    between atoms: C_15  and  C_12 
ROOT
ATOM      1  C   UNL d   1      52.213  34.396  53.235  0.00  0.00     0.087 C 
ENDROOT
BRANCH   1   2
ATOM      2  N   UNL d   1      52.779  34.406  53.836  0.00  0.00    -0.251 N 
ATOM      3  C   UNL d   1      53.007  35.035  54.330  0.00  0.00     0.378 A 
ATOM      4  O   UNL d   1      53.599  34.759  54.842  0.00  0.00    -0.258 OA
ATOM      5  O   UNL d   1      52.694  35.795  54.306  0.00  0.00    -0.237 OA
ATOM      6  C   UNL d   1      53.737  33.966  54.668  0.00  0.00     0.121 A 
ATOM      7  C   UNL d   1      54.257  33.402  54.988  0.00  0.00     0.026 A 
ATOM      8  C   UNL d   1      53.231  33.746  54.046  0.00  0.00     0.092 A 
ATOM      9  C   UNL d   1      54.270  32.636  54.694  0.00  0.00     0.002 A 
ATOM     10  C   UNL d   1      53.767  32.423  54.078  0.00  0.00     0.002 A 
ATOM     11  C   UNL d   1      53.247  32.972  53.752  0.00  0.00     0.020 A 
ENDBRANCH   1   2
BRANCH   1  12
ATOM     12  C   UNL d   1      51.419  34.435  53.423  0.00  0.00     0.046 C 
BRANCH  12  13
ATOM     13  C   UNL d   1      50.853  34.417  52.823  0.00  0.00     0.124 C 
BRANCH  13  14
ATOM     14  O   UNL d   1      50.093  34.707  52.963  0.00  0.00    -0.303 OA
BRANCH  14  15
ATOM     15  C   UNL d   1      49.545  34.744  52.348  0.00  0.00     0.122 A 
ATOM     16  C   UNL d   1      48.838  35.158  52.450  0.00  0.00     0.117 A 
ATOM     17  C   UNL d   1      48.288  35.198  51.838  0.00  0.00     0.026 A 
ATOM     18  C   UNL d   1      48.448  34.818  51.117  0.00  0.00     0.002 A 
ATOM     19  C   UNL d   1      49.151  34.404  51.012  0.00  0.00     0.002 A 
ATOM     20  C   UNL d   1      49.699  34.368  51.628  0.00  0.00     0.027 A 
BRANCH  16  21
ATOM     21  O   UNL d   1      48.683  35.535  53.170  0.00  0.00    -0.326 OA
ATOM     22  C   UNL d   1      47.990  35.977  53.259  0.00  0.00     0.181 C 
ENDBRANCH  16  21
ENDBRANCH  14  15
ENDBRANCH  13  14
ENDBRANCH  12  13
ENDBRANCH   1  12
TORSDOF 6
ENDMDL
MODEL 3
REMARK VINA RESULT:      -7.4      2.860      4.918
REMARK  6 active torsions:
REMARK  status: ('A' for Active; 'I' for Inactive)
REMARK    1  A    between atoms: C_9  and  N_2 
REMARK    2  A    between atoms: O_11  and  C_7 
REMARK    3  A    between atoms: C_8  and  O_10 
REMARK    4  A    between atoms: C_12  and  C_9 
REMARK    5  A    between atoms: O_10  and  C_15 
REMARK    6  A    between atoms: C_15  and  C_12 
ROOT
ATOM      1  C   UNL d   1      54.267  33.046  53.969  0.00  0.00     0.087 C 
ENDROOT
BRANCH   1   2
ATOM      2  N   UNL d   1      54.078  33.740  54.373  0.00  0.00    -0.251 N 
ATOM      3  C   UNL d   1      54.427  34.058  55.059  0.00  0.00     0.378 A 
ATOM      4  O   UNL d   1      54.034  34.766  55.242  0.00  0.00    -0.258 OA
ATOM      5  O   UNL d   1      55.051  33.721  55.474  0.00  0.00    -0.237 OA
ATOM      6  C   UNL d   1      53.448  34.886  54.676  0.00  0.00     0.121 A 
ATOM      7  C   UNL d   1      52.885  35.489  54.569  0.00  0.00     0.026 A 
ATOM      8  C   UNL d   1      53.473  34.253  54.138  0.00  0.00     0.092 A 
ATOM      9  C   UNL d   1      52.361  35.458  53.939  0.00  0.00     0.002 A 
ATOM     10  C   UNL d   1      52.390  34.829  53.409  0.00  0.00     0.002 A 
ATOM     11  C   UNL d   1      52.943  34.226  53.504  0.00  0.00     0.020 A 
ENDBRANCH   1   2
BRANCH   1  12
ATOM     12  C   UNL d   1      54.088  32.320  54.299  0.00  0.00     0.046 C 
BRANCH  12  13
ATOM     13  C   UNL d   1      53.969  31.665  53.813  0.00  0.00     0.124 C 
BRANCH  13  14
ATOM     14  O   UNL d   1      53.795  30.929  54.145  0.00  0.00    -0.303 OA
BRANCH  14  15
ATOM     15  C   UNL d   1      53.367  30.372  53.714  0.00  0.00     0.122 A 
ATOM     16  C   UNL d   1      53.210  29.631  54.041  0.00  0.00     0.117 A 
ATOM     17  C   UNL d   1      52.782  29.071  53.614  0.00  0.00     0.026 A 
ATOM     18  C   UNL d   1      52.509  29.256  52.852  0.00  0.00     0.002 A 
ATOM     19  C   UNL d   1      52.664  29.994  52.524  0.00  0.00     0.002 A 
ATOM     20  C   UNL d   1      53.092  30.551  52.955  0.00  0.00     0.027 A 
BRANCH  16  21
ATOM     21  O   UNL d   1      53.484  29.450  54.800  0.00  0.00    -0.326 OA
ATOM     22  C   UNL d   1      53.362  28.693  55.110  0.00  0.00     0.181 C 
ENDBRANCH  16  21
ENDBRANCH  14  15
ENDBRANCH  13  14
ENDBRANCH  12  13
ENDBRANCH   1  12
TORSDOF 6
ENDMDL
MODEL 4
REMARK VINA RESULT:      -7.0      1.384      5.241
REMARK  6 active torsions:
REMARK  status: ('A' for Active; 'I' for Inactive)
REMARK    1  A    between atoms: C_9  and  N_2 
REMARK    2  A    between atoms: O_11  and  C_7 
REMARK    3  A    between atoms: C_8  and  O_10 
REMARK    4  A    between atoms: C_12  and  C_9 
REMARK    5  A    between atoms: O_10  and  C_15 
REMARK    6  A    between atoms: C_15  and  C_12 
ROOT
ATOM      1  C   UNL d   1      49.432  34.663  52.712  0.00  0.00     0.087 C 
ENDROOT
BRANCH   1   2
ATOM      2  N   UNL d   1      48.835  34.984  52.243  0.00  0.00    -0.251 N 
ATOM      3  C   UNL d   1      48.656  34.832  51.444  0.00  0.00     0.378 A 
ATOM      4  O   UNL d   1      48.002  35.298  51.233  0.00  0.00    -0.258 OA
ATOM      5  O   UNL d   1      49.063  34.308  50.959  0.00  0.00    -0.237 OA
ATOM      6  C   UNL d   1      47.778  35.735  51.894  0.00  0.00     0.121 A 
ATOM      7  C   UNL d   1      47.171  36.290  52.021  0.00  0.00     0.026 A 
ATOM      8  C   UNL d   1      48.290  35.543  52.519  0.00  0.00     0.092 A 
ATOM      9  C   UNL d   1      47.081  36.644  52.756  0.00  0.00     0.002 A 
ATOM     10  C   UNL d   1      47.591  36.450  53.372  0.00  0.00     0.002 A 
ATOM     11  C   UNL d   1      48.196  35.902  53.258  0.00  0.00     0.020 A 
ENDBRANCH   1   2
BRANCH   1  12
ATOM     12  C   UNL d   1      50.161  34.493  52.385  0.00  0.00     0.046 C 
BRANCH  12  13
ATOM     13  C   UNL d   1      50.824  34.426  52.870  0.00  0.00     0.124 C 
BRANCH  13  14
ATOM     14  O   UNL d   1      51.383  33.835  52.726  0.00  0.00    -0.303 OA
BRANCH  14  15
ATOM     15  C   UNL d   1      52.100  33.837  53.133  0.00  0.00     0.122 A 
ATOM     16  C   UNL d   1      52.547  33.145  53.186  0.00  0.00     0.117 A 
ATOM     17  C   UNL d   1      53.263  33.143  53.591  0.00  0.00     0.026 A 
ATOM     18  C   UNL d   1      53.536  33.842  53.948  0.00  0.00     0.002 A 
ATOM     19  C   UNL d   1      53.094  34.532  53.898  0.00  0.00     0.002 A 
ATOM     20  C   UNL d   1      52.376  34.530  53.491  0.00  0.00     0.027 A 
BRANCH  16  21
ATOM     21  O   UNL d   1      52.272  32.451  52.828  0.00  0.00    -0.326 OA
ATOM     22  C   UNL d   1      52.691  31.745  52.930  0.00  0.00     0.181 C 
ENDBRANCH  16  21
ENDBRANCH  14  15
ENDBRANCH  13  14
ENDBRANCH  12  13
ENDBRANCH   1  12
TORSDOF 6
ENDMDL
MODEL 5
REMARK VINA RESULT:      -6.2      2.268      3.733
REMARK  6 active torsions:
REMARK  status: ('A' for Active; 'I' for Inactive)
REMARK    1  A    between atoms: C_9  and  N_2 
REMARK    2  A    between atoms: O_11  and  C_7 
REMARK    3  A    between atoms: C_8  and  O_10 
REMARK    4  A    between atoms: C_12  and  C_9 
REMARK    5  A    between atoms: O_10  and  C_15 
REMARK    6  A    between atoms: C_15  and  C_12 
ROOT
ATOM      1  C   UNL d   1      53.574  31.193  53.550  0.00  0.00     0.087 C 
ENDROOT
BRANCH   1   2
ATOM      2  N   UNL d   1      53.322  30.410  53.488  0.00  0.00    -0.251 N 
ATOM      3  C   UNL d   1      53.013  30.009  52.827  0.00  0.00     0.378 A 
ATOM      4  O   UNL d   1      52.844  29.229  53.054  0.00  0.00    -0.258 OA
ATOM      5  O   UNL d   1      52.899  30.340  52.083  0.00  0.00    -0.237 OA
ATOM      6  C   UNL d   1      53.046  29.146  53.848  0.00  0.00     0.121 A 
ATOM      7  C   UNL d   1      53.004  28.503  54.375  0.00  0.00     0.026 A 
ATOM      8  C   UNL d   1      53.341  29.874  54.119  0.00  0.00     0.092 A 
ATOM      9  C   UNL d   1      53.251  28.588  55.152  0.00  0.00     0.002 A 
ATOM     10  C   UNL d   1      53.543  29.311  55.416  0.00  0.00     0.002 A 
ATOM     11  C   UNL d   1      53.590  29.956  54.904  0.00  0.00     0.020 A 
ENDBRANCH   1   2
BRANCH   1  12
ATOM     12  C   UNL d   1      53.125  31.793  53.224  0.00  0.00     0.046 C 
BRANCH  12  13
ATOM     13  C   UNL d   1      53.247  32.573  53.461  0.00  0.00     0.124 C 
BRANCH  13  14
ATOM     14  O   UNL d   1      52.710  33.161  53.241  0.00  0.00    -0.303 OA
BRANCH  14  15
ATOM     15  C   UNL d   1      52.754  33.909  53.584  0.00  0.00     0.122 A 
ATOM     16  C   UNL d   1      52.202  34.488  53.381  0.00  0.00     0.117 A 
ATOM     17  C   UNL d   1      52.241  35.237  53.720  0.00  0.00     0.026 A 
ATOM     18  C   UNL d   1      52.841  35.408  54.269  0.00  0.00     0.002 A 
ATOM     19  C   UNL d   1      53.392  34.834  54.473  0.00  0.00     0.002 A 
ATOM     20  C   UNL d   1      53.348  34.085  54.131  0.00  0.00     0.027 A 
BRANCH  16  21
ATOM     21  O   UNL d   1      51.606  34.313  52.833  0.00  0.00    -0.326 OA
ATOM     22  C   UNL d   1      50.844  34.614  52.949  0.00  0.00     0.181 C 
ENDBRANCH  16  21
ENDBRANCH  14  15
ENDBRANCH  13  14
ENDBRANCH  12  13
ENDBRANCH   1  12
TORSDOF 6
ENDMDL
MODEL 6
REMARK VINA RESULT:      -5.6     10.558     11.234
REMARK  6 active torsions:
REMARK  status: ('A' for Active; 'I' for Inactive)
REMARK    1  A    between atoms: C_9  and  N_2 
REMARK    2  A    between atoms: O_11  and  C_7 
REMARK    3  A    between atoms: C_8  and  O_10 
REMARK    4  A    between atoms: C_12  and  C_9 
REMARK    5  A    between atoms: O_10  and  C_15 
REMARK    6  A    between atoms: C_15  and  C_12 
ROOT
ATOM      1  C   UNL d   1      45.402  26.907  56.833  0.00  0.00     0.087 C 
ENDROOT
BRANCH   1   2
ATOM      2  N   UNL d   1      45.328  27.445  57.453  0.00  0.00    -0.251 N 
ATOM      3  C   UNL d   1      45.425  27.320  58.270  0.00  0.00     0.378 A 
ATOM      4  O   UNL d   1      45.290  28.041  58.660  0.00  0.00    -0.258 OA
ATOM      5  O   UNL d   1      45.621  26.602  58.620  0.00  0.00    -0.237 OA
ATOM      6  C   UNL d   1      45.111  28.608  58.089  0.00  0.00     0.121 A 
ATOM      7  C   UNL d   1      44.927  29.417  58.140  0.00  0.00     0.026 A 
ATOM      8  C   UNL d   1      45.134  28.242  57.343  0.00  0.00     0.092 A 
ATOM      9  C   UNL d   1      44.770  29.850  57.461  0.00  0.00     0.002 A 
ATOM     10  C   UNL d   1      44.794  29.483  56.724  0.00  0.00     0.002 A 
ATOM     11  C   UNL d   1      44.975  28.682  56.661  0.00  0.00     0.020 A 
ENDBRANCH   1   2
BRANCH   1  12
ATOM     12  C   UNL d   1      44.985  26.205  56.851  0.00  0.00     0.046 C 
BRANCH  12  13
ATOM     13  C   UNL d   1      44.914  25.750  56.166  0.00  0.00     0.124 C 
BRANCH  13  14
ATOM     14  O   UNL d   1      44.867  24.928  56.219  0.00  0.00    -0.303 OA
BRANCH  14  15
ATOM     15  C   UNL d   1      44.760  24.476  55.537  0.00  0.00     0.122 A 
ATOM     16  C   UNL d   1      44.980  23.680  55.531  0.00  0.00     0.117 A 
ATOM     17  C   UNL d   1      44.875  23.225  54.853  0.00  0.00     0.026 A 
ATOM     18  C   UNL d   1      44.546  23.571  54.173  0.00  0.00     0.002 A 
ATOM     19  C   UNL d   1      44.326  24.363  54.176  0.00  0.00     0.002 A 
ATOM     20  C   UNL d   1      44.433  24.815  54.857  0.00  0.00     0.027 A 
BRANCH  16  21
ATOM     21  O   UNL d   1      45.307  23.340  56.211  0.00  0.00    -0.326 OA
ATOM     22  C   UNL d   1      45.501  22.536  56.213  0.00  0.00     0.181 C 
ENDBRANCH  16  21
ENDBRANCH  14  15
ENDBRANCH  13  14
ENDBRANCH  12  13
ENDBRANCH   1  12
TORSDOF 6
ENDMDL
MODEL 7
REMARK VINA RESULT:      -5.4      9.949     10.948
REMARK  6 active torsions:
REMARK  status: ('A' for Active; 'I' for Inactive)
REMARK    1  A    between atoms: C_9  and  N_2 
REMARK    2  A    between atoms: O_11  and  C_7 
REMARK    3  A    between atoms: C_8  and  O_10 
REMARK    4  A    between atoms: C_12  and  C_9 
REMARK    5  A    between atoms: O_10  and  C_15 
REMARK    6  A    between atoms: C_15  and  C_12 
ROOT
ATOM      1  C   UNL d   1      45.234  29.381  58.610  0.00  0.00     0.087 C 
ENDROOT
BRANCH   1   2
ATOM      2  N   UNL d   1      44.999  29.107  57.869  0.00  0.00    -0.251 N 
ATOM      3  C   UNL d   1      44.603  29.514  57.260  0.00  0.00     0.378 A 
ATOM      4  O   UNL d   1      44.494  28.988  56.626  0.00  0.00    -0.258 OA
ATOM      5  O   UNL d   1      44.365  30.300  57.292  0.00  0.00    -0.237 OA
ATOM      6  C   UNL d   1      44.820  28.262  56.840  0.00  0.00     0.121 A 
ATOM      7  C   UNL d   1      44.879  27.534  56.442  0.00  0.00     0.026 A 
ATOM      8  C   UNL d   1      45.132  28.333  57.607  0.00  0.00     0.092 A 
ATOM      9  C   UNL d   1      45.241  26.893  56.803  0.00  0.00     0.002 A 
ATOM     10  C   UNL d   1      45.549  26.968  57.563  0.00  0.00     0.002 A 
ATOM     11  C   UNL d   1      45.497  27.684  57.968  0.00  0.00     0.020 A 
ENDBRANCH   1   2
BRANCH   1  12
ATOM     12  C   UNL d   1      44.674  29.644  59.144  0.00  0.00     0.046 C 
BRANCH  12  13
ATOM     13  C   UNL d   1      44.913  29.992  59.852  0.00  0.00     0.124 C 
BRANCH  13  14
ATOM     14  O   UNL d   1      44.649  29.687  60.573  0.00  0.00    -0.303 OA
BRANCH  14  15
ATOM     15  C   UNL d   1      44.559  30.185  61.224  0.00  0.00     0.122 A 
ATOM     16  C   UNL d   1      44.523  29.866  61.984  0.00  0.00     0.117 A 
ATOM     17  C   UNL d   1      44.433  30.359  62.638  0.00  0.00     0.026 A 
ATOM     18  C   UNL d   1      44.379  31.181  62.528  0.00  0.00     0.002 A 
ATOM     19  C   UNL d   1      44.414  31.501  61.772  0.00  0.00     0.002 A 
ATOM     20  C   UNL d   1      44.504  31.004  61.120  0.00  0.00     0.027 A 
BRANCH  16  21
ATOM     21  O   UNL d   1      44.579  29.047  62.089  0.00  0.00    -0.326 OA
ATOM     22  C   UNL d   1      44.704  28.740  62.847  0.00  0.00     0.181 C 
ENDBRANCH  16  21
ENDBRANCH  14  15
ENDBRANCH  13  14
ENDBRANCH  12  13
ENDBRANCH   1  12
TORSDOF 6
ENDMDL
