MODEL 1
REMARK VINA RESULT:      44.3      0.000      0.000
REMARK  5 active torsions:
REMARK  status: ('A' for Active; 'I' for Inactive)
REMARK    1  A    between atoms: C_6  and  N_1 
REMARK    2  A    between atoms: O_9  and  C_6 
REMARK    3  A    between atoms: C_8  and  O_9 
REMARK    4  A    between atoms: C_12  and  C_8 
REMARK    5  A    between atoms: C_14  and  C_12 
ROOT
ATOM      1  N   UNL d   1     -50.634  25.752  33.328  0.00  0.00    -0.150 N 
ATOM      2  N   UNL d   1     -50.114  25.111  33.314  0.00  0.00    -0.055 NA
ATOM      3  C   UNL d   1     -51.454  25.634  33.337  0.00  0.00     0.285 A 
ATOM      4  N   UNL d   1     -50.411  24.346  33.309  0.00  0.00    -0.130 NA
ATOM      5  C   UNL d   1     -51.737  24.858  33.331  0.00  0.00     0.077 A 
ATOM      6  C   UNL d   1     -51.218  24.217  33.318  0.00  0.00     0.109 A 
ATOM      7  O   UNL d   1     -51.969  26.269  33.350  0.00  0.00    -0.265 OA
ATOM      8  C   UNL d   1     -52.551  24.730  33.340  0.00  0.00     0.006 A 
ATOM      9  C   UNL d   1     -51.515  23.451  33.312  0.00  0.00     0.021 A 
ATOM     10  C   UNL d   1     -52.846  23.964  33.334  0.00  0.00     0.000 A 
ATOM     11  C   UNL d   1     -52.325  23.320  33.321  0.00  0.00     0.002 A 
ENDROOT
BRANCH   1  12
ATOM     12  C   UNL d   1     -50.337  26.524  33.333  0.00  0.00     0.233 C 
BRANCH  12  13
ATOM     13  O   UNL d   1     -49.937  26.807  33.996  0.00  0.00    -0.251 OA
BRANCH  13  14
ATOM     14  C   UNL d   1     -49.728  27.602  34.039  0.00  0.00     0.302 C 
ATOM     15  O   UNL d   1     -49.703  28.061  33.354  0.00  0.00    -0.259 OA
BRANCH  14  16
ATOM     16  C   UNL d   1     -49.543  27.938  34.768  0.00  0.00     0.069 C 
BRANCH  16  17
ATOM     17  C   UNL d   1     -48.930  28.395  34.830  0.00  0.00     0.005 A 
ATOM     18  C   UNL d   1     -48.252  28.144  35.229  0.00  0.00     0.000 A 
ATOM     19  C   UNL d   1     -47.588  28.638  35.297  0.00  0.00     0.000 A 
ATOM     20  C   UNL d   1     -47.605  29.398  34.957  0.00  0.00     0.000 A 
ATOM     21  C   UNL d   1     -48.281  29.657  34.555  0.00  0.00     0.000 A 
ATOM     22  C   UNL d   1     -48.952  29.161  34.486  0.00  0.00     0.000 A 
ENDBRANCH  16  17
ENDBRANCH  14  16
ENDBRANCH  13  14
ENDBRANCH  12  13
ENDBRANCH   1  12
TORSDOF 5
ENDMDL
MODEL 2
REMARK VINA RESULT:      44.9      0.774      1.183
REMARK  5 active torsions:
REMARK  status: ('A' for Active; 'I' for Inactive)
REMARK    1  A    between atoms: C_6  and  N_1 
REMARK    2  A    between atoms: O_9  and  C_6 
REMARK    3  A    between atoms: C_8  and  O_9 
REMARK    4  A    between atoms: C_12  and  C_8 
REMARK    5  A    between atoms: C_14  and  C_12 
ROOT
ATOM      1  N   UNL d   1     -50.645  25.924  33.316  0.00  0.00    -0.150 N 
ATOM      2  N   UNL d   1     -51.414  26.224  33.311  0.00  0.00    -0.055 NA
ATOM      3  C   UNL d   1     -50.508  25.106  33.317  0.00  0.00     0.285 A 
ATOM      4  N   UNL d   1     -52.053  25.709  33.308  0.00  0.00    -0.130 NA
ATOM      5  C   UNL d   1     -51.162  24.601  33.314  0.00  0.00     0.077 A 
ATOM      6  C   UNL d   1     -51.930  24.901  33.309  0.00  0.00     0.109 A 
ATOM      7  O   UNL d   1     -49.747  24.809  33.322  0.00  0.00    -0.265 OA
ATOM      8  C   UNL d   1     -51.037  23.787  33.315  0.00  0.00     0.006 A 
ATOM      9  C   UNL d   1     -52.570  24.386  33.306  0.00  0.00     0.021 A 
ATOM     10  C   UNL d   1     -51.677  23.272  33.312  0.00  0.00     0.000 A 
ATOM     11  C   UNL d   1     -52.449  23.574  33.307  0.00  0.00     0.002 A 
ENDROOT
BRANCH   1  12
ATOM     12  C   UNL d   1     -50.000  26.441  33.319  0.00  0.00     0.233 C 
BRANCH  12  13
ATOM     13  O   UNL d   1     -50.059  27.171  33.698  0.00  0.00    -0.251 OA
BRANCH  13  14
ATOM     14  C   UNL d   1     -49.475  27.405  34.228  0.00  0.00     0.302 C 
ATOM     15  O   UNL d   1     -49.450  27.082  34.987  0.00  0.00    -0.259 OA
BRANCH  14  16
ATOM     16  C   UNL d   1     -48.914  27.964  34.000  0.00  0.00     0.069 C 
BRANCH  16  17
ATOM     17  C   UNL d   1     -48.590  28.414  34.530  0.00  0.00     0.005 A 
ATOM     18  C   UNL d   1     -48.153  28.092  35.151  0.00  0.00     0.000 A 
ATOM     19  C   UNL d   1     -47.802  28.579  35.726  0.00  0.00     0.000 A 
ATOM     20  C   UNL d   1     -47.893  29.405  35.675  0.00  0.00     0.000 A 
ATOM     21  C   UNL d   1     -48.331  29.737  35.054  0.00  0.00     0.000 A 
ATOM     22  C   UNL d   1     -48.685  29.247  34.475  0.00  0.00     0.000 A 
ENDBRANCH  16  17
ENDBRANCH  14  16
ENDBRANCH  13  14
ENDBRANCH  12  13
ENDBRANCH   1  12
TORSDOF 5
ENDMDL
