MODEL 1
REMARK VINA RESULT:      -4.2      0.000      0.000
REMARK  3 active torsions:
REMARK  status: ('A' for Active; 'I' for Inactive)
REMARK    1  A    between atoms: S_2  and  C_1 
REMARK    2  A    between atoms: N_8  and  S_2 
REMARK    3  A    between atoms: C_12  and  N_9 
ROOT
ATOM      1  N   UNL d   1     -41.979-122.847 -51.307  0.00  0.00    -0.226 N 
ATOM      2  N   UNL d   1     -41.779-122.625 -52.924  0.00  0.00    -0.299 N 
ATOM      3  C   UNL d   1     -42.039-123.479 -51.820  0.00  0.00     0.111 A 
ATOM      4  C   UNL d   1     -41.817-122.095 -51.613  0.00  0.00     0.111 A 
ATOM      5  C   UNL d   1     -41.942-123.378 -52.618  0.00  0.00     0.100 A 
ATOM      6  C   UNL d   1     -41.717-121.983 -52.423  0.00  0.00     0.100 A 
ENDROOT
BRANCH   1   7
ATOM      7  S   UNL d   1     -42.081-122.962 -50.492  0.00  0.00     0.278 S 
ATOM      8  O   UNL d   1     -42.526-122.268 -50.469  0.00  0.00    -0.199 OA
ATOM      9  O   UNL d   1     -41.630-123.659 -50.529  0.00  0.00    -0.199 OA
BRANCH   7  10
ATOM     10  C   UNL d   1     -42.188-123.065 -49.680  0.00  0.00     0.178 A 
ATOM     11  C   UNL d   1     -42.899-123.390 -49.403  0.00  0.00     0.282 A 
ATOM     12  N   UNL d   1     -43.004-123.493 -48.595  0.00  0.00    -0.224 N 
ATOM     13  O   UNL d   1     -43.482-123.604 -49.925  0.00  0.00    -0.266 OA
ATOM     14  C   UNL d   1     -43.715-123.817 -48.324  0.00  0.00     0.107 C 
ATOM     15  C   UNL d   1     -42.412-123.276 -48.065  0.00  0.00     0.342 A 
ATOM     16  N   UNL d   1     -41.712-122.956 -48.340  0.00  0.00    -0.255 N 
ATOM     17  O   UNL d   1     -42.517-123.379 -47.250  0.00  0.00    -0.245 OA
ATOM     18  C   UNL d   1     -41.596-122.849 -49.150  0.00  0.00     0.102 A 
ATOM     19  C   UNL d   1     -41.123-122.740 -47.812  0.00  0.00     0.104 C 
ENDBRANCH   7  10
ENDBRANCH   1   7
BRANCH   2  20
ATOM     20  C   UNL d   1     -41.678-122.518 -53.743  0.00  0.00     0.092 A 
ATOM     21  C   UNL d   1     -42.037-121.871 -54.119  0.00  0.00     0.156 A 
ATOM     22  F   UNL d   1     -42.486-121.341 -53.692  0.00  0.00    -0.203 F 
ATOM     23  C   UNL d   1     -41.935-121.769 -54.932  0.00  0.00     0.031 A 
ATOM     24  C   UNL d   1     -41.481-122.304 -55.363  0.00  0.00     0.002 A 
ATOM     25  C   UNL d   1     -41.123-122.951 -54.987  0.00  0.00     0.002 A 
ATOM     26  C   UNL d   1     -41.225-123.054 -54.175  0.00  0.00     0.020 A 
ENDBRANCH   2  20
TORSDOF 3
ENDMDL
