MODEL 1
REMARK VINA RESULT:      -6.5      0.000      0.000
REMARK  3 active torsions:
REMARK  status: ('A' for Active; 'I' for Inactive)
REMARK    1  A    between atoms: C_7  and  C_1 
REMARK    2  A    between atoms: N_5  and  C_9 
REMARK    3  A    between atoms: C_14  and  C_7 
ROOT
ATOM      1  C   UNL d   1     -41.400-122.412 -52.692  0.00  0.00     0.139 A 
ATOM      2  C   UNL d   1     -41.727-122.794 -53.927  0.00  0.00     0.064 A 
ATOM      3  C   UNL d   1     -41.401-123.053 -53.216  0.00  0.00     0.220 A 
ATOM      4  C   UNL d   1     -41.928-121.995 -53.849  0.00  0.00     0.106 A 
ATOM      5  O   UNL d   1     -41.725-121.760 -53.081  0.00  0.00    -0.304 OA
ATOM      6  C   UNL d   1     -42.264-121.599 -54.479  0.00  0.00     0.067 A 
ATOM      7  C   UNL d   1     -41.865-123.187 -54.638  0.00  0.00     0.009 A 
ATOM      8  O   UNL d   1     -41.123-123.813 -53.046  0.00  0.00    -0.284 OA
ATOM      9  C   UNL d   1     -42.403-121.993 -55.190  0.00  0.00     0.198 A 
ATOM     10  C   UNL d   1     -42.203-122.783 -55.268  0.00  0.00     0.042 A 
ATOM     11  O   UNL d   1     -42.743-121.588 -55.824  0.00  0.00    -0.286 OA
ENDROOT
BRANCH   1  12
ATOM     12  C   UNL d   1     -41.123-122.418 -51.914  0.00  0.00     0.028 C 
BRANCH  12  13
ATOM     13  C   UNL d   1     -41.643-122.554 -51.282  0.00  0.00     0.002 A 
ATOM     14  C   UNL d   1     -41.672-123.300 -50.940  0.00  0.00     0.002 A 
ATOM     15  C   UNL d   1     -42.182-123.449 -50.314  0.00  0.00     0.024 A 
ATOM     16  C   UNL d   1     -42.673-122.839 -50.025  0.00  0.00     0.127 A 
ATOM     17  C   UNL d   1     -42.641-122.088 -50.372  0.00  0.00     0.024 A 
ATOM     18  C   UNL d   1     -42.122-121.951 -51.004  0.00  0.00     0.002 A 
BRANCH  16  19
ATOM     19  N   UNL d   1     -43.186-122.993 -49.393  0.00  0.00    -0.114 N 
ATOM     20  O   UNL d   1     -43.885-123.413 -49.533  0.00  0.00    -0.532 OA
ATOM     21  O   UNL d   1     -43.013-122.735 -48.633  0.00  0.00    -0.532 OA
ENDBRANCH  16  19
ENDBRANCH  12  13
ENDBRANCH   1  12
TORSDOF 3
ENDMDL
