MODEL 1
REMARK VINA RESULT:      41.6      0.000      0.000
REMARK  6 active torsions:
REMARK  status: ('A' for Active; 'I' for Inactive)
REMARK    1  A    between atoms: O_8  and  C_2 
REMARK    2  A    between atoms: C_10  and  C_5 
REMARK    3  A    between atoms: C_21  and  O_8 
REMARK    4  A    between atoms: N_9  and  C_10 
REMARK    5  A    between atoms: C_12  and  C_15 
REMARK    6  A    between atoms: O_26  and  C_12 
ROOT
ATOM      1  C   UNL d   1      46.573 -17.925  42.783  0.00  0.00     0.108 A 
ATOM      2  C   UNL d   1      46.503 -16.686  43.887  0.00  0.00     0.161 A 
ATOM      3  C   UNL d   1      46.534 -17.131  42.521  0.00  0.00     0.064 A 
ATOM      4  C   UNL d   1      46.499 -16.519  43.066  0.00  0.00     0.222 A 
ATOM      5  C   UNL d   1      46.609 -18.545  42.232  0.00  0.00     0.079 A 
ATOM      6  O   UNL d   1      46.577 -18.101  43.594  0.00  0.00    -0.305 OA
ATOM      7  C   UNL d   1      46.541 -17.473  44.148  0.00  0.00     0.126 A 
ATOM      8  C   UNL d   1      46.532 -16.975  41.704  0.00  0.00     0.009 A 
ATOM      9  C   UNL d   1      46.606 -18.380  41.424  0.00  0.00     0.199 A 
ATOM     10  O   UNL d   1      46.461 -15.734  42.811  0.00  0.00    -0.284 OA
ATOM     11  C   UNL d   1      46.567 -17.591  41.159  0.00  0.00     0.042 A 
ATOM     12  O   UNL d   1      46.640 -18.990  40.878  0.00  0.00    -0.286 OA
ATOM     13  C   UNL d   1      46.544 -17.637  44.955  0.00  0.00     0.029 C 
ENDROOT
BRANCH   2  14
ATOM     14  O   UNL d   1      46.468 -16.069  44.432  0.00  0.00    -0.302 OA
BRANCH  14  15
ATOM     15  C   UNL d   1      46.040 -15.390  44.255  0.00  0.00     0.100 A 
ATOM     16  C   UNL d   1      46.407 -14.761  43.870  0.00  0.00     0.025 A 
ATOM     17  C   UNL d   1      45.979 -14.081  43.694  0.00  0.00     0.007 A 
ATOM     18  C   UNL d   1      45.182 -14.029  43.902  0.00  0.00     0.063 A 
ATOM     19  C   UNL d   1      44.814 -14.668  44.292  0.00  0.00     0.007 A 
ATOM     20  C   UNL d   1      45.243 -15.341  44.465  0.00  0.00     0.025 A 
BRANCH  18  21
ATOM     21  C   UNL d   1      44.750 -13.348  43.726  0.00  0.00     0.296 C 
ATOM     22  O   UNL d   1      43.956 -13.291  43.942  0.00  0.00    -0.259 OA
BRANCH  21  23
ATOM     23  O   UNL d   1      45.106 -12.715  43.331  0.00  0.00    -0.296 OA
ATOM     24  C   UNL d   1      44.643 -12.205  42.878  0.00  0.00     0.185 C 
ENDBRANCH  21  23
ENDBRANCH  18  21
ENDBRANCH  14  15
ENDBRANCH   2  14
BRANCH   5  25
ATOM     25  C   UNL d   1      46.647 -19.317  42.492  0.00  0.00     0.086 C 
BRANCH  25  26
ATOM     26  N   UNL d   1      46.156 -19.570  43.108  0.00  0.00    -0.300 N 
ATOM     27  C   UNL d   1      45.362 -19.737  42.961  0.00  0.00     0.100 A 
ATOM     28  C   UNL d   1      44.877 -19.987  43.573  0.00  0.00     0.100 A 
ATOM     29  N   UNL d   1      45.178 -20.074  44.333  0.00  0.00    -0.299 N 
ATOM     30  C   UNL d   1      45.976 -19.907  44.481  0.00  0.00     0.100 A 
ATOM     31  C   UNL d   1      44.687 -20.328  44.953  0.00  0.00     0.100 C 
ATOM     32  C   UNL d   1      46.466 -19.654  43.865  0.00  0.00     0.100 A 
ENDBRANCH  25  26
ENDBRANCH   5  25
TORSDOF 6
ENDMDL
