MODEL 1
REMARK VINA RESULT:      20.0      0.000      0.000
REMARK  5 active torsions:
REMARK  status: ('A' for Active; 'I' for Inactive)
REMARK    1  A    between atoms: N_2  and  S_1 
REMARK    2  A    between atoms: C_3  and  S_1 
REMARK    3  A    between atoms: C_14  and  C_5 
REMARK    4  A    between atoms: O_15  and  C_8 
REMARK    5  A    between atoms: C_18  and  C_14 
ROOT
ATOM      1  C   UNL d   1      24.450  13.087  -2.664  0.00  0.00     0.104 A 
ATOM      2  C   UNL d   1      24.053  12.564  -2.164  0.00  0.00     0.015 A 
ATOM      3  C   UNL d   1      23.974  12.739  -1.360  0.00  0.00     0.023 A 
ATOM      4  C   UNL d   1      24.292  13.437  -1.055  0.00  0.00     0.094 A 
ATOM      5  C   UNL d   1      24.768  13.785  -2.359  0.00  0.00     0.015 A 
ATOM      6  C   UNL d   1      24.689  13.960  -1.555  0.00  0.00     0.025 A 
ENDROOT
BRANCH   1   7
ATOM      7  S   UNL d   1      24.530  12.912  -3.467  0.00  0.00     0.272 S 
ATOM      8  O   UNL d   1      24.712  12.129  -3.279  0.00  0.00    -0.200 OA
ATOM      9  O   UNL d   1      24.347  13.697  -3.656  0.00  0.00    -0.200 OA
BRANCH   7  10
ATOM     10  N   UNL d   1      24.609  12.738  -4.268  0.00  0.00    -0.225 N 
ATOM     11  C   UNL d   1      24.689  11.955  -4.514  0.00  0.00     0.118 A 
ATOM     12  C   UNL d   1      24.768  11.780  -5.318  0.00  0.00     0.142 A 
ATOM     13  O   UNL d   1      24.767  12.388  -5.875  0.00  0.00    -0.300 OA
ATOM     14  C   UNL d   1      24.688  13.172  -5.629  0.00  0.00     0.142 A 
ATOM     15  C   UNL d   1      24.608  13.347  -4.825  0.00  0.00     0.118 A 
ENDBRANCH   7  10
ENDBRANCH   1   7
BRANCH   3  16
ATOM     16  C   UNL d   1      23.577  12.217  -0.860  0.00  0.00     0.002 C 
ATOM     17  C   UNL d   1      24.002  11.780  -0.305  0.00  0.00     0.000 C 
BRANCH  16  18
ATOM     18  C   UNL d   1      22.757  12.133  -0.915  0.00  0.00     0.000 C 
ATOM     19  C   UNL d   1      22.325  11.857  -0.268  0.00  0.00     0.000 C 
ENDBRANCH  16  18
ENDBRANCH   3  16
BRANCH   4  20
ATOM     20  O   UNL d   1      24.212  13.612  -0.252  0.00  0.00    -0.328 OA
ATOM     21  C   UNL d   1      23.924  14.348  -0.015  0.00  0.00     0.181 C 
ENDBRANCH   4  20
TORSDOF 5
ENDMDL
MODEL 2
REMARK VINA RESULT:      20.2      9.758     11.150
REMARK  5 active torsions:
REMARK  status: ('A' for Active; 'I' for Inactive)
REMARK    1  A    between atoms: N_2  and  S_1 
REMARK    2  A    between atoms: C_3  and  S_1 
REMARK    3  A    between atoms: C_14  and  C_5 
REMARK    4  A    between atoms: O_15  and  C_8 
REMARK    5  A    between atoms: C_18  and  C_14 
ROOT
ATOM      1  C   UNL d   1      13.789  12.473  -3.023  0.00  0.00     0.104 A 
ATOM      2  C   UNL d   1      13.734  13.187  -3.432  0.00  0.00     0.015 A 
ATOM      3  C   UNL d   1      13.394  13.209  -4.185  0.00  0.00     0.023 A 
ATOM      4  C   UNL d   1      13.109  12.516  -4.531  0.00  0.00     0.094 A 
ATOM      5  C   UNL d   1      13.503  11.780  -3.369  0.00  0.00     0.015 A 
ATOM      6  C   UNL d   1      13.164  11.801  -4.121  0.00  0.00     0.025 A 
ENDROOT
BRANCH   1   7
ATOM      7  S   UNL d   1      14.128  12.451  -2.271  0.00  0.00     0.272 S 
ATOM      8  O   UNL d   1      14.672  13.029  -2.499  0.00  0.00    -0.200 OA
ATOM      9  O   UNL d   1      13.583  11.873  -2.041  0.00  0.00    -0.200 OA
BRANCH   7  10
ATOM     10  N   UNL d   1      14.466  12.430  -1.521  0.00  0.00    -0.225 N 
ATOM     11  C   UNL d   1      15.149  12.865  -1.363  0.00  0.00     0.118 A 
ATOM     12  C   UNL d   1      15.488  12.844  -0.609  0.00  0.00     0.142 A 
ATOM     13  O   UNL d   1      15.145  12.387  -0.014  0.00  0.00    -0.300 OA
ATOM     14  C   UNL d   1      14.463  11.951  -0.172  0.00  0.00     0.142 A 
ATOM     15  C   UNL d   1      14.123  11.973  -0.926  0.00  0.00     0.118 A 
ENDBRANCH   7  10
ENDBRANCH   1   7
BRANCH   3  16
ATOM     16  C   UNL d   1      13.339  13.923  -4.594  0.00  0.00     0.002 C 
ATOM     17  C   UNL d   1      13.842  14.069  -5.232  0.00  0.00     0.000 C 
BRANCH  16  18
ATOM     18  C   UNL d   1      12.783  14.489  -4.366  0.00  0.00     0.000 C 
ATOM     19  C   UNL d   1      12.892  15.282  -4.571  0.00  0.00     0.000 C 
ENDBRANCH  16  18
ENDBRANCH   3  16
BRANCH   4  20
ATOM     20  O   UNL d   1      12.770  12.537  -5.283  0.00  0.00    -0.328 OA
ATOM     21  C   UNL d   1      12.931  11.938  -5.828  0.00  0.00     0.181 C 
ENDBRANCH   4  20
TORSDOF 5
ENDMDL
