MODEL 1
REMARK VINA RESULT:      69.8      0.000      0.000
REMARK  7 active torsions:
REMARK  status: ('A' for Active; 'I' for Inactive)
REMARK    1  A    between atoms: C_11  and  C_3 
REMARK    2  A    between atoms: C_10  and  C_5 
REMARK    3  A    between atoms: O_22  and  C_13 
REMARK    4  A    between atoms: O_25  and  C_14 
REMARK    5  A    between atoms: O_24  and  C_15 
REMARK    6  A    between atoms: O_26  and  C_21 
REMARK    7  A    between atoms: C_30  and  O_26 
ROOT
ATOM      1  N   UNL d   1      14.028  14.568  -3.488  0.00  0.00    -0.208 N 
ATOM      2  N   UNL d   1      14.192  15.275  -3.874  0.00  0.00    -0.162 NA
ATOM      3  C   UNL d   1      14.145  14.332  -2.706  0.00  0.00     0.184 A 
ATOM      4  C   UNL d   1      13.691  14.044  -4.029  0.00  0.00     0.088 A 
ATOM      5  C   UNL d   1      13.952  15.189  -4.665  0.00  0.00     0.126 A 
ATOM      6  O   UNL d   1      13.925  13.577  -2.466  0.00  0.00    -0.287 OA
ATOM      7  C   UNL d   1      13.470  13.285  -3.787  0.00  0.00     0.043 A 
ATOM      8  C   UNL d   1      13.588  13.053  -3.006  0.00  0.00     0.126 A 
ATOM      9  C   UNL d   1      13.642  14.426  -4.758  0.00  0.00     0.042 A 
ATOM     10  C   UNL d   1      13.371  12.303  -2.760  0.00  0.00     0.123 A 
ATOM     11  C   UNL d   1      13.133  12.765  -4.329  0.00  0.00     0.004 A 
ATOM     12  C   UNL d   1      12.914  12.013  -4.090  0.00  0.00     0.002 A 
ATOM     13  C   UNL d   1      13.034  11.779  -3.301  0.00  0.00     0.027 A 
ENDROOT
BRANCH   3  14
ATOM     14  C   UNL d   1      14.483  14.856  -2.165  0.00  0.00     0.045 A 
ATOM     15  C   UNL d   1      14.533  15.665  -2.345  0.00  0.00     0.030 A 
ATOM     16  C   UNL d   1      14.871  16.189  -1.805  0.00  0.00     0.118 A 
ATOM     17  C   UNL d   1      15.159  15.915  -1.086  0.00  0.00     0.138 A 
ATOM     18  C   UNL d   1      15.108  15.102  -0.905  0.00  0.00     0.118 A 
ATOM     19  C   UNL d   1      14.770  14.578  -1.446  0.00  0.00     0.030 A 
BRANCH  16  20
ATOM     20  O   UNL d   1      14.919  16.990  -1.987  0.00  0.00    -0.326 OA
ATOM     21  C   UNL d   1      14.313  17.354  -2.415  0.00  0.00     0.181 C 
ENDBRANCH  16  20
BRANCH  17  22
ATOM     22  O   UNL d   1      15.496  16.439  -0.545  0.00  0.00    -0.324 OA
ATOM     23  C   UNL d   1      15.860  17.129  -0.816  0.00  0.00     0.182 C 
ENDBRANCH  17  22
BRANCH  18  24
ATOM     24  O   UNL d   1      15.395  14.820  -0.185  0.00  0.00    -0.326 OA
ATOM     25  C   UNL d   1      15.369  14.011  -0.016  0.00  0.00     0.181 C 
ENDBRANCH  18  24
ENDBRANCH   3  14
BRANCH   5  26
ATOM     26  C   UNL d   1      14.014  15.769  -5.259  0.00  0.00     0.119 A 
ATOM     27  O   UNL d   1      13.467  16.367  -5.410  0.00  0.00    -0.306 OA
ATOM     28  C   UNL d   1      13.759  16.811  -6.052  0.00  0.00     0.100 A 
ATOM     29  C   UNL d   1      13.387  17.464  -6.387  0.00  0.00     0.027 C 
ATOM     30  C   UNL d   1      14.483  16.479  -6.286  0.00  0.00     0.027 A 
ATOM     31  C   UNL d   1      14.650  15.838  -5.806  0.00  0.00     0.028 A 
ENDBRANCH   5  26
BRANCH  10  32
ATOM     32  O   UNL d   1      13.488  12.067  -1.978  0.00  0.00    -0.303 OA
BRANCH  32  33
ATOM     33  C   UNL d   1      14.233  11.815  -1.724  0.00  0.00     0.123 C 
ATOM     34  C   UNL d   1      14.407  11.782  -0.921  0.00  0.00     0.029 C 
ENDBRANCH  32  33
ENDBRANCH  10  32
TORSDOF 7
ENDMDL
