MODEL 1
REMARK VINA RESULT:      86.5      0.000      0.000
REMARK  8 active torsions:
REMARK  status: ('A' for Active; 'I' for Inactive)
REMARK    1  A    between atoms: N_2  and  S_1 
REMARK    2  A    between atoms: C_5  and  S_1 
REMARK    3  A    between atoms: C_11  and  C_3 
REMARK       I    between atoms: C_4  and  N_9 
REMARK    4  A    between atoms: C_6  and  C_4 
REMARK       I    between atoms: N_16  and  C_6 
REMARK    5  A    between atoms: N_9  and  C_11 
REMARK    6  A    between atoms: N_10  and  C_25 
REMARK    7  A    between atoms: C_24  and  N_16 
REMARK    8  A    between atoms: C_25  and  C_24 
ROOT
ATOM      1  N   UNL d   1     -56.219-100.264 -44.219  0.00  0.00    -0.209 N 
ATOM      2  C   UNL d   1     -55.864-100.929 -43.887  0.00  0.00     0.197 A 
ATOM      3  O   UNL d   1     -55.126-101.178 -44.125  0.00  0.00    -0.287 OA
ATOM      4  C   UNL d   1     -55.818 -99.833 -44.811  0.00  0.00     0.096 A 
ATOM      5  C   UNL d   1     -55.060-100.086 -45.058  0.00  0.00     0.047 A 
ATOM      6  C   UNL d   1     -54.721-100.753 -44.715  0.00  0.00     0.126 A 
ENDROOT
BRANCH   2   7
ATOM      7  C   UNL d   1     -56.274-101.354 -43.293  0.00  0.00     0.146 C 
BRANCH   7   8
ATOM      8  N   UNL d   1     -55.883-101.585 -42.607  0.00  0.00    -0.199 NA
ATOM      9  C   UNL d   1     -56.229-102.109 -42.083  0.00  0.00     0.337 C 
ATOM     10  O   UNL d   1     -56.981-102.405 -42.253  0.00  0.00    -0.260 OA
BRANCH   9  11
ATOM     11  C   UNL d   1     -55.839-102.339 -41.401  0.00  0.00     0.337 C 
ATOM     12  O   UNL d   1     -55.017-102.413 -41.403  0.00  0.00    -0.260 OA
ATOM     13  N   UNL d   1     -56.263-102.494 -40.718  0.00  0.00    -0.201 NA
BRANCH  13  14
ATOM     14  C   UNL d   1     -55.876-102.722 -40.041  0.00  0.00     0.121 C 
BRANCH  14  15
ATOM     15  C   UNL d   1     -55.517-102.160 -39.554  0.00  0.00     0.101 C 
BRANCH  15  16
ATOM     16  N   UNL d   1     -55.545-102.256 -38.732  0.00  0.00    -0.298 N 
ATOM     17  C   UNL d   1     -55.041-101.821 -38.255  0.00  0.00     0.107 A 
ATOM     18  C   UNL d   1     -55.059-101.908 -37.425  0.00  0.00     0.142 A 
ATOM     19  O   UNL d   1     -55.591-102.438 -37.090  0.00  0.00    -0.300 OA
ATOM     20  C   UNL d   1     -56.103-102.878 -37.597  0.00  0.00     0.142 A 
ATOM     21  C   UNL d   1     -56.078-102.787 -38.392  0.00  0.00     0.107 A 
ENDBRANCH  15  16
ENDBRANCH  14  15
ENDBRANCH  13  14
ENDBRANCH   9  11
ENDBRANCH   7   8
ENDBRANCH   2   7
BRANCH   1  22
ATOM     22  S   UNL d   1     -56.964-100.018 -43.974  0.00  0.00     0.273 S 
ATOM     23  O   UNL d   1     -57.266-100.181 -44.727  0.00  0.00    -0.200 OA
ATOM     24  O   UNL d   1     -56.662 -99.855 -43.224  0.00  0.00    -0.200 OA
BRANCH  22  25
ATOM     25  C   UNL d   1     -57.717 -99.768 -43.724  0.00  0.00     0.104 A 
ATOM     26  C   UNL d   1     -57.938 -99.861 -42.948  0.00  0.00     0.015 A 
ATOM     27  C   UNL d   1     -58.691 -99.613 -42.692  0.00  0.00     0.030 A 
ATOM     28  C   UNL d   1     -59.207 -99.271 -43.235  0.00  0.00     0.140 A 
ATOM     29  C   UNL d   1     -58.985 -99.171 -44.037  0.00  0.00     0.030 A 
ATOM     30  F   UNL d   1     -59.954 -99.023 -42.986  0.00  0.00    -0.204 F 
ATOM     31  C   UNL d   1     -58.239 -99.422 -44.272  0.00  0.00     0.015 A 
ENDBRANCH  22  25
ENDBRANCH   1  22
TORSDOF 8
ENDMDL
