MODEL 1
REMARK VINA RESULT:      -3.4      0.000      0.000
REMARK  5 active torsions:
REMARK  status: ('A' for Active; 'I' for Inactive)
REMARK    1  A    between atoms: C_4  and  S_1 
REMARK    2  A    between atoms: N_5  and  S_1 
REMARK       I    between atoms: N_2  and  C_3 
REMARK    3  A    between atoms: C_3  and  C_6 
REMARK    4  A    between atoms: C_16  and  N_5 
REMARK    5  A    between atoms: C_19  and  C_16 
ROOT
ATOM      1  C   UNL d   1      32.728  17.900 -23.481  0.00  0.00     0.057 A 
ATOM      2  C   UNL d   1      32.866  17.893 -22.665  0.00  0.00     0.005 A 
ATOM      3  C   UNL d   1      32.723  18.621 -23.887  0.00  0.00     0.005 A 
ATOM      4  C   UNL d   1      32.993  19.319 -22.669  0.00  0.00     0.020 A 
ATOM      5  C   UNL d   1      32.999  18.606 -22.261  0.00  0.00     0.002 A 
ATOM      6  C   UNL d   1      32.856  19.332 -23.480  0.00  0.00     0.002 A 
ENDROOT
BRANCH   4   7
ATOM      7  C   UNL d   1      33.124  20.024 -22.267  0.00  0.00     0.112 C 
BRANCH   7   8
ATOM      8  N   UNL d   1      32.520  20.570 -22.173  0.00  0.00    -0.157 NA
BRANCH   8   9
ATOM      9  S   UNL d   1      32.636  21.250 -21.728  0.00  0.00     0.285 S 
ATOM     10  O   UNL d   1      32.044  21.011 -21.211  0.00  0.00    -0.198 OA
ATOM     11  O   UNL d   1      33.234  21.489 -22.252  0.00  0.00    -0.198 OA
BRANCH   9  12
ATOM     12  C   UNL d   1      32.751  21.933 -21.278  0.00  0.00     0.105 A 
ATOM     13  C   UNL d   1      32.684  22.668 -21.625  0.00  0.00     0.012 A 
ATOM     14  C   UNL d   1      32.799  23.354 -21.173  0.00  0.00     0.001 A 
ATOM     15  C   UNL d   1      32.498  22.723 -22.440  0.00  0.00     0.001 C 
ATOM     16  C   UNL d   1      32.980  23.295 -20.379  0.00  0.00     0.000 A 
ATOM     17  C   UNL d   1      33.051  22.553 -20.016  0.00  0.00     0.001 A 
ATOM     18  C   UNL d   1      32.934  21.869 -20.476  0.00  0.00     0.013 A 
ATOM     19  C   UNL d   1      33.234  22.490 -19.215  0.00  0.00     0.000 C 
ENDBRANCH   9  12
ENDBRANCH   8   9
ENDBRANCH   7   8
ENDBRANCH   4   7
BRANCH   1  20
ATOM     20  C   UNL d   1      32.597  17.195 -23.883  0.00  0.00     0.265 C 
ATOM     21  N   UNL d   1      31.821  16.971 -24.091  0.00  0.00    -0.273 N 
ATOM     22  C   UNL d   1      31.688  16.263 -24.495  0.00  0.00     0.067 A 
ATOM     23  C   UNL d   1      31.188  17.456 -23.895  0.00  0.00     0.083 A 
ATOM     24  C   UNL d   1      32.325  15.774 -24.693  0.00  0.00     0.019 C 
ATOM     25  C   UNL d   1      30.921  16.044 -24.700  0.00  0.00     0.018 A 
ATOM     26  C   UNL d   1      30.300  16.536 -24.498  0.00  0.00     0.003 A 
ATOM     27  C   UNL d   1      30.430  17.238 -24.099  0.00  0.00     0.019 A 
ATOM     28  O   UNL d   1      33.235  16.709 -24.079  0.00  0.00    -0.267 OA
ENDBRANCH   1  20
TORSDOF 5
ENDMDL
MODEL 2
REMARK VINA RESULT:      -0.9      1.320      5.791
REMARK  5 active torsions:
REMARK  status: ('A' for Active; 'I' for Inactive)
REMARK    1  A    between atoms: C_4  and  S_1 
REMARK    2  A    between atoms: N_5  and  S_1 
REMARK       I    between atoms: N_2  and  C_3 
REMARK    3  A    between atoms: C_3  and  C_6 
REMARK    4  A    between atoms: C_16  and  N_5 
REMARK    5  A    between atoms: C_19  and  C_16 
ROOT
ATOM      1  C   UNL d   1      32.979  21.064 -22.306  0.00  0.00     0.057 A 
ATOM      2  C   UNL d   1      32.813  20.856 -23.090  0.00  0.00     0.005 A 
ATOM      3  C   UNL d   1      33.193  20.476 -21.765  0.00  0.00     0.005 A 
ATOM      4  C   UNL d   1      33.074  19.482 -22.785  0.00  0.00     0.020 A 
ATOM      5  C   UNL d   1      32.861  20.061 -23.327  0.00  0.00     0.002 A 
ATOM      6  C   UNL d   1      33.240  19.683 -22.005  0.00  0.00     0.002 A 
ENDROOT
BRANCH   4   7
ATOM      7  C   UNL d   1      33.121  18.696 -23.022  0.00  0.00     0.112 C 
BRANCH   7   8
ATOM      8  N   UNL d   1      32.803  18.455 -23.738  0.00  0.00    -0.157 NA
BRANCH   8   9
ATOM      9  S   UNL d   1      32.478  17.707 -23.821  0.00  0.00     0.285 S 
ATOM     10  O   UNL d   1      31.868  18.022 -24.272  0.00  0.00    -0.198 OA
ATOM     11  O   UNL d   1      33.095  17.389 -23.365  0.00  0.00    -0.198 OA
BRANCH   9  12
ATOM     12  C   UNL d   1      32.148  16.953 -23.906  0.00  0.00     0.105 A 
ATOM     13  C   UNL d   1      32.416  16.452 -24.491  0.00  0.00     0.012 A 
ATOM     14  C   UNL d   1      32.085  15.696 -24.576  0.00  0.00     0.001 A 
ATOM     15  C   UNL d   1      33.027  16.707 -25.003  0.00  0.00     0.001 C 
ATOM     16  C   UNL d   1      31.489  15.453 -24.073  0.00  0.00     0.000 A 
ATOM     17  C   UNL d   1      31.209  15.953 -23.476  0.00  0.00     0.001 A 
ATOM     18  C   UNL d   1      31.546  16.710 -23.396  0.00  0.00     0.013 A 
ATOM     19  C   UNL d   1      30.608  15.711 -22.967  0.00  0.00     0.000 C 
ENDBRANCH   9  12
ENDBRANCH   8   9
ENDBRANCH   7   8
ENDBRANCH   4   7
BRANCH   1  20
ATOM     20  C   UNL d   1      32.932  21.850 -22.069  0.00  0.00     0.265 C 
ATOM     21  N   UNL d   1      32.573  22.047 -21.343  0.00  0.00    -0.273 N 
ATOM     22  C   UNL d   1      32.525  22.836 -21.105  0.00  0.00     0.067 A 
ATOM     23  C   UNL d   1      32.267  21.455 -20.864  0.00  0.00     0.083 A 
ATOM     24  C   UNL d   1      32.833  23.433 -21.586  0.00  0.00     0.019 C 
ATOM     25  C   UNL d   1      32.170  23.028 -20.386  0.00  0.00     0.018 A 
ATOM     26  C   UNL d   1      31.869  22.429 -19.919  0.00  0.00     0.003 A 
ATOM     27  C   UNL d   1      31.916  21.647 -20.153  0.00  0.00     0.019 A 
ATOM     28  O   UNL d   1      33.241  22.443 -22.553  0.00  0.00    -0.267 OA
ENDBRANCH   1  20
TORSDOF 5
ENDMDL
