MODEL 1
REMARK VINA RESULT:      -7.2      0.000      0.000
REMARK  6 active torsions:
REMARK  status: ('A' for Active; 'I' for Inactive)
REMARK    1  A    between atoms: C_3  and  C_1 
REMARK    2  A    between atoms: C_7  and  C_2 
REMARK       I    between atoms: N_5  and  C_3 
REMARK    3  A    between atoms: C_6  and  N_5 
REMARK    4  A    between atoms: N_10  and  C_6 
REMARK    5  A    between atoms: C_11  and  N_10 
REMARK    6  A    between atoms: O_18  and  C_15 
ROOT
ATOM      1  C   UNL d   1      53.536  33.388  53.586  0.00  0.00     0.285 C 
ATOM      2  N   UNL d   1      53.459  32.614  53.836  0.00  0.00    -0.179 NA
ATOM      3  O   UNL d   1      53.895  33.541  52.857  0.00  0.00    -0.265 OA
ENDROOT
BRANCH   1   4
ATOM      4  C   UNL d   1      53.268  34.015  54.036  0.00  0.00     0.103 A 
ATOM      5  C   UNL d   1      52.598  34.466  53.866  0.00  0.00     0.116 A 
ATOM      6  N   UNL d   1      52.527  35.037  54.454  0.00  0.00    -0.126 NA
ATOM      7  O   UNL d   1      53.151  34.940  54.986  0.00  0.00    -0.211 OA
ATOM      8  C   UNL d   1      53.597  34.315  54.722  0.00  0.00     0.131 A 
ATOM      9  C   UNL d   1      54.272  34.028  55.087  0.00  0.00     0.029 C 
BRANCH   5  10
ATOM     10  C   UNL d   1      52.092  34.364  53.226  0.00  0.00     0.031 A 
ATOM     11  C   UNL d   1      51.320  34.115  53.348  0.00  0.00     0.059 A 
ATOM     12 CL   UNL d   1      51.054  33.967  54.110  0.00  0.00    -0.082 Cl
ATOM     13  C   UNL d   1      50.822  34.015  52.709  0.00  0.00     0.011 A 
ATOM     14  C   UNL d   1      51.089  34.164  51.940  0.00  0.00     0.001 A 
ATOM     15  C   UNL d   1      51.864  34.414  51.826  0.00  0.00     0.000 A 
ATOM     16  C   UNL d   1      52.377  34.518  52.466  0.00  0.00     0.002 A 
ENDBRANCH   5  10
ENDBRANCH   1   4
BRANCH   2  17
ATOM     17  C   UNL d   1      53.726  31.987  53.385  0.00  0.00     0.224 C 
ATOM     18  S   UNL d   1      54.533  31.931  53.213  0.00  0.00    -0.037 SA
BRANCH  17  19
ATOM     19  N   UNL d   1      53.211  31.414  53.102  0.00  0.00    -0.215 NA
BRANCH  19  20
ATOM     20  C   UNL d   1      53.211  30.669  53.441  0.00  0.00     0.106 A 
ATOM     21  C   UNL d   1      52.495  30.241  53.499  0.00  0.00     0.112 A 
ATOM     22  C   UNL d   1      52.495  29.488  53.841  0.00  0.00     0.026 A 
ATOM     23  C   UNL d   1      53.198  29.162  54.123  0.00  0.00     0.002 A 
ATOM     24  C   UNL d   1      53.910  29.582  54.068  0.00  0.00     0.002 A 
ATOM     25  C   UNL d   1      53.914  30.335  53.727  0.00  0.00     0.021 A 
BRANCH  21  26
ATOM     26  O   UNL d   1      51.800  30.572  53.216  0.00  0.00    -0.327 OA
ATOM     27  C   UNL d   1      51.076  30.273  53.462  0.00  0.00     0.181 C 
ENDBRANCH  21  26
ENDBRANCH  19  20
ENDBRANCH  17  19
ENDBRANCH   2  17
TORSDOF 6
ENDMDL
MODEL 2
REMARK VINA RESULT:      -6.7      1.728      4.192
REMARK  6 active torsions:
REMARK  status: ('A' for Active; 'I' for Inactive)
REMARK    1  A    between atoms: C_3  and  C_1 
REMARK    2  A    between atoms: C_7  and  C_2 
REMARK       I    between atoms: N_5  and  C_3 
REMARK    3  A    between atoms: C_6  and  N_5 
REMARK    4  A    between atoms: N_10  and  C_6 
REMARK    5  A    between atoms: C_11  and  N_10 
REMARK    6  A    between atoms: O_18  and  C_15 
ROOT
ATOM      1  C   UNL d   1      52.942  32.856  53.039  0.00  0.00     0.285 C 
ATOM      2  N   UNL d   1      52.232  33.201  53.251  0.00  0.00    -0.179 NA
ATOM      3  O   UNL d   1      53.436  33.249  52.505  0.00  0.00    -0.265 OA
ENDROOT
BRANCH   1   4
ATOM      4  C   UNL d   1      53.177  32.135  53.341  0.00  0.00     0.103 A 
ATOM      5  C   UNL d   1      53.800  32.025  53.873  0.00  0.00     0.116 A 
ATOM      6  N   UNL d   1      53.851  31.220  54.033  0.00  0.00    -0.126 NA
ATOM      7  O   UNL d   1      53.262  30.832  53.604  0.00  0.00    -0.211 OA
ATOM      8  C   UNL d   1      52.857  31.398  53.185  0.00  0.00     0.131 A 
ATOM      9  C   UNL d   1      52.226  31.254  52.684  0.00  0.00     0.029 C 
BRANCH   5  10
ATOM     10  C   UNL d   1      54.282  32.613  54.185  0.00  0.00     0.031 A 
ATOM     11  C   UNL d   1      54.252  32.787  54.986  0.00  0.00     0.059 A 
ATOM     12 CL   UNL d   1      53.740  32.373  55.474  0.00  0.00    -0.082 Cl
ATOM     13  C   UNL d   1      54.732  33.372  55.291  0.00  0.00     0.011 A 
ATOM     14  C   UNL d   1      55.250  33.792  54.799  0.00  0.00     0.001 A 
ATOM     15  C   UNL d   1      55.274  33.611  53.997  0.00  0.00     0.000 A 
ATOM     16  C   UNL d   1      54.792  33.021  53.677  0.00  0.00     0.002 A 
ENDBRANCH   5  10
ENDBRANCH   1   4
BRANCH   2  17
ATOM     17  C   UNL d   1      51.996  33.923  52.949  0.00  0.00     0.224 C 
ATOM     18  S   UNL d   1      52.370  34.611  53.215  0.00  0.00    -0.037 SA
BRANCH  17  19
ATOM     19  N   UNL d   1      51.398  33.977  52.389  0.00  0.00    -0.215 NA
BRANCH  19  20
ATOM     20  C   UNL d   1      50.687  34.326  52.592  0.00  0.00     0.106 A 
ATOM     21  C   UNL d   1      50.097  34.432  52.009  0.00  0.00     0.112 A 
ATOM     22  C   UNL d   1      49.378  34.785  52.213  0.00  0.00     0.026 A 
ATOM     23  C   UNL d   1      49.244  35.032  52.989  0.00  0.00     0.002 A 
ATOM     24  C   UNL d   1      49.825  34.930  53.570  0.00  0.00     0.002 A 
ATOM     25  C   UNL d   1      50.546  34.577  53.370  0.00  0.00     0.021 A 
BRANCH  21  26
ATOM     26  O   UNL d   1      50.237  34.184  51.239  0.00  0.00    -0.327 OA
ATOM     27  C   UNL d   1      49.648  34.259  50.673  0.00  0.00     0.181 C 
ENDBRANCH  21  26
ENDBRANCH  19  20
ENDBRANCH  17  19
ENDBRANCH   2  17
TORSDOF 6
ENDMDL
MODEL 3
REMARK VINA RESULT:      -5.5      1.924      4.183
REMARK  6 active torsions:
REMARK  status: ('A' for Active; 'I' for Inactive)
REMARK    1  A    between atoms: C_3  and  C_1 
REMARK    2  A    between atoms: C_7  and  C_2 
REMARK       I    between atoms: N_5  and  C_3 
REMARK    3  A    between atoms: C_6  and  N_5 
REMARK    4  A    between atoms: N_10  and  C_6 
REMARK    5  A    between atoms: C_11  and  N_10 
REMARK    6  A    between atoms: O_18  and  C_15 
ROOT
ATOM      1  C   UNL d   1      52.322  34.034  53.872  0.00  0.00     0.285 C 
ATOM      2  N   UNL d   1      52.021  34.388  53.200  0.00  0.00    -0.179 NA
ATOM      3  O   UNL d   1      51.929  33.381  54.192  0.00  0.00    -0.265 OA
ENDROOT
BRANCH   1   4
ATOM      4  C   UNL d   1      53.000  34.306  54.236  0.00  0.00     0.103 A 
ATOM      5  C   UNL d   1      53.679  33.855  54.371  0.00  0.00     0.116 A 
ATOM      6  N   UNL d   1      54.227  34.337  54.748  0.00  0.00    -0.126 NA
ATOM      7  O   UNL d   1      53.892  35.084  54.848  0.00  0.00    -0.211 OA
ATOM      8  C   UNL d   1      53.143  35.055  54.532  0.00  0.00     0.131 A 
ATOM      9  C   UNL d   1      52.614  35.680  54.514  0.00  0.00     0.029 C 
BRANCH   5  10
ATOM     10  C   UNL d   1      53.787  33.066  54.165  0.00  0.00     0.031 A 
ATOM     11  C   UNL d   1      54.341  32.862  53.596  0.00  0.00     0.059 A 
ATOM     12 CL   UNL d   1      54.788  33.447  53.233  0.00  0.00    -0.082 Cl
ATOM     13  C   UNL d   1      54.445  32.078  53.395  0.00  0.00     0.011 A 
ATOM     14  C   UNL d   1      53.995  31.487  53.760  0.00  0.00     0.001 A 
ATOM     15  C   UNL d   1      53.441  31.699  54.329  0.00  0.00     0.000 A 
ATOM     16  C   UNL d   1      53.328  32.490  54.540  0.00  0.00     0.002 A 
ENDBRANCH   5  10
ENDBRANCH   1   4
BRANCH   2  17
ATOM     17  C   UNL d   1      51.342  34.116  52.836  0.00  0.00     0.224 C 
ATOM     18  S   UNL d   1      51.408  33.551  52.236  0.00  0.00    -0.037 SA
BRANCH  17  19
ATOM     19  N   UNL d   1      50.600  34.391  53.054  0.00  0.00    -0.215 NA
BRANCH  19  20
ATOM     20  C   UNL d   1      50.034  34.524  52.479  0.00  0.00     0.106 A 
ATOM     21  C   UNL d   1      49.355  34.976  52.663  0.00  0.00     0.112 A 
ATOM     22  C   UNL d   1      48.783  35.111  52.082  0.00  0.00     0.026 A 
ATOM     23  C   UNL d   1      48.883  34.800  51.324  0.00  0.00     0.002 A 
ATOM     24  C   UNL d   1      49.553  34.353  51.136  0.00  0.00     0.002 A 
ATOM     25  C   UNL d   1      50.128  34.216  51.715  0.00  0.00     0.021 A 
BRANCH  21  26
ATOM     26  O   UNL d   1      49.263  35.281  53.419  0.00  0.00    -0.327 OA
ATOM     27  C   UNL d   1      48.614  35.752  53.593  0.00  0.00     0.181 C 
ENDBRANCH  21  26
ENDBRANCH  19  20
ENDBRANCH  17  19
ENDBRANCH   2  17
TORSDOF 6
ENDMDL
MODEL 4
REMARK VINA RESULT:      -5.2      1.126      2.380
REMARK  6 active torsions:
REMARK  status: ('A' for Active; 'I' for Inactive)
REMARK    1  A    between atoms: C_3  and  C_1 
REMARK    2  A    between atoms: C_7  and  C_2 
REMARK       I    between atoms: N_5  and  C_3 
REMARK    3  A    between atoms: C_6  and  N_5 
REMARK    4  A    between atoms: N_10  and  C_6 
REMARK    5  A    between atoms: C_11  and  N_10 
REMARK    6  A    between atoms: O_18  and  C_15 
ROOT
ATOM      1  C   UNL d   1      53.075  33.282  53.190  0.00  0.00     0.285 C 
ATOM      2  N   UNL d   1      52.684  32.597  53.401  0.00  0.00    -0.179 NA
ATOM      3  O   UNL d   1      53.708  33.236  52.659  0.00  0.00    -0.265 OA
ENDROOT
BRANCH   1   4
ATOM      4  C   UNL d   1      52.859  34.011  53.488  0.00  0.00     0.103 A 
ATOM      5  C   UNL d   1      53.263  34.417  54.083  0.00  0.00     0.116 A 
ATOM      6  N   UNL d   1      52.864  35.124  54.217  0.00  0.00    -0.126 NA
ATOM      7  O   UNL d   1      52.216  35.157  53.707  0.00  0.00    -0.211 OA
ATOM      8  C   UNL d   1      52.222  34.474  53.267  0.00  0.00     0.131 A 
ATOM      9  C   UNL d   1      51.674  34.278  52.690  0.00  0.00     0.029 C 
BRANCH   5  10
ATOM     10  C   UNL d   1      53.941  34.162  54.472  0.00  0.00     0.031 A 
ATOM     11  C   UNL d   1      53.919  34.008  55.277  0.00  0.00     0.059 A 
ATOM     12 CL   UNL d   1      53.219  34.109  55.694  0.00  0.00    -0.082 Cl
ATOM     13  C   UNL d   1      54.594  33.754  55.659  0.00  0.00     0.011 A 
ATOM     14  C   UNL d   1      55.302  33.652  55.241  0.00  0.00     0.001 A 
ATOM     15  C   UNL d   1      55.315  33.808  54.434  0.00  0.00     0.000 A 
ATOM     16  C   UNL d   1      54.637  34.066  54.037  0.00  0.00     0.002 A 
ENDBRANCH   5  10
ENDBRANCH   1   4
BRANCH   2  17
ATOM     17  C   UNL d   1      52.900  31.867  53.103  0.00  0.00     0.224 C 
ATOM     18  S   UNL d   1      52.661  31.659  52.340  0.00  0.00    -0.037 SA
BRANCH  17  19
ATOM     19  N   UNL d   1      53.348  31.341  53.546  0.00  0.00    -0.215 NA
BRANCH  19  20
ATOM     20  C   UNL d   1      53.125  30.555  53.585  0.00  0.00     0.106 A 
ATOM     21  C   UNL d   1      53.248  30.123  54.290  0.00  0.00     0.112 A 
ATOM     22  C   UNL d   1      53.022  29.329  54.329  0.00  0.00     0.026 A 
ATOM     23  C   UNL d   1      52.677  28.965  53.674  0.00  0.00     0.002 A 
ATOM     24  C   UNL d   1      52.553  29.387  52.973  0.00  0.00     0.002 A 
ATOM     25  C   UNL d   1      52.777  30.182  52.930  0.00  0.00     0.021 A 
BRANCH  21  26
ATOM     26  O   UNL d   1      53.591  30.493  54.937  0.00  0.00    -0.327 OA
ATOM     27  C   UNL d   1      53.550  30.140  55.677  0.00  0.00     0.181 C 
ENDBRANCH  21  26
ENDBRANCH  19  20
ENDBRANCH  17  19
ENDBRANCH   2  17
TORSDOF 6
ENDMDL
