MODEL 1
REMARK VINA RESULT:      60.4      0.000      0.000
REMARK  5 active torsions:
REMARK  status: ('A' for Active; 'I' for Inactive)
REMARK    1  A    between atoms: C_2  and  S_1 
REMARK    2  A    between atoms: N_8  and  S_1 
REMARK    3  A    between atoms: C_3  and  C_14 
REMARK    4  A    between atoms: C_17  and  N_8 
REMARK    5  A    between atoms: C_23  and  C_11 
ROOT
ATOM      1  C   UNL d   1     -55.264-101.986 -41.243  0.00  0.00     0.024 A 
ATOM      2  C   UNL d   1     -55.096-101.580 -42.842  0.00  0.00     0.094 A 
ATOM      3  C   UNL d   1     -54.798-101.336 -41.453  0.00  0.00     0.004 A 
ATOM      4  C   UNL d   1     -55.639-102.422 -41.833  0.00  0.00     0.004 A 
ATOM      5  C   UNL d   1     -55.556-102.222 -42.621  0.00  0.00     0.020 A 
ATOM      6  C   UNL d   1     -54.712-101.132 -42.244  0.00  0.00     0.020 A 
ENDROOT
BRANCH   2   7
ATOM      7  N   UNL d   1     -55.011-101.377 -43.628  0.00  0.00    -0.158 NA
BRANCH   7   8
ATOM      8  S   UNL d   1     -55.484-100.789 -43.957  0.00  0.00     0.291 S 
ATOM      9  O   UNL d   1     -56.148-101.176 -43.683  0.00  0.00    -0.198 OA
ATOM     10  O   UNL d   1     -54.820-100.402 -44.230  0.00  0.00    -0.198 OA
BRANCH   8  11
ATOM     11  C   UNL d   1     -55.949-100.200 -44.285  0.00  0.00     0.135 A 
ATOM     12  S   UNL d   1     -56.761-100.233 -44.449  0.00  0.00    -0.074 SA
ATOM     13  C   UNL d   1     -56.995 -99.515 -44.778  0.00  0.00     0.030 A 
ATOM     14  C   UNL d   1     -56.323 -99.032 -44.819  0.00  0.00     0.008 A 
ATOM     15  C   UNL d   1     -55.681 -99.441 -44.521  0.00  0.00     0.020 A 
BRANCH  13  16
ATOM     16  C   UNL d   1     -57.746 -99.319 -45.017  0.00  0.00     0.006 C 
ATOM     17  C   UNL d   1     -58.226 -98.855 -44.524  0.00  0.00     0.001 C 
ENDBRANCH  13  16
ENDBRANCH   8  11
ENDBRANCH   7   8
ENDBRANCH   2   7
BRANCH   1  18
ATOM     18  C   UNL d   1     -55.348-102.188 -40.447  0.00  0.00     0.112 A 
ATOM     19  S   UNL d   1     -56.061-102.255 -40.046  0.00  0.00    -0.047 SA
ATOM     20  C   UNL d   1     -55.893-102.469 -39.252  0.00  0.00     0.130 A 
ATOM     21  N   UNL d   1     -56.379-102.612 -38.603  0.00  0.00    -0.236 NA
ATOM     22  C   UNL d   1     -55.066-102.530 -39.181  0.00  0.00     0.106 A 
ATOM     23  C   UNL d   1     -56.037-102.818 -37.878  0.00  0.00     0.100 A 
ATOM     24  C   UNL d   1     -55.214-102.880 -37.802  0.00  0.00     0.022 A 
ATOM     25  C   UNL d   1     -54.732-102.736 -38.453  0.00  0.00     0.023 A 
ATOM     26  N   UNL d   1     -54.729-102.355 -39.924  0.00  0.00    -0.237 NA
ENDBRANCH   1  18
TORSDOF 5
ENDMDL
