MODEL 1
REMARK VINA RESULT:     143.7      0.000      0.000
REMARK  6 active torsions:
REMARK  status: ('A' for Active; 'I' for Inactive)
REMARK    1  A    between atoms: N_7  and  C_1 
REMARK    2  A    between atoms: S_2  and  C_14 
REMARK    3  A    between atoms: N_9  and  S_2 
REMARK       I    between atoms: C_11  and  N_7 
REMARK       I    between atoms: C_10  and  N_8 
REMARK    4  A    between atoms: O_27  and  C_10 
REMARK    5  A    between atoms: C_19  and  C_11 
REMARK    6  A    between atoms: C_30  and  O_27 
ROOT
ATOM      1  C   UNL d   1      61.486  45.346  50.220  0.00  0.00     0.099 A 
ATOM      2  C   UNL d   1      61.920  45.983  49.924  0.00  0.00     0.091 A 
ATOM      3  C   UNL d   1      61.010  46.486  50.764  0.00  0.00     0.049 A 
ATOM      4  C   UNL d   1      61.630  46.682  50.256  0.00  0.00     0.021 A 
ATOM      5  S   UNL d   1      60.914  45.660  50.747  0.00  0.00    -0.068 SA
ATOM      6  N   UNL d   1      60.828  47.875  51.086  0.00  0.00    -0.251 N 
ATOM      7  C   UNL d   1      60.429  48.465  51.498  0.00  0.00     0.378 C 
ATOM      8  C   UNL d   1      60.605  47.082  51.182  0.00  0.00     0.091 A 
ATOM      9  C   UNL d   1      62.541  45.940  49.386  0.00  0.00     0.103 C 
ATOM     10  N   UNL d   1      63.157  45.884  48.852  0.00  0.00    -0.191 NA
ATOM     11  C   UNL d   1      61.848  47.475  50.164  0.00  0.00     0.020 A 
ATOM     12  C   UNL d   1      61.447  48.065  50.578  0.00  0.00     0.085 A 
ATOM     13  O   UNL d   1      59.810  48.279  52.007  0.00  0.00    -0.237 OA
ENDROOT
BRANCH   1  14
ATOM     14  N   UNL d   1      61.600  44.547  50.027  0.00  0.00    -0.316 N 
ATOM     15  C   UNL d   1      62.072  44.065  50.518  0.00  0.00     0.258 C 
ATOM     16  O   UNL d   1      62.421  44.390  51.194  0.00  0.00    -0.267 OA
ATOM     17  H   UNL d   1      61.554  43.993  49.705  0.00  0.00     0.169 HD
BRANCH  15  18
ATOM     18  C   UNL d   1      62.185  43.267  50.325  0.00  0.00     0.056 A 
ATOM     19  C   UNL d   1      61.908  42.982  49.603  0.00  0.00     0.005 A 
ATOM     20  C   UNL d   1      62.019  42.182  49.402  0.00  0.00     0.013 A 
ATOM     21  C   UNL d   1      62.409  41.678  49.935  0.00  0.00     0.104 A 
ATOM     22  C   UNL d   1      62.684  41.975  50.660  0.00  0.00     0.013 A 
ATOM     23  C   UNL d   1      62.575  42.766  50.857  0.00  0.00     0.005 A 
BRANCH  21  24
ATOM     24  S   UNL d   1      62.521  40.878  49.738  0.00  0.00     0.271 S 
ATOM     25  O   UNL d   1      61.882  40.702  50.242  0.00  0.00    -0.200 OA
ATOM     26  O   UNL d   1      63.154  41.055  49.239  0.00  0.00    -0.200 OA
BRANCH  24  27
ATOM     27  N   UNL d   1      62.630  40.084  49.544  0.00  0.00    -0.229 N 
ATOM     28  C   UNL d   1      62.411  39.435  50.016  0.00  0.00     0.092 A 
ATOM     29  C   UNL d   1      62.619  38.749  49.614  0.00  0.00     0.021 A 
ATOM     30  C   UNL d   1      62.964  38.961  48.898  0.00  0.00     0.021 A 
ATOM     31  C   UNL d   1      62.969  39.784  48.857  0.00  0.00     0.092 A 
ENDBRANCH  24  27
ENDBRANCH  21  24
ENDBRANCH  15  18
ENDBRANCH   1  14
BRANCH   7  32
ATOM     32  O   UNL d   1      60.658  49.262  51.397  0.00  0.00    -0.257 OA
BRANCH  32  33
ATOM     33  C   UNL d   1      60.306  49.707  50.812  0.00  0.00     0.128 C 
ATOM     34  C   UNL d   1      59.498  49.644  50.687  0.00  0.00     0.029 C 
ENDBRANCH  32  33
ENDBRANCH   7  32
TORSDOF 6
ENDMDL
MODEL 2
REMARK VINA RESULT:     145.0      0.939      1.588
REMARK  6 active torsions:
REMARK  status: ('A' for Active; 'I' for Inactive)
REMARK    1  A    between atoms: N_7  and  C_1 
REMARK    2  A    between atoms: S_2  and  C_14 
REMARK    3  A    between atoms: N_9  and  S_2 
REMARK       I    between atoms: C_11  and  N_7 
REMARK       I    between atoms: C_10  and  N_8 
REMARK    4  A    between atoms: O_27  and  C_10 
REMARK    5  A    between atoms: C_19  and  C_11 
REMARK    6  A    between atoms: C_30  and  O_27 
ROOT
ATOM      1  C   UNL d   1      61.312  44.922  50.362  0.00  0.00     0.099 A 
ATOM      2  C   UNL d   1      60.736  45.240  50.862  0.00  0.00     0.091 A 
ATOM      3  C   UNL d   1      61.412  46.268  50.338  0.00  0.00     0.049 A 
ATOM      4  C   UNL d   1      60.796  46.064  50.849  0.00  0.00     0.021 A 
ATOM      5  S   UNL d   1      61.737  45.567  50.033  0.00  0.00    -0.068 SA
ATOM      6  N   UNL d   1      61.174  47.661  50.601  0.00  0.00    -0.251 N 
ATOM      7  C   UNL d   1      61.362  48.453  50.477  0.00  0.00     0.378 C 
ATOM      8  C   UNL d   1      61.604  47.069  50.212  0.00  0.00     0.091 A 
ATOM      9  C   UNL d   1      60.189  44.815  51.305  0.00  0.00     0.103 C 
ATOM     10  N   UNL d   1      59.650  44.382  51.740  0.00  0.00    -0.191 NA
ATOM     11  C   UNL d   1      60.369  46.660  51.235  0.00  0.00     0.020 A 
ATOM     12  C   UNL d   1      60.561  47.453  51.108  0.00  0.00     0.085 A 
ATOM     13  O   UNL d   1      61.975  48.666  49.970  0.00  0.00    -0.237 OA
ENDROOT
BRANCH   1  14
ATOM     14  N   UNL d   1      61.440  44.116  50.218  0.00  0.00    -0.316 N 
ATOM     15  C   UNL d   1      62.214  43.805  50.262  0.00  0.00     0.258 C 
ATOM     16  O   UNL d   1      62.845  44.306  50.448  0.00  0.00    -0.267 OA
ATOM     17  H   UNL d   1      61.314  43.502  50.078  0.00  0.00     0.169 HD
BRANCH  15  18
ATOM     18  C   UNL d   1      62.342  42.998  50.117  0.00  0.00     0.056 A 
ATOM     19  C   UNL d   1      62.644  42.523  50.719  0.00  0.00     0.005 A 
ATOM     20  C   UNL d   1      62.775  41.713  50.583  0.00  0.00     0.013 A 
ATOM     21  C   UNL d   1      62.599  41.391  49.836  0.00  0.00     0.104 A 
ATOM     22  C   UNL d   1      62.296  41.880  49.237  0.00  0.00     0.013 A 
ATOM     23  C   UNL d   1      62.166  42.680  49.374  0.00  0.00     0.005 A 
BRANCH  21  24
ATOM     24  S   UNL d   1      62.730  40.583  49.696  0.00  0.00     0.271 S 
ATOM     25  O   UNL d   1      63.124  40.556  50.430  0.00  0.00    -0.200 OA
ATOM     26  O   UNL d   1      62.339  40.611  48.970  0.00  0.00    -0.200 OA
BRANCH  24  27
ATOM     27  N   UNL d   1      62.860  39.780  49.560  0.00  0.00    -0.229 N 
ATOM     28  C   UNL d   1      62.777  39.392  48.829  0.00  0.00     0.092 A 
ATOM     29  C   UNL d   1      62.960  38.599  48.942  0.00  0.00     0.021 A 
ATOM     30  C   UNL d   1      63.157  38.487  49.733  0.00  0.00     0.021 A 
ATOM     31  C   UNL d   1      63.095  39.216  50.112  0.00  0.00     0.092 A 
ENDBRANCH  24  27
ENDBRANCH  21  24
ENDBRANCH  15  18
ENDBRANCH   1  14
BRANCH   7  32
ATOM     32  O   UNL d   1      60.926  49.045  50.872  0.00  0.00    -0.257 OA
BRANCH  32  33
ATOM     33  C   UNL d   1      61.323  49.651  51.247  0.00  0.00     0.128 C 
ATOM     34  C   UNL d   1      61.385  49.649  52.064  0.00  0.00     0.029 C 
ENDBRANCH  32  33
ENDBRANCH   7  32
TORSDOF 6
ENDMDL
