MODEL 1
REMARK VINA RESULT:      -3.5      0.000      0.000
REMARK  4 active torsions:
REMARK  status: ('A' for Active; 'I' for Inactive)
REMARK    1  A    between atoms: C_12  and  C_2 
REMARK       I    between atoms: C_3  and  N_8 
REMARK    2  A    between atoms: C_5  and  C_3 
REMARK    3  A    between atoms: C_9  and  C_4 
REMARK    4  A    between atoms: N_8  and  C_13 
ROOT
ATOM      1  C   UNL d   1      33.025  18.870 -23.245  0.00  0.00     0.018 A 
ATOM      2  C   UNL d   1      32.990  17.329 -23.827  0.00  0.00     0.085 A 
ATOM      3  C   UNL d   1      33.144  18.728 -24.048  0.00  0.00     0.003 A 
ATOM      4  C   UNL d   1      32.888  18.239 -22.722  0.00  0.00     0.003 A 
ATOM      5  C   UNL d   1      32.871  17.462 -23.021  0.00  0.00     0.019 A 
ATOM      6  C   UNL d   1      33.127  17.964 -24.339  0.00  0.00     0.019 A 
ENDROOT
BRANCH   1   7
ATOM      7  C   UNL d   1      33.043  19.650 -22.950  0.00  0.00     0.088 A 
ATOM      8  N   UNL d   1      32.868  19.883 -22.185  0.00  0.00    -0.239 NA
ATOM      9  C   UNL d   1      32.955  20.697 -22.136  0.00  0.00     0.111 A 
ATOM     10  S   UNL d   1      33.188  20.973 -22.880  0.00  0.00    -0.066 SA
ATOM     11  C   UNL d   1      33.241  20.325 -23.378  0.00  0.00     0.056 A 
BRANCH   9  12
ATOM     12  C   UNL d   1      32.833  21.164 -21.462  0.00  0.00     0.024 A 
ATOM     13  C   UNL d   1      32.309  21.801 -21.492  0.00  0.00     0.002 A 
ATOM     14  C   UNL d   1      32.190  22.268 -20.810  0.00  0.00     0.000 A 
ATOM     15  C   UNL d   1      32.594  22.092 -20.112  0.00  0.00     0.000 A 
ATOM     16  C   UNL d   1      33.124  21.448 -20.084  0.00  0.00     0.000 A 
ATOM     17  C   UNL d   1      33.241  20.988 -20.756  0.00  0.00     0.002 A 
ENDBRANCH   9  12
ENDBRANCH   1   7
BRANCH   2  18
ATOM     18  N   UNL d   1      32.973  16.553 -24.123  0.00  0.00    -0.208 NA
ATOM     19  C   UNL d   1      32.286  16.258 -24.469  0.00  0.00     0.280 C 
ATOM     20  O   UNL d   1      32.267  15.483 -24.766  0.00  0.00    -0.265 OA
BRANCH  19  21
ATOM     21  C   UNL d   1      31.603  16.736 -24.525  0.00  0.00     0.069 A 
ATOM     22  C   UNL d   1      30.944  16.542 -24.081  0.00  0.00     0.062 A 
ATOM     23 CL   UNL d   1      30.947  15.885 -23.583  0.00  0.00    -0.082 Cl
ATOM     24  C   UNL d   1      30.271  17.012 -24.136  0.00  0.00     0.012 A 
ATOM     25  C   UNL d   1      30.261  17.667 -24.629  0.00  0.00     0.001 A 
ATOM     26  C   UNL d   1      30.926  17.854 -25.070  0.00  0.00     0.000 A 
ATOM     27  C   UNL d   1      31.604  17.387 -25.021  0.00  0.00     0.006 A 
ENDBRANCH  19  21
ENDBRANCH   2  18
TORSDOF 4
ENDMDL
MODEL 2
REMARK VINA RESULT:      -3.1      1.581      2.415
REMARK  4 active torsions:
REMARK  status: ('A' for Active; 'I' for Inactive)
REMARK    1  A    between atoms: C_12  and  C_2 
REMARK       I    between atoms: C_3  and  N_8 
REMARK    2  A    between atoms: C_5  and  C_3 
REMARK    3  A    between atoms: C_9  and  C_4 
REMARK    4  A    between atoms: N_8  and  C_13 
ROOT
ATOM      1  C   UNL d   1      31.623  17.595 -24.107  0.00  0.00     0.018 A 
ATOM      2  C   UNL d   1      30.543  16.467 -24.636  0.00  0.00     0.085 A 
ATOM      3  C   UNL d   1      31.542  16.879 -23.707  0.00  0.00     0.003 A 
ATOM      4  C   UNL d   1      31.161  17.755 -24.780  0.00  0.00     0.003 A 
ATOM      5  C   UNL d   1      30.617  17.181 -25.043  0.00  0.00     0.019 A 
ATOM      6  C   UNL d   1      31.007  16.318 -23.968  0.00  0.00     0.019 A 
ENDROOT
BRANCH   1   7
ATOM      7  C   UNL d   1      32.168  18.166 -23.840  0.00  0.00     0.088 A 
ATOM      8  N   UNL d   1      32.104  18.617 -23.159  0.00  0.00    -0.239 NA
ATOM      9  C   UNL d   1      32.761  19.106 -23.110  0.00  0.00     0.111 A 
ATOM     10  S   UNL d   1      33.239  18.957 -23.768  0.00  0.00    -0.066 SA
ATOM     11  C   UNL d   1      32.870  18.377 -24.215  0.00  0.00     0.056 A 
BRANCH   9  12
ATOM     12  C   UNL d   1      32.921  19.654 -22.509  0.00  0.00     0.024 A 
ATOM     13  C   UNL d   1      32.972  20.458 -22.687  0.00  0.00     0.002 A 
ATOM     14  C   UNL d   1      33.133  21.005 -22.077  0.00  0.00     0.000 A 
ATOM     15  C   UNL d   1      33.241  20.741 -21.302  0.00  0.00     0.000 A 
ATOM     16  C   UNL d   1      33.189  19.927 -21.124  0.00  0.00     0.000 A 
ATOM     17  C   UNL d   1      33.030  19.389 -21.725  0.00  0.00     0.002 A 
ENDBRANCH   9  12
ENDBRANCH   1   7
BRANCH   2  18
ATOM     18  N   UNL d   1      30.001  15.897 -24.901  0.00  0.00    -0.208 NA
ATOM     19  C   UNL d   1      29.191  16.030 -24.823  0.00  0.00     0.280 C 
ATOM     20  O   UNL d   1      28.647  15.461 -25.087  0.00  0.00    -0.265 OA
BRANCH  19  21
ATOM     21  C   UNL d   1      28.911  16.738 -24.479  0.00  0.00     0.069 A 
ATOM     22  C   UNL d   1      28.487  16.701 -23.780  0.00  0.00     0.062 A 
ATOM     23 CL   UNL d   1      28.335  15.977 -23.416  0.00  0.00    -0.082 Cl
ATOM     24  C   UNL d   1      28.211  17.397 -23.440  0.00  0.00     0.012 A 
ATOM     25  C   UNL d   1      28.358  18.120 -23.798  0.00  0.00     0.001 A 
ATOM     26  C   UNL d   1      28.784  18.148 -24.498  0.00  0.00     0.000 A 
ATOM     27  C   UNL d   1      29.064  17.454 -24.844  0.00  0.00     0.006 A 
ENDBRANCH  19  21
ENDBRANCH   2  18
TORSDOF 4
ENDMDL
MODEL 3
REMARK VINA RESULT:      -1.2      2.595      5.479
REMARK  4 active torsions:
REMARK  status: ('A' for Active; 'I' for Inactive)
REMARK    1  A    between atoms: C_12  and  C_2 
REMARK       I    between atoms: C_3  and  N_8 
REMARK    2  A    between atoms: C_5  and  C_3 
REMARK    3  A    between atoms: C_9  and  C_4 
REMARK    4  A    between atoms: N_8  and  C_13 
ROOT
ATOM      1  C   UNL d   1      32.515  20.116 -22.213  0.00  0.00     0.018 A 
ATOM      2  C   UNL d   1      32.525  21.158 -20.936  0.00  0.00     0.085 A 
ATOM      3  C   UNL d   1      31.805  20.360 -21.872  0.00  0.00     0.003 A 
ATOM      4  C   UNL d   1      33.241  20.392 -21.916  0.00  0.00     0.003 A 
ATOM      5  C   UNL d   1      33.240  20.919 -21.271  0.00  0.00     0.019 A 
ATOM      6  C   UNL d   1      31.808  20.878 -21.238  0.00  0.00     0.019 A 
ENDROOT
BRANCH   1   7
ATOM      7  C   UNL d   1      32.510  19.589 -22.858  0.00  0.00     0.088 A 
ATOM      8  N   UNL d   1      32.204  18.829 -22.862  0.00  0.00    -0.239 NA
ATOM      9  C   UNL d   1      32.316  18.508 -23.609  0.00  0.00     0.111 A 
ATOM     10  S   UNL d   1      32.696  19.076 -24.075  0.00  0.00    -0.066 SA
ATOM     11  C   UNL d   1      32.813  19.740 -23.609  0.00  0.00     0.056 A 
BRANCH   9  12
ATOM     12  C   UNL d   1      32.090  17.750 -23.857  0.00  0.00     0.024 A 
ATOM     13  C   UNL d   1      31.400  17.650 -24.299  0.00  0.00     0.002 A 
ATOM     14  C   UNL d   1      31.177  16.884 -24.546  0.00  0.00     0.000 A 
ATOM     15  C   UNL d   1      31.645  16.234 -24.348  0.00  0.00     0.000 A 
ATOM     16  C   UNL d   1      32.342  16.337 -23.901  0.00  0.00     0.000 A 
ATOM     17  C   UNL d   1      32.562  17.092 -23.658  0.00  0.00     0.002 A 
ENDBRANCH   9  12
ENDBRANCH   1   7
BRANCH   2  18
ATOM     18  N   UNL d   1      32.527  21.683 -20.293  0.00  0.00    -0.208 NA
ATOM     19  C   UNL d   1      32.550  22.497 -20.424  0.00  0.00     0.280 C 
ATOM     20  O   UNL d   1      32.552  23.023 -19.781  0.00  0.00    -0.265 OA
BRANCH  19  21
ATOM     21  C   UNL d   1      32.571  22.799 -21.202  0.00  0.00     0.069 A 
ATOM     22  C   UNL d   1      31.932  23.227 -21.481  0.00  0.00     0.062 A 
ATOM     23 CL   UNL d   1      31.273  23.361 -21.005  0.00  0.00    -0.082 Cl
ATOM     24  C   UNL d   1      31.952  23.524 -22.248  0.00  0.00     0.012 A 
ATOM     25  C   UNL d   1      32.605  23.393 -22.727  0.00  0.00     0.001 A 
ATOM     26  C   UNL d   1      33.241  22.964 -22.439  0.00  0.00     0.000 A 
ATOM     27  C   UNL d   1      33.227  22.663 -21.671  0.00  0.00     0.006 A 
ENDBRANCH  19  21
ENDBRANCH   2  18
TORSDOF 4
ENDMDL
