MODEL 1
REMARK VINA RESULT:      -6.5      0.000      0.000
REMARK  2 active torsions:
REMARK  status: ('A' for Active; 'I' for Inactive)
REMARK    1  A    between atoms: C_5  and  C_1 
REMARK    2  A    between atoms: C_7  and  C_3 
REMARK       I    between atoms: N_8  and  C_7 
ROOT
ATOM      1  C   UNL d   1     -41.423-122.697 -52.840  0.00  0.00     0.086 A 
ATOM      2  S   UNL d   1     -41.676-123.089 -52.154  0.00  0.00    -0.080 SA
ATOM      3  C   UNL d   1     -41.530-122.588 -51.513  0.00  0.00     0.053 A 
ATOM      4  C   UNL d   1     -41.123-121.961 -52.620  0.00  0.00     0.012 A 
ATOM      5  C   UNL d   1     -41.190-121.894 -51.798  0.00  0.00     0.009 A 
ENDROOT
BRANCH   3   6
ATOM      6  C   UNL d   1     -41.697-122.755 -50.722  0.00  0.00     0.117 A 
ATOM      7  N   UNL d   1     -42.422-122.632 -50.349  0.00  0.00    -0.238 NA
ATOM      8  C   UNL d   1     -42.339-122.877 -49.561  0.00  0.00     0.088 A 
ATOM      9  C   UNL d   1     -42.869-122.886 -48.932  0.00  0.00     0.020 A 
ATOM     10  C   UNL d   1     -41.567-123.149 -49.456  0.00  0.00     0.049 A 
ATOM     11  C   UNL d   1     -42.626-123.166 -48.201  0.00  0.00     0.002 A 
ATOM     12  C   UNL d   1     -41.854-123.437 -48.095  0.00  0.00     0.001 A 
ATOM     13  C   UNL d   1     -41.325-123.429 -48.721  0.00  0.00     0.008 A 
ATOM     14  S   UNL d   1     -41.170-123.072 -50.178  0.00  0.00    -0.066 SA
ENDBRANCH   3   6
BRANCH   1  15
ATOM     15  C   UNL d   1     -41.465-122.997 -53.609  0.00  0.00     0.271 C 
ATOM     16  N   UNL d   1     -41.850-122.565 -54.193  0.00  0.00    -0.267 N 
ATOM     17  C   UNL d   1     -41.891-122.866 -54.957  0.00  0.00     0.110 A 
ATOM     18  C   UNL d   1     -42.188-121.844 -54.012  0.00  0.00     0.110 A 
ATOM     19  C   UNL d   1     -42.273-122.440 -55.543  0.00  0.00     0.142 A 
ATOM     20  O   UNL d   1     -42.616-121.711 -55.365  0.00  0.00    -0.300 OA
ATOM     21  C   UNL d   1     -42.575-121.410 -54.600  0.00  0.00     0.142 A 
ATOM     22  O   UNL d   1     -41.123-123.726 -53.787  0.00  0.00    -0.266 OA
ENDBRANCH   1  15
TORSDOF 2
ENDMDL
MODEL 2
REMARK VINA RESULT:      -6.2      1.745      4.862
REMARK  2 active torsions:
REMARK  status: ('A' for Active; 'I' for Inactive)
REMARK    1  A    between atoms: C_5  and  C_1 
REMARK    2  A    between atoms: C_7  and  C_3 
REMARK       I    between atoms: N_8  and  C_7 
ROOT
ATOM      1  C   UNL d   1     -41.457-122.755 -50.829  0.00  0.00     0.086 A 
ATOM      2  S   UNL d   1     -41.664-122.360 -51.528  0.00  0.00    -0.080 SA
ATOM      3  C   UNL d   1     -41.456-122.849 -52.162  0.00  0.00     0.053 A 
ATOM      4  C   UNL d   1     -41.124-123.482 -51.033  0.00  0.00     0.012 A 
ATOM      5  C   UNL d   1     -41.125-123.539 -51.859  0.00  0.00     0.009 A 
ENDROOT
BRANCH   3   6
ATOM      6  C   UNL d   1     -41.564-122.674 -52.961  0.00  0.00     0.117 A 
ATOM      7  N   UNL d   1     -42.133-122.162 -53.267  0.00  0.00    -0.238 NA
ATOM      8  C   UNL d   1     -42.040-122.153 -54.091  0.00  0.00     0.088 A 
ATOM      9  C   UNL d   1     -42.445-121.749 -54.683  0.00  0.00     0.020 A 
ATOM     10  C   UNL d   1     -41.418-122.658 -54.285  0.00  0.00     0.049 A 
ATOM     11  C   UNL d   1     -42.225-121.852 -55.466  0.00  0.00     0.002 A 
ATOM     12  C   UNL d   1     -41.603-122.357 -55.660  0.00  0.00     0.001 A 
ATOM     13  C   UNL d   1     -41.199-122.760 -55.072  0.00  0.00     0.008 A 
ATOM     14  S   UNL d   1     -41.123-122.981 -53.582  0.00  0.00    -0.066 SA
ENDBRANCH   3   6
BRANCH   1  15
ATOM     15  C   UNL d   1     -41.566-122.467 -50.062  0.00  0.00     0.271 C 
ATOM     16  N   UNL d   1     -42.120-122.824 -49.569  0.00  0.00    -0.267 N 
ATOM     17  C   UNL d   1     -42.227-122.535 -48.807  0.00  0.00     0.110 A 
ATOM     18  C   UNL d   1     -42.557-123.460 -49.837  0.00  0.00     0.110 A 
ATOM     19  C   UNL d   1     -42.776-122.886 -48.311  0.00  0.00     0.142 A 
ATOM     20  O   UNL d   1     -43.220-123.528 -48.578  0.00  0.00    -0.300 OA
ATOM     21  C   UNL d   1     -43.112-123.818 -49.341  0.00  0.00     0.142 A 
ATOM     22  O   UNL d   1     -41.123-121.825 -49.795  0.00  0.00    -0.266 OA
ENDBRANCH   1  15
TORSDOF 2
ENDMDL
MODEL 3
REMARK VINA RESULT:      -5.2      1.778      4.949
REMARK  2 active torsions:
REMARK  status: ('A' for Active; 'I' for Inactive)
REMARK    1  A    between atoms: C_5  and  C_1 
REMARK    2  A    between atoms: C_7  and  C_3 
REMARK       I    between atoms: N_8  and  C_7 
ROOT
ATOM      1  C   UNL d   1     -42.087-122.443 -50.535  0.00  0.00     0.086 A 
ATOM      2  S   UNL d   1     -42.238-122.726 -51.299  0.00  0.00    -0.080 SA
ATOM      3  C   UNL d   1     -41.639-122.443 -51.793  0.00  0.00     0.053 A 
ATOM      4  C   UNL d   1     -41.399-121.988 -50.560  0.00  0.00     0.012 A 
ATOM      5  C   UNL d   1     -41.123-121.989 -51.340  0.00  0.00     0.009 A 
ENDROOT
BRANCH   3   6
ATOM      6  C   UNL d   1     -41.572-122.591 -52.602  0.00  0.00     0.117 A 
ATOM      7  N   UNL d   1     -41.393-123.320 -52.943  0.00  0.00    -0.238 NA
ATOM      8  C   UNL d   1     -41.382-123.213 -53.765  0.00  0.00     0.088 A 
ATOM      9  C   UNL d   1     -41.238-123.736 -54.384  0.00  0.00     0.020 A 
ATOM     10  C   UNL d   1     -41.554-122.422 -53.924  0.00  0.00     0.049 A 
ATOM     11  C   UNL d   1     -41.266-123.467 -55.157  0.00  0.00     0.002 A 
ATOM     12  C   UNL d   1     -41.437-122.676 -55.316  0.00  0.00     0.001 A 
ATOM     13  C   UNL d   1     -41.581-122.154 -54.701  0.00  0.00     0.008 A 
ATOM     14  S   UNL d   1     -41.671-122.037 -53.200  0.00  0.00    -0.066 SA
ENDBRANCH   3   6
BRANCH   1  15
ATOM     15  C   UNL d   1     -42.549-122.592 -49.866  0.00  0.00     0.271 C 
ATOM     16  N   UNL d   1     -42.223-123.001 -49.231  0.00  0.00    -0.267 N 
ATOM     17  C   UNL d   1     -42.685-123.149 -48.566  0.00  0.00     0.110 A 
ATOM     18  C   UNL d   1     -41.448-123.258 -49.263  0.00  0.00     0.110 A 
ATOM     19  C   UNL d   1     -42.366-123.556 -47.931  0.00  0.00     0.142 A 
ATOM     20  O   UNL d   1     -41.584-123.816 -47.960  0.00  0.00    -0.300 OA
ATOM     21  C   UNL d   1     -41.123-123.669 -48.625  0.00  0.00     0.142 A 
ATOM     22  O   UNL d   1     -43.331-122.332 -49.837  0.00  0.00    -0.266 OA
ENDBRANCH   1  15
TORSDOF 2
ENDMDL
