MODEL 1
REMARK VINA RESULT:      55.8      0.000      0.000
REMARK  4 active torsions:
REMARK  status: ('A' for Active; 'I' for Inactive)
REMARK       I    between atoms: N_3  and  C_1 
REMARK    1  A    between atoms: C_9  and  C_1 
REMARK    2  A    between atoms: C_2  and  N_3 
REMARK    3  A    between atoms: O_15  and  C_6 
REMARK    4  A    between atoms: O_16  and  C_8 
ROOT
ATOM      1  C   UNL d   1     -54.816-101.007 -42.965  0.00  0.00     0.109 A 
ATOM      2  C   UNL d   1     -54.807-101.627 -43.504  0.00  0.00     0.046 A 
ATOM      3  C   UNL d   1     -55.035-100.077 -44.033  0.00  0.00     0.039 A 
ATOM      4  C   UNL d   1     -54.931-100.227 -43.236  0.00  0.00     0.113 A 
ATOM      5  C   UNL d   1     -55.026-100.709 -44.582  0.00  0.00     0.082 A 
ATOM      6  C   UNL d   1     -54.912-101.480 -44.309  0.00  0.00     0.106 A 
ATOM      7 CL   UNL d   1     -55.132-100.557 -45.388  0.00  0.00    -0.080 Cl
ENDROOT
BRANCH   1   8
ATOM      8  N   UNL d   1     -54.711-101.157 -42.163  0.00  0.00    -0.206 NA
ATOM      9  C   UNL d   1     -55.108-101.784 -41.808  0.00  0.00     0.279 C 
ATOM     10  O   UNL d   1     -55.611-102.261 -42.255  0.00  0.00    -0.265 OA
BRANCH   9  11
ATOM     11  C   UNL d   1     -55.009-101.940 -41.007  0.00  0.00     0.058 A 
ATOM     12  C   UNL d   1     -54.981-101.320 -40.463  0.00  0.00     0.006 A 
ATOM     13  C   UNL d   1     -54.882-101.475 -39.657  0.00  0.00     0.012 A 
ATOM     14  C   UNL d   1     -54.811-102.257 -39.403  0.00  0.00     0.058 A 
ATOM     15  C   UNL d   1     -54.839-102.880 -39.946  0.00  0.00     0.012 A 
ATOM     16 CL   UNL d   1     -54.711-102.421 -38.599  0.00  0.00    -0.082 Cl
ATOM     17  C   UNL d   1     -54.938-102.714 -40.745  0.00  0.00     0.006 A 
ENDBRANCH   9  11
ENDBRANCH   1   8
BRANCH   4  18
ATOM     18  O   UNL d   1     -54.938 -99.607 -42.692  0.00  0.00    -0.327 OA
ATOM     19  C   UNL d   1     -54.928 -98.827 -42.962  0.00  0.00     0.181 C 
ENDBRANCH   4  18
BRANCH   6  20
ATOM     20  O   UNL d   1     -54.904-102.108 -44.855  0.00  0.00    -0.327 OA
ATOM     21  C   UNL d   1     -55.136-101.968 -45.630  0.00  0.00     0.181 C 
ENDBRANCH   6  20
TORSDOF 4
ENDMDL
