MODEL 1
REMARK VINA RESULT:      14.1      0.000      0.000
REMARK  3 active torsions:
REMARK  status: ('A' for Active; 'I' for Inactive)
REMARK    1  A    between atoms: N_6  and  C_1 
REMARK    2  A    between atoms: C_7  and  C_2 
REMARK    3  A    between atoms: C_9  and  C_5 
ROOT
ATOM      1  C   UNL d   1      46.292 -18.366  43.226  0.00  0.00     0.189 A 
ATOM      2  C   UNL d   1      46.296 -18.555  44.056  0.00  0.00     0.144 A 
ATOM      3  O   UNL d   1      46.150 -17.530  43.181  0.00  0.00    -0.271 OA
ATOM      4  N   UNL d   1      46.166 -17.874  44.482  0.00  0.00    -0.217 NA
ATOM      5  C   UNL d   1      46.078 -17.266  43.978  0.00  0.00     0.184 A 
ENDROOT
BRANCH   5   6
ATOM      6  C   UNL d   1      45.940 -16.509  44.240  0.00  0.00     0.041 A 
ATOM      7  C   UNL d   1      45.275 -16.334  44.700  0.00  0.00     0.004 A 
ATOM      8  C   UNL d   1      45.158 -15.559  44.953  0.00  0.00     0.011 A 
ATOM      9  C   UNL d   1      45.673 -14.973  44.762  0.00  0.00     0.058 A 
ATOM     10  C   UNL d   1      46.339 -15.152  44.300  0.00  0.00     0.011 A 
ATOM     11 CL   UNL d   1      45.674 -14.148  44.951  0.00  0.00    -0.082 Cl
ATOM     12  C   UNL d   1      46.464 -15.932  44.041  0.00  0.00     0.004 A 
ENDBRANCH   5   6
BRANCH   1  13
ATOM     13  N   UNL d   1      46.414 -19.004  42.837  0.00  0.00    -0.284 N 
ATOM     14  C   UNL d   1      46.533 -19.841  42.821  0.00  0.00     0.082 A 
ATOM     15  C   UNL d   1      46.647 -20.220  42.098  0.00  0.00     0.019 A 
ATOM     16  C   UNL d   1      46.645 -19.785  41.383  0.00  0.00     0.003 A 
ATOM     17  C   UNL d   1      46.530 -18.971  41.391  0.00  0.00     0.019 A 
ATOM     18  C   UNL d   1      46.412 -18.569  42.122  0.00  0.00     0.082 A 
ENDBRANCH   1  13
BRANCH   2  19
ATOM     19  C   UNL d   1      46.412 -19.250  44.163  0.00  0.00     0.145 C 
ATOM     20  N   UNL d   1      46.454 -19.961  44.954  0.00  0.00    -0.145 N 
ENDBRANCH   2  19
TORSDOF 3
ENDMDL
