MODEL 1
REMARK VINA RESULT:      -7.3      0.000      0.000
REMARK  7 active torsions:
REMARK  status: ('A' for Active; 'I' for Inactive)
REMARK    1  A    between atoms: C_2  and  S_1 
REMARK    2  A    between atoms: N_3  and  S_1 
REMARK    3  A    between atoms: C_11  and  N_3 
REMARK    4  A    between atoms: C_4  and  C_7 
REMARK       I    between atoms: N_12  and  C_4 
REMARK    5  A    between atoms: C_22  and  N_12 
REMARK    6  A    between atoms: O_20  and  C_24 
REMARK    7  A    between atoms: C_24  and  C_22 
ROOT
ATOM      1  C   UNL d   1     -46.160  13.266  22.377  0.00  0.00     0.058 A 
ATOM      2  C   UNL d   1     -47.646  13.974  22.395  0.00  0.00     0.094 A 
ATOM      3  C   UNL d   1     -46.732  13.038  21.828  0.00  0.00     0.006 A 
ATOM      4  C   UNL d   1     -46.332  13.849  22.936  0.00  0.00     0.006 A 
ATOM      5  C   UNL d   1     -47.474  13.391  21.836  0.00  0.00     0.020 A 
ATOM      6  C   UNL d   1     -47.075  14.203  22.945  0.00  0.00     0.020 A 
ENDROOT
BRANCH   2   7
ATOM      7  N   UNL d   1     -48.388  14.327  22.403  0.00  0.00    -0.158 NA
BRANCH   7   8
ATOM      8  S   UNL d   1     -49.040  13.908  22.686  0.00  0.00     0.285 S 
ATOM      9  O   UNL d   1     -49.214  13.661  21.918  0.00  0.00    -0.198 OA
ATOM     10  O   UNL d   1     -48.863  14.157  23.451  0.00  0.00    -0.198 OA
BRANCH   8  11
ATOM     11  C   UNL d   1     -49.688  13.492  22.975  0.00  0.00     0.105 A 
ATOM     12  C   UNL d   1     -50.420  13.860  23.053  0.00  0.00     0.012 A 
ATOM     13  C   UNL d   1     -51.064  13.436  23.344  0.00  0.00     0.001 A 
ATOM     14  C   UNL d   1     -50.495  14.660  22.834  0.00  0.00     0.001 C 
ATOM     15  C   UNL d   1     -50.980  12.648  23.556  0.00  0.00     0.000 A 
ATOM     16  C   UNL d   1     -50.247  12.276  23.480  0.00  0.00     0.001 A 
ATOM     17  C   UNL d   1     -49.599  12.692  23.190  0.00  0.00     0.013 A 
ATOM     18  C   UNL d   1     -50.166  11.473  23.698  0.00  0.00     0.000 C 
ENDBRANCH   8  11
ENDBRANCH   7   8
ENDBRANCH   2   7
BRANCH   1  19
ATOM     19  C   UNL d   1     -45.406  12.912  22.373  0.00  0.00     0.279 C 
ATOM     20  O   UNL d   1     -45.239  12.283  22.880  0.00  0.00    -0.265 OA
ATOM     21  N   UNL d   1     -44.830  13.194  21.860  0.00  0.00    -0.204 NA
BRANCH  21  22
ATOM     22  C   UNL d   1     -44.082  12.845  21.854  0.00  0.00     0.128 C 
BRANCH  22  23
ATOM     23  C   UNL d   1     -43.491  13.139  21.360  0.00  0.00     0.137 C 
BRANCH  23  24
ATOM     24  O   UNL d   1     -42.840  12.652  21.149  0.00  0.00    -0.325 OA
ATOM     25  C   UNL d   1     -42.085  12.973  21.110  0.00  0.00     0.182 C 
ENDBRANCH  23  24
ENDBRANCH  22  23
ENDBRANCH  21  22
ENDBRANCH   1  19
TORSDOF 7
ENDMDL
MODEL 2
REMARK VINA RESULT:      -6.0      1.181      1.588
REMARK  7 active torsions:
REMARK  status: ('A' for Active; 'I' for Inactive)
REMARK    1  A    between atoms: C_2  and  S_1 
REMARK    2  A    between atoms: N_3  and  S_1 
REMARK    3  A    between atoms: C_11  and  N_3 
REMARK    4  A    between atoms: C_4  and  C_7 
REMARK       I    between atoms: N_12  and  C_4 
REMARK    5  A    between atoms: C_22  and  N_12 
REMARK    6  A    between atoms: O_20  and  C_24 
REMARK    7  A    between atoms: C_24  and  C_22 
ROOT
ATOM      1  C   UNL d   1     -46.080  13.003  22.601  0.00  0.00     0.058 A 
ATOM      2  C   UNL d   1     -47.467  12.432  23.278  0.00  0.00     0.094 A 
ATOM      3  C   UNL d   1     -46.435  12.321  22.300  0.00  0.00     0.006 A 
ATOM      4  C   UNL d   1     -46.419  13.399  23.241  0.00  0.00     0.006 A 
ATOM      5  C   UNL d   1     -47.128  12.037  22.639  0.00  0.00     0.020 A 
ATOM      6  C   UNL d   1     -47.112  13.114  23.579  0.00  0.00     0.020 A 
ENDROOT
BRANCH   2   7
ATOM      7  N   UNL d   1     -48.160  12.147  23.616  0.00  0.00    -0.158 NA
BRANCH   7   8
ATOM      8  S   UNL d   1     -48.888  12.319  23.269  0.00  0.00     0.285 S 
ATOM      9  O   UNL d   1     -48.887  11.582  22.900  0.00  0.00    -0.198 OA
ATOM     10  O   UNL d   1     -48.886  13.055  23.640  0.00  0.00    -0.198 OA
BRANCH   8  11
ATOM     11  C   UNL d   1     -49.614  12.498  22.927  0.00  0.00     0.105 A 
ATOM     12  C   UNL d   1     -50.286  12.064  23.120  0.00  0.00     0.012 A 
ATOM     13  C   UNL d   1     -51.010  12.250  22.772  0.00  0.00     0.001 A 
ATOM     14  C   UNL d   1     -50.220  11.440  23.667  0.00  0.00     0.001 C 
ATOM     15  C   UNL d   1     -51.064  12.867  22.234  0.00  0.00     0.000 A 
ATOM     16  C   UNL d   1     -50.392  13.305  22.038  0.00  0.00     0.001 A 
ATOM     17  C   UNL d   1     -49.666  13.125  22.381  0.00  0.00     0.013 A 
ATOM     18  C   UNL d   1     -50.453  13.932  21.489  0.00  0.00     0.000 C 
ENDBRANCH   8  11
ENDBRANCH   7   8
ENDBRANCH   2   7
BRANCH   1  19
ATOM     19  C   UNL d   1     -45.377  13.297  22.262  0.00  0.00     0.279 C 
ATOM     20  O   UNL d   1     -45.246  14.110  22.214  0.00  0.00    -0.265 OA
ATOM     21  N   UNL d   1     -44.816  12.769  21.976  0.00  0.00    -0.204 NA
BRANCH  21  22
ATOM     22  C   UNL d   1     -44.120  13.058  21.640  0.00  0.00     0.128 C 
BRANCH  22  23
ATOM     23  C   UNL d   1     -43.402  12.678  21.784  0.00  0.00     0.137 C 
BRANCH  23  24
ATOM     24  O   UNL d   1     -42.879  12.514  21.146  0.00  0.00    -0.325 OA
ATOM     25  C   UNL d   1     -42.160  12.905  21.097  0.00  0.00     0.182 C 
ENDBRANCH  23  24
ENDBRANCH  22  23
ENDBRANCH  21  22
ENDBRANCH   1  19
TORSDOF 7
ENDMDL
MODEL 3
REMARK VINA RESULT:      -5.3      1.581      1.826
REMARK  7 active torsions:
REMARK  status: ('A' for Active; 'I' for Inactive)
REMARK    1  A    between atoms: C_2  and  S_1 
REMARK    2  A    between atoms: N_3  and  S_1 
REMARK    3  A    between atoms: C_11  and  N_3 
REMARK    4  A    between atoms: C_4  and  C_7 
REMARK       I    between atoms: N_12  and  C_4 
REMARK    5  A    between atoms: C_22  and  N_12 
REMARK    6  A    between atoms: O_20  and  C_24 
REMARK    7  A    between atoms: C_24  and  C_22 
ROOT
ATOM      1  C   UNL d   1     -46.212  13.302  22.778  0.00  0.00     0.058 A 
ATOM      2  C   UNL d   1     -47.548  14.239  22.995  0.00  0.00     0.094 A 
ATOM      3  C   UNL d   1     -46.804  13.061  23.300  0.00  0.00     0.006 A 
ATOM      4  C   UNL d   1     -46.289  14.012  22.364  0.00  0.00     0.006 A 
ATOM      5  C   UNL d   1     -47.471  13.529  23.408  0.00  0.00     0.020 A 
ATOM      6  C   UNL d   1     -46.956  14.481  22.473  0.00  0.00     0.020 A 
ENDROOT
BRANCH   2   7
ATOM      7  N   UNL d   1     -48.215  14.707  23.103  0.00  0.00    -0.158 NA
BRANCH   7   8
ATOM      8  S   UNL d   1     -48.928  14.496  22.746  0.00  0.00     0.285 S 
ATOM      9  O   UNL d   1     -48.723  14.933  22.078  0.00  0.00    -0.198 OA
ATOM     10  O   UNL d   1     -49.130  14.060  23.415  0.00  0.00    -0.198 OA
BRANCH   8  11
ATOM     11  C   UNL d   1     -49.641  14.281  22.396  0.00  0.00     0.105 A 
ATOM     12  C   UNL d   1     -50.309  14.752  22.485  0.00  0.00     0.012 A 
ATOM     13  C   UNL d   1     -51.020  14.530  22.131  0.00  0.00     0.001 A 
ATOM     14  C   UNL d   1     -50.254  15.452  22.934  0.00  0.00     0.001 C 
ATOM     15  C   UNL d   1     -51.065  13.839  21.691  0.00  0.00     0.000 A 
ATOM     16  C   UNL d   1     -50.396  13.363  21.600  0.00  0.00     0.001 A 
ATOM     17  C   UNL d   1     -49.683  13.579  21.949  0.00  0.00     0.013 A 
ATOM     18  C   UNL d   1     -50.446  12.661  21.150  0.00  0.00     0.000 C 
ENDBRANCH   8  11
ENDBRANCH   7   8
ENDBRANCH   2   7
BRANCH   1  19
ATOM     19  C   UNL d   1     -45.534  12.832  22.664  0.00  0.00     0.279 C 
ATOM     20  O   UNL d   1     -44.933  13.083  22.157  0.00  0.00    -0.265 OA
ATOM     21  N   UNL d   1     -45.468  12.116  23.061  0.00  0.00    -0.204 NA
BRANCH  21  22
ATOM     22  C   UNL d   1     -44.797  11.648  22.950  0.00  0.00     0.128 C 
BRANCH  22  23
ATOM     23  C   UNL d   1     -44.740  10.912  23.317  0.00  0.00     0.137 C 
BRANCH  23  24
ATOM     24  O   UNL d   1     -43.989  10.623  23.562  0.00  0.00    -0.325 OA
ATOM     25  C   UNL d   1     -43.885   9.820  23.697  0.00  0.00     0.182 C 
ENDBRANCH  23  24
ENDBRANCH  22  23
ENDBRANCH  21  22
ENDBRANCH   1  19
TORSDOF 7
ENDMDL
