MODEL 1
REMARK VINA RESULT:      68.9      0.000      0.000
REMARK  4 active torsions:
REMARK  status: ('A' for Active; 'I' for Inactive)
REMARK    1  A    between atoms: S_7  and  C_1 
REMARK       I    between atoms: N_5  and  C_9 
REMARK    2  A    between atoms: C_10  and  S_7 
REMARK    3  A    between atoms: C_15  and  N_8 
REMARK    4  A    between atoms: C_9  and  C_10 
ROOT
ATOM      1  N   UNL d   1     -50.404  27.134  33.878  0.00  0.00    -0.269 N 
ATOM      2  N   UNL d   1     -51.057  25.631  33.652  0.00  0.00    -0.301 N 
ATOM      3  C   UNL d   1     -50.080  27.893  33.988  0.00  0.00     0.271 C 
ATOM      4  C   UNL d   1     -50.049  26.471  34.224  0.00  0.00     0.102 A 
ATOM      5  C   UNL d   1     -51.085  27.049  33.418  0.00  0.00     0.102 A 
ATOM      6  C   UNL d   1     -51.409  26.297  33.308  0.00  0.00     0.100 A 
ATOM      7  C   UNL d   1     -50.373  25.725  34.112  0.00  0.00     0.100 A 
ATOM      8  O   UNL d   1     -50.438  28.554  33.640  0.00  0.00    -0.266 OA
ENDROOT
BRANCH   3   9
ATOM      9  C   UNL d   1     -49.397  27.974  34.449  0.00  0.00     0.097 C 
BRANCH   9  10
ATOM     10  S   UNL d   1     -48.863  28.579  34.274  0.00  0.00    -0.080 SA
BRANCH  10  11
ATOM     11  C   UNL d   1     -48.380  28.886  34.878  0.00  0.00     0.049 A 
ATOM     12  C   UNL d   1     -48.070  28.465  35.512  0.00  0.00     0.087 A 
ATOM     13  N   UNL d   1     -47.626  28.982  35.975  0.00  0.00    -0.245 NA
ATOM     14  C   UNL d   1     -48.188  27.661  35.653  0.00  0.00     0.021 C 
ATOM     15  C   UNL d   1     -47.668  29.731  35.614  0.00  0.00     0.082 A 
ATOM     16  C   UNL d   1     -48.135  29.666  34.939  0.00  0.00     0.025 A 
ATOM     17  C   UNL d   1     -47.337  30.459  35.823  0.00  0.00     0.019 A 
ATOM     18  C   UNL d   1     -48.270  30.328  34.473  0.00  0.00     0.002 A 
ATOM     19  C   UNL d   1     -47.946  31.059  34.671  0.00  0.00     0.000 A 
ATOM     20  C   UNL d   1     -47.474  31.117  35.357  0.00  0.00     0.002 A 
ENDBRANCH  10  11
ENDBRANCH   9  10
ENDBRANCH   3   9
BRANCH   2  21
ATOM     21  C   UNL d   1     -51.385  24.885  33.537  0.00  0.00     0.064 A 
ATOM     22  C   UNL d   1     -50.894  24.229  33.439  0.00  0.00     0.018 A 
ATOM     23  C   UNL d   1     -51.230  23.474  33.322  0.00  0.00     0.002 A 
ATOM     24  C   UNL d   1     -52.054  23.389  33.307  0.00  0.00     0.000 A 
ATOM     25  C   UNL d   1     -52.540  24.045  33.405  0.00  0.00     0.002 A 
ATOM     26  C   UNL d   1     -52.208  24.787  33.520  0.00  0.00     0.018 A 
ENDBRANCH   2  21
TORSDOF 4
ENDMDL
