MODEL 1
REMARK VINA RESULT:      48.3      0.000      0.000
REMARK  3 active torsions:
REMARK  status: ('A' for Active; 'I' for Inactive)
REMARK    1  A    between atoms: N_5  and  C_2 
REMARK    2  A    between atoms: C_8  and  C_3 
REMARK       I    between atoms: C_7  and  N_5 
REMARK    3  A    between atoms: C_10  and  C_7 
ROOT
ATOM      1  N   UNL d   1      59.841  49.708  51.638  0.00  0.00    -0.200 NA
ATOM      2  C   UNL d   1      59.541  49.694  50.878  0.00  0.00     0.216 A 
ATOM      3  C   UNL d   1      60.670  49.688  51.592  0.00  0.00     0.172 A 
ATOM      4  N   UNL d   1      60.874  49.661  50.793  0.00  0.00    -0.187 NA
ATOM      5  S   UNL d   1      60.175  49.665  50.344  0.00  0.00     0.054 SA
ENDROOT
BRANCH   2   6
ATOM      6  N   UNL d   1      58.742  49.706  50.674  0.00  0.00    -0.181 NA
ATOM      7  C   UNL d   1      58.434  49.118  50.190  0.00  0.00     0.281 C 
ATOM      8  O   UNL d   1      58.923  48.518  49.908  0.00  0.00    -0.265 OA
BRANCH   7   9
ATOM      9  C   UNL d   1      57.644  49.130  49.988  0.00  0.00     0.058 A 
ATOM     10  C   UNL d   1      57.063  48.940  50.547  0.00  0.00     0.005 A 
ATOM     11  C   UNL d   1      56.264  48.953  50.342  0.00  0.00     0.000 A 
ATOM     12  C   UNL d   1      56.045  49.155  49.579  0.00  0.00     0.000 A 
ATOM     13  C   UNL d   1      56.609  49.345  49.017  0.00  0.00     0.000 A 
ATOM     14  C   UNL d   1      57.416  49.333  49.223  0.00  0.00     0.005 A 
ENDBRANCH   7   9
ENDBRANCH   2   6
BRANCH   3  15
ATOM     15  C   UNL d   1      61.193  49.694  52.221  0.00  0.00     0.036 A 
ATOM     16  C   UNL d   1      62.005  49.699  52.080  0.00  0.00     0.003 A 
ATOM     17  C   UNL d   1      62.537  49.705  52.716  0.00  0.00     0.000 A 
ATOM     18  C   UNL d   1      62.249  49.705  53.492  0.00  0.00     0.000 A 
ATOM     19  C   UNL d   1      61.432  49.700  53.633  0.00  0.00     0.000 A 
ATOM     20  C   UNL d   1      60.905  49.694  52.992  0.00  0.00     0.003 A 
ENDBRANCH   3  15
TORSDOF 3
ENDMDL
