MODEL 1
REMARK VINA RESULT:      23.9      0.000      0.000
REMARK  2 active torsions:
REMARK  status: ('A' for Active; 'I' for Inactive)
REMARK    1  A    between atoms: C_6  and  C_1 
REMARK    2  A    between atoms: O_12  and  C_9 
ROOT
ATOM      1  C   UNL d   1     -51.569  25.646  33.316  0.00  0.00     0.162 A 
ATOM      2  N   UNL d   1     -52.419  25.607  33.316  0.00  0.00    -0.225 NA
ATOM      3  N   UNL d   1     -51.290  24.869  33.316  0.00  0.00    -0.225 NA
ATOM      4  C   UNL d   1     -52.630  24.830  33.317  0.00  0.00     0.101 A 
ATOM      5  C   UNL d   1     -51.915  24.362  33.317  0.00  0.00     0.101 A 
ATOM      6  C   UNL d   1     -53.337  24.403  33.318  0.00  0.00     0.021 A 
ATOM      7  C   UNL d   1     -51.961  23.539  33.317  0.00  0.00     0.021 A 
ATOM      8  C   UNL d   1     -52.682  23.189  33.318  0.00  0.00     0.002 A 
ATOM      9  C   UNL d   1     -53.373  23.641  33.318  0.00  0.00     0.002 A 
ENDROOT
BRANCH   1  10
ATOM     10  C   UNL d   1     -51.117  26.337  33.315  0.00  0.00     0.036 A 
ATOM     11  C   UNL d   1     -50.293  26.291  33.313  0.00  0.00     0.005 A 
ATOM     12  C   UNL d   1     -49.842  26.982  33.313  0.00  0.00     0.024 A 
ATOM     13  C   UNL d   1     -50.214  27.717  33.313  0.00  0.00     0.094 A 
ATOM     14  C   UNL d   1     -51.041  27.766  33.314  0.00  0.00     0.024 A 
ATOM     15  C   UNL d   1     -51.493  27.076  33.315  0.00  0.00     0.005 A 
BRANCH  13  16
ATOM     16  O   UNL d   1     -49.762  28.408  33.312  0.00  0.00    -0.328 OA
ATOM     17  C   UNL d   1     -49.566  29.134  33.653  0.00  0.00     0.181 C 
ENDBRANCH  13  16
ENDBRANCH   1  10
TORSDOF 2
ENDMDL
