MODEL 1
REMARK VINA RESULT:      16.8      0.000      0.000
REMARK  5 active torsions:
REMARK  status: ('A' for Active; 'I' for Inactive)
REMARK    1  A    between atoms: C_3  and  C_1 
REMARK    2  A    between atoms: C_5  and  C_3 
REMARK    3  A    between atoms: C_13  and  C_5 
REMARK    4  A    between atoms: C_10  and  C_11 
REMARK    5  A    between atoms: O_16  and  C_10 
ROOT
ATOM      1  C   UNL d   1      45.501 -16.408  44.745  0.00  0.00     0.092 C 
ATOM      2  C   UNL d   1      44.691 -16.279  44.851  0.00  0.00     0.103 C 
ATOM      3  N   UNL d   1      43.882 -16.154  44.954  0.00  0.00    -0.191 NA
ENDROOT
BRANCH   1   4
ATOM      4  C   UNL d   1      45.768 -17.124  44.435  0.00  0.00     0.120 A 
ATOM      5  N   UNL d   1      45.926 -17.274  43.634  0.00  0.00    -0.238 NA
ATOM      6  C   UNL d   1      46.181 -18.061  43.572  0.00  0.00     0.088 A 
ATOM      7  C   UNL d   1      46.412 -18.510  42.921  0.00  0.00     0.020 A 
ATOM      8  C   UNL d   1      46.178 -18.389  44.329  0.00  0.00     0.049 A 
ATOM      9  C   UNL d   1      46.642 -19.296  43.032  0.00  0.00     0.002 A 
ATOM     10  C   UNL d   1      46.642 -19.631  43.786  0.00  0.00     0.001 A 
ATOM     11  C   UNL d   1      46.412 -19.183  44.436  0.00  0.00     0.008 A 
ATOM     12  S   UNL d   1      45.923 -17.809  44.861  0.00  0.00    -0.066 SA
ENDBRANCH   1   4
BRANCH   1  13
ATOM     13  C   UNL d   1      46.035 -15.816  44.951  0.00  0.00     0.012 C 
BRANCH  13  14
ATOM     14  C   UNL d   1      45.901 -15.039  44.721  0.00  0.00     0.001 A 
ATOM     15  C   UNL d   1      45.212 -14.656  44.940  0.00  0.00     0.000 A 
ATOM     16  C   UNL d   1      45.074 -13.875  44.711  0.00  0.00     0.005 A 
ATOM     17  C   UNL d   1      45.635 -13.474  44.257  0.00  0.00     0.063 A 
ATOM     18  C   UNL d   1      46.331 -13.852  44.032  0.00  0.00     0.005 A 
ATOM     19  C   UNL d   1      46.470 -14.637  44.263  0.00  0.00     0.000 A 
BRANCH  17  20
ATOM     20  C   UNL d   1      45.497 -12.693  44.028  0.00  0.00     0.296 C 
ATOM     21  O   UNL d   1      45.954 -12.081  44.354  0.00  0.00    -0.259 OA
BRANCH  20  22
ATOM     22  O   UNL d   1      44.909 -12.522  43.478  0.00  0.00    -0.296 OA
ATOM     23  C   UNL d   1      45.102 -12.126  42.777  0.00  0.00     0.185 C 
ENDBRANCH  20  22
ENDBRANCH  17  20
ENDBRANCH  13  14
ENDBRANCH   1  13
TORSDOF 5
ENDMDL
MODEL 2
REMARK VINA RESULT:      17.9      2.357      4.873
REMARK  5 active torsions:
REMARK  status: ('A' for Active; 'I' for Inactive)
REMARK    1  A    between atoms: C_3  and  C_1 
REMARK    2  A    between atoms: C_5  and  C_3 
REMARK    3  A    between atoms: C_13  and  C_5 
REMARK    4  A    between atoms: C_10  and  C_11 
REMARK    5  A    between atoms: O_16  and  C_10 
ROOT
ATOM      1  C   UNL d   1      45.491 -15.597  44.818  0.00  0.00     0.092 C 
ATOM      2  C   UNL d   1      44.738 -15.932  44.887  0.00  0.00     0.103 C 
ATOM      3  N   UNL d   1      43.984 -16.262  44.955  0.00  0.00    -0.191 NA
ENDROOT
BRANCH   1   4
ATOM      4  C   UNL d   1      45.571 -14.792  44.655  0.00  0.00     0.120 A 
ATOM      5  N   UNL d   1      46.166 -14.297  44.955  0.00  0.00    -0.238 NA
ATOM      6  C   UNL d   1      46.036 -13.537  44.649  0.00  0.00     0.088 A 
ATOM      7  C   UNL d   1      46.446 -12.830  44.755  0.00  0.00     0.020 A 
ATOM      8  C   UNL d   1      45.368 -13.568  44.167  0.00  0.00     0.049 A 
ATOM      9  C   UNL d   1      46.180 -12.147  44.371  0.00  0.00     0.002 A 
ATOM     10  C   UNL d   1      45.512 -12.170  43.887  0.00  0.00     0.001 A 
ATOM     11  C   UNL d   1      45.104 -12.876  43.782  0.00  0.00     0.008 A 
ATOM     12  S   UNL d   1      45.082 -14.343  44.171  0.00  0.00    -0.066 SA
ENDBRANCH   1   4
BRANCH   1  13
ATOM     13  C   UNL d   1      46.155 -16.074  44.913  0.00  0.00     0.012 C 
BRANCH  13  14
ATOM     14  C   UNL d   1      46.209 -16.793  44.521  0.00  0.00     0.001 A 
ATOM     15  C   UNL d   1      46.288 -16.816  43.707  0.00  0.00     0.000 A 
ATOM     16  C   UNL d   1      46.342 -17.537  43.310  0.00  0.00     0.005 A 
ATOM     17  C   UNL d   1      46.316 -18.245  43.736  0.00  0.00     0.063 A 
ATOM     18  C   UNL d   1      46.237 -18.231  44.555  0.00  0.00     0.005 A 
ATOM     19  C   UNL d   1      46.182 -17.505  44.955  0.00  0.00     0.000 A 
BRANCH  17  20
ATOM     20  C   UNL d   1      46.370 -18.966  43.339  0.00  0.00     0.296 C 
ATOM     21  O   UNL d   1      46.217 -19.674  43.746  0.00  0.00    -0.259 OA
BRANCH  20  22
ATOM     22  O   UNL d   1      46.575 -18.984  42.542  0.00  0.00    -0.296 OA
ATOM     23  C   UNL d   1      46.471 -19.679  42.104  0.00  0.00     0.185 C 
ENDBRANCH  20  22
ENDBRANCH  17  20
ENDBRANCH  13  14
ENDBRANCH   1  13
TORSDOF 5
ENDMDL
