MODEL 1
REMARK VINA RESULT:      43.2      0.000      0.000
REMARK  8 active torsions:
REMARK  status: ('A' for Active; 'I' for Inactive)
REMARK    1  A    between atoms: N_7  and  N_1 
REMARK    2  A    between atoms: S_9  and  C_2 
REMARK       I    between atoms: C_8  and  N_7 
REMARK    3  A    between atoms: C_21  and  C_8 
REMARK    4  A    between atoms: C_20  and  S_9 
REMARK    5  A    between atoms: C_10  and  C_20 
REMARK       I    between atoms: N_14  and  C_10 
REMARK    6  A    between atoms: C_12  and  C_22 
REMARK    7  A    between atoms: C_22  and  N_14 
REMARK    8  A    between atoms: C_24  and  C_21 
ROOT
ATOM      1  N   UNL d   1      46.311 -17.581  43.145  0.00  0.00    -0.168 N 
ATOM      2  C   UNL d   1      46.309 -18.099  42.512  0.00  0.00     0.199 A 
ATOM      3  C   UNL d   1      46.270 -17.875  43.928  0.00  0.00     0.283 A 
ATOM      4  N   UNL d   1      46.266 -18.929  42.642  0.00  0.00    -0.221 NA
ATOM      5  C   UNL d   1      46.227 -18.707  44.051  0.00  0.00     0.076 A 
ATOM      6  C   UNL d   1      46.225 -19.224  43.407  0.00  0.00     0.088 A 
ATOM      7  O   UNL d   1      46.273 -17.351  44.567  0.00  0.00    -0.265 OA
ATOM      8  C   UNL d   1      46.187 -18.993  44.827  0.00  0.00     0.006 A 
ATOM      9  C   UNL d   1      46.182 -20.039  43.551  0.00  0.00     0.019 A 
ATOM     10  C   UNL d   1      46.145 -19.806  44.953  0.00  0.00     0.000 A 
ATOM     11  C   UNL d   1      46.142 -20.330  44.314  0.00  0.00     0.002 A 
ENDROOT
BRANCH   2  12
ATOM     12  S   UNL d   1      46.348 -17.820  41.755  0.00  0.00    -0.043 SA
BRANCH  12  13
ATOM     13  C   UNL d   1      45.721 -17.937  41.235  0.00  0.00     0.101 C 
BRANCH  13  14
ATOM     14  C   UNL d   1      45.851 -17.922  40.421  0.00  0.00     0.286 C 
ATOM     15  N   UNL d   1      45.297 -17.577  39.921  0.00  0.00    -0.204 NA
ATOM     16  O   UNL d   1      46.541 -18.255  40.104  0.00  0.00    -0.265 OA
BRANCH  15  17
ATOM     17  C   UNL d   1      45.434 -17.566  39.107  0.00  0.00     0.127 C 
BRANCH  17  18
ATOM     18  C   UNL d   1      44.992 -17.047  38.630  0.00  0.00     0.119 A 
ATOM     19  O   UNL d   1      44.310 -16.650  38.850  0.00  0.00    -0.304 OA
ATOM     20  C   UNL d   1      44.059 -16.197  38.207  0.00  0.00     0.123 A 
ATOM     21  C   UNL d   1      44.591 -16.316  37.584  0.00  0.00     0.029 A 
ATOM     22  C   UNL d   1      45.172 -16.845  37.848  0.00  0.00     0.028 A 
ENDBRANCH  17  18
ENDBRANCH  15  17
ENDBRANCH  13  14
ENDBRANCH  12  13
ENDBRANCH   2  12
BRANCH   1  23
ATOM     23  N   UNL d   1      46.353 -16.781  43.023  0.00  0.00    -0.119 NA
ATOM     24  C   UNL d   1      46.129 -16.258  43.627  0.00  0.00     0.296 C 
ATOM     25  O   UNL d   1      45.865 -16.556  44.348  0.00  0.00    -0.264 OA
BRANCH  24  26
ATOM     26  C   UNL d   1      46.171 -15.443  43.504  0.00  0.00     0.064 C 
BRANCH  26  27
ATOM     27  C   UNL d   1      45.747 -14.937  43.988  0.00  0.00     0.005 A 
ATOM     28  C   UNL d   1      46.070 -14.213  44.187  0.00  0.00     0.000 A 
ATOM     29  C   UNL d   1      45.642 -13.702  44.676  0.00  0.00     0.000 A 
ATOM     30  C   UNL d   1      44.904 -13.922  44.954  0.00  0.00     0.000 A 
ATOM     31  C   UNL d   1      44.592 -14.653  44.744  0.00  0.00     0.000 A 
ATOM     32  C   UNL d   1      45.012 -15.153  44.266  0.00  0.00     0.000 A 
ENDBRANCH  26  27
ENDBRANCH  24  26
ENDBRANCH   1  23
TORSDOF 8
ENDMDL
