MODEL 1
REMARK VINA RESULT:      17.5      0.000      0.000
REMARK  3 active torsions:
REMARK  status: ('A' for Active; 'I' for Inactive)
REMARK    1  A    between atoms: S_4  and  C_1 
REMARK    2  A    between atoms: C_8  and  S_4 
REMARK    3  A    between atoms: C_9  and  C_8 
ROOT
ATOM      1  C   UNL d   1      45.393 -15.659  44.294  0.00  0.00     0.114 A 
ATOM      2  C   UNL d   1      45.640 -14.874  44.345  0.00  0.00     0.042 A 
ATOM      3  N   UNL d   1      44.649 -15.871  44.574  0.00  0.00    -0.217 NA
ATOM      4  N   UNL d   1      44.400 -14.514  44.953  0.00  0.00    -0.224 NA
ATOM      5  C   UNL d   1      44.151 -15.296  44.904  0.00  0.00     0.200 A 
ATOM      6  C   UNL d   1      45.145 -14.302  44.674  0.00  0.00     0.085 A 
ATOM      7  C   UNL d   1      46.385 -14.663  44.066  0.00  0.00     0.004 A 
ATOM      8  C   UNL d   1      45.397 -13.517  44.723  0.00  0.00     0.019 A 
ATOM      9  C   UNL d   1      46.645 -13.874  44.112  0.00  0.00     0.000 A 
ATOM     10  C   UNL d   1      46.142 -13.305  44.444  0.00  0.00     0.002 A 
ENDROOT
BRANCH   1  11
ATOM     11  S   UNL d   1      45.894 -16.236  43.962  0.00  0.00    -0.067 SA
BRANCH  11  12
ATOM     12  C   UNL d   1      45.890 -17.002  44.253  0.00  0.00     0.037 C 
BRANCH  12  13
ATOM     13  C   UNL d   1      46.139 -17.626  43.773  0.00  0.00     0.006 A 
ATOM     14  C   UNL d   1      46.366 -18.352  44.124  0.00  0.00     0.001 A 
ATOM     15  C   UNL d   1      46.338 -18.439  44.944  0.00  0.00     0.000 C 
ATOM     16  C   UNL d   1      46.616 -18.975  43.635  0.00  0.00     0.000 A 
ATOM     17  C   UNL d   1      46.640 -18.881  42.825  0.00  0.00     0.000 A 
ATOM     18  C   UNL d   1      46.416 -18.165  42.486  0.00  0.00     0.000 A 
ATOM     19  C   UNL d   1      46.164 -17.531  42.955  0.00  0.00     0.001 A 
ENDBRANCH  12  13
ENDBRANCH  11  12
ENDBRANCH   1  11
TORSDOF 3
ENDMDL
MODEL 2
REMARK VINA RESULT:      20.0      0.846      1.723
REMARK  3 active torsions:
REMARK  status: ('A' for Active; 'I' for Inactive)
REMARK    1  A    between atoms: S_4  and  C_1 
REMARK    2  A    between atoms: C_8  and  S_4 
REMARK    3  A    between atoms: C_9  and  C_8 
ROOT
ATOM      1  C   UNL d   1      45.958 -15.591  44.384  0.00  0.00     0.114 A 
ATOM      2  C   UNL d   1      45.279 -15.150  44.541  0.00  0.00     0.042 A 
ATOM      3  N   UNL d   1      46.642 -15.210  44.132  0.00  0.00    -0.217 NA
ATOM      4  N   UNL d   1      45.968 -13.949  44.195  0.00  0.00    -0.224 NA
ATOM      5  C   UNL d   1      46.647 -14.386  44.037  0.00  0.00     0.200 A 
ATOM      6  C   UNL d   1      45.284 -14.330  44.447  0.00  0.00     0.085 A 
ATOM      7  C   UNL d   1      44.595 -15.531  44.793  0.00  0.00     0.004 A 
ATOM      8  C   UNL d   1      44.601 -13.893  44.606  0.00  0.00     0.019 A 
ATOM      9  C   UNL d   1      43.904 -15.098  44.955  0.00  0.00     0.000 A 
ATOM     10  C   UNL d   1      43.917 -14.274  44.858  0.00  0.00     0.002 A 
ENDROOT
BRANCH   1  11
ATOM     11  S   UNL d   1      45.952 -16.419  44.479  0.00  0.00    -0.067 SA
BRANCH  11  12
ATOM     12  C   UNL d   1      46.127 -16.907  43.845  0.00  0.00     0.037 C 
BRANCH  12  13
ATOM     13  C   UNL d   1      46.231 -17.718  43.967  0.00  0.00     0.006 A 
ATOM     14  C   UNL d   1      46.316 -18.227  43.308  0.00  0.00     0.001 A 
ATOM     15  C   UNL d   1      46.297 -17.916  42.543  0.00  0.00     0.000 C 
ATOM     16  C   UNL d   1      46.420 -19.041  43.438  0.00  0.00     0.000 A 
ATOM     17  C   UNL d   1      46.438 -19.339  44.197  0.00  0.00     0.000 A 
ATOM     18  C   UNL d   1      46.353 -18.834  44.840  0.00  0.00     0.000 A 
ATOM     19  C   UNL d   1      46.249 -18.020  44.733  0.00  0.00     0.001 A 
ENDBRANCH  12  13
ENDBRANCH  11  12
ENDBRANCH   1  11
TORSDOF 3
ENDMDL
