MODEL 1
REMARK VINA RESULT:      18.5      0.000      0.000
REMARK  9 active torsions:
REMARK  status: ('A' for Active; 'I' for Inactive)
REMARK    1  A    between atoms: C_2  and  S_1 
REMARK    2  A    between atoms: N_3  and  S_1 
REMARK    3  A    between atoms: C_14  and  N_3 
REMARK    4  A    between atoms: C_15  and  N_3 
REMARK    5  A    between atoms: C_6  and  C_7 
REMARK    6  A    between atoms: C_7  and  C_8 
REMARK    7  A    between atoms: C_8  and  C_12 
REMARK    8  A    between atoms: C_21  and  C_14 
REMARK    9  A    between atoms: C_20  and  C_15 
ROOT
ATOM      1  C   UNL d   1      45.676 -16.448  44.273  0.00  0.00     0.104 A 
ATOM      2  C   UNL d   1      44.985 -16.477  44.729  0.00  0.00     0.012 A 
ATOM      3  C   UNL d   1      45.996 -15.709  44.042  0.00  0.00     0.013 A 
ATOM      4  C   UNL d   1      45.626 -15.020  44.268  0.00  0.00     0.001 A 
ATOM      5  C   UNL d   1      44.615 -15.788  44.955  0.00  0.00     0.001 A 
ATOM      6  C   UNL d   1      44.926 -15.051  44.730  0.00  0.00     0.000 A 
ATOM      7  C   UNL d   1      44.675 -17.208  44.953  0.00  0.00     0.001 C 
ENDROOT
BRANCH   1   8
ATOM      8  S   UNL d   1      46.055 -17.156  44.041  0.00  0.00     0.272 S 
ATOM      9  O   UNL d   1      45.555 -17.209  43.382  0.00  0.00    -0.200 OA
ATOM     10  O   UNL d   1      46.551 -17.104  44.694  0.00  0.00    -0.200 OA
BRANCH   8  11
ATOM     11  N   UNL d   1      46.426 -17.846  43.816  0.00  0.00    -0.223 N 
BRANCH  11  12
ATOM     12  C   UNL d   1      46.635 -17.966  43.011  0.00  0.00     0.137 C 
BRANCH  12  13
ATOM     13  C   UNL d   1      46.231 -18.511  42.562  0.00  0.00     0.254 C 
ATOM     14  O   UNL d   1      45.979 -18.321  41.803  0.00  0.00    -0.281 OA
ENDBRANCH  12  13
ENDBRANCH  11  12
BRANCH  11  15
ATOM     15  C   UNL d   1      46.598 -18.433  44.376  0.00  0.00     0.137 C 
BRANCH  15  16
ATOM     16  C   UNL d   1      46.645 -19.222  44.131  0.00  0.00     0.254 C 
ATOM     17  O   UNL d   1      46.448 -19.818  44.667  0.00  0.00    -0.281 OA
ENDBRANCH  15  16
ENDBRANCH  11  15
ENDBRANCH   8  11
ENDBRANCH   1   8
BRANCH   4  18
ATOM     18  C   UNL d   1      45.932 -14.287  44.046  0.00  0.00     0.006 C 
BRANCH  18  19
ATOM     19  C   UNL d   1      45.549 -13.600  44.270  0.00  0.00     0.070 C 
BRANCH  19  20
ATOM     20  C   UNL d   1      45.759 -12.871  43.955  0.00  0.00     0.211 C 
ATOM     21  O   UNL d   1      46.288 -12.379  44.378  0.00  0.00    -0.644 OA
ATOM     22  O   UNL d   1      45.462 -12.623  43.245  0.00  0.00    -0.644 OA
ENDBRANCH  19  20
ENDBRANCH  18  19
ENDBRANCH   4  18
TORSDOF 9
ENDMDL
MODEL 2
REMARK VINA RESULT:      19.1      1.450      4.454
REMARK  9 active torsions:
REMARK  status: ('A' for Active; 'I' for Inactive)
REMARK    1  A    between atoms: C_2  and  S_1 
REMARK    2  A    between atoms: N_3  and  S_1 
REMARK    3  A    between atoms: C_14  and  N_3 
REMARK    4  A    between atoms: C_15  and  N_3 
REMARK    5  A    between atoms: C_6  and  C_7 
REMARK    6  A    between atoms: C_7  and  C_8 
REMARK    7  A    between atoms: C_8  and  C_12 
REMARK    8  A    between atoms: C_21  and  C_14 
REMARK    9  A    between atoms: C_20  and  C_15 
ROOT
ATOM      1  C   UNL d   1      45.505 -15.042  44.316  0.00  0.00     0.104 A 
ATOM      2  C   UNL d   1      44.819 -15.252  44.729  0.00  0.00     0.012 A 
ATOM      3  C   UNL d   1      46.055 -15.632  44.085  0.00  0.00     0.013 A 
ATOM      4  C   UNL d   1      45.911 -16.412  44.269  0.00  0.00     0.001 A 
ATOM      5  C   UNL d   1      44.676 -16.032  44.913  0.00  0.00     0.001 A 
ATOM      6  C   UNL d   1      45.214 -16.623  44.689  0.00  0.00     0.000 A 
ATOM      7  C   UNL d   1      44.283 -14.666  44.953  0.00  0.00     0.001 C 
ENDROOT
BRANCH   1   8
ATOM      8  S   UNL d   1      45.653 -14.241  44.127  0.00  0.00     0.272 S 
ATOM      9  O   UNL d   1      45.644 -14.049  44.933  0.00  0.00    -0.200 OA
ATOM     10  O   UNL d   1      45.662 -14.432  43.328  0.00  0.00    -0.200 OA
BRANCH   8  11
ATOM     11  N   UNL d   1      45.797 -13.461  43.942  0.00  0.00    -0.223 N 
BRANCH  11  12
ATOM     12  C   UNL d   1      45.332 -13.074  43.358  0.00  0.00     0.137 C 
BRANCH  12  13
ATOM     13  C   UNL d   1      45.685 -12.784  42.685  0.00  0.00     0.254 C 
ATOM     14  O   UNL d   1      45.394 -12.105  42.322  0.00  0.00    -0.281 OA
ENDBRANCH  12  13
ENDBRANCH  11  12
BRANCH  11  15
ATOM     15  C   UNL d   1      46.401 -13.042  44.328  0.00  0.00     0.137 C 
BRANCH  15  16
ATOM     16  C   UNL d   1      46.237 -12.293  44.640  0.00  0.00     0.254 C 
ATOM     17  O   UNL d   1      45.488 -12.148  44.953  0.00  0.00    -0.281 OA
ENDBRANCH  15  16
ENDBRANCH  11  15
ENDBRANCH   8  11
ENDBRANCH   1   8
BRANCH   4  18
ATOM     18  C   UNL d   1      46.444 -17.001  44.048  0.00  0.00     0.006 C 
BRANCH  18  19
ATOM     19  C   UNL d   1      46.337 -17.768  44.311  0.00  0.00     0.070 C 
BRANCH  19  20
ATOM     20  C   UNL d   1      46.356 -18.405  43.792  0.00  0.00     0.211 C 
ATOM     21  O   UNL d   1      46.643 -19.143  44.062  0.00  0.00    -0.644 OA
ATOM     22  O   UNL d   1      46.101 -18.328  43.029  0.00  0.00    -0.644 OA
ENDBRANCH  19  20
ENDBRANCH  18  19
ENDBRANCH   4  18
TORSDOF 9
ENDMDL
