MODEL 1
REMARK VINA RESULT:       1.6      0.000      0.000
REMARK  1 active torsions:
REMARK  status: ('A' for Active; 'I' for Inactive)
REMARK    1  A    between atoms: C_5  and  C_1 
ROOT
ATOM      1  C   UNL d   1     -51.198  24.735  33.313  0.00  0.00     0.169 A 
ATOM      2  N   UNL d   1     -50.747  24.042  33.309  0.00  0.00    -0.142 NA
ATOM      3  C   UNL d   1     -51.998  24.522  33.315  0.00  0.00     0.048 A 
ATOM      4  N   UNL d   1     -51.275  23.411  33.309  0.00  0.00    -0.148 NA
ATOM      5  C   UNL d   1     -52.043  23.717  33.313  0.00  0.00     0.105 A 
ATOM      6  C   UNL d   1     -52.740  23.275  33.314  0.00  0.00     0.023 C 
ENDROOT
BRANCH   1   7
ATOM      7  C   UNL d   1     -50.898  25.500  33.313  0.00  0.00     0.231 C 
ATOM      8  O   UNL d   1     -51.408  26.146  33.320  0.00  0.00    -0.643 OA
ATOM      9  O   UNL d   1     -50.082  25.621  33.308  0.00  0.00    -0.643 OA
ENDBRANCH   1   7
TORSDOF 1
ENDMDL
MODEL 2
REMARK VINA RESULT:       2.7      1.628      2.290
REMARK  1 active torsions:
REMARK  status: ('A' for Active; 'I' for Inactive)
REMARK    1  A    between atoms: C_5  and  C_1 
ROOT
ATOM      1  C   UNL d   1     -52.461  24.066  33.361  0.00  0.00     0.169 A 
ATOM      2  N   UNL d   1     -51.924  23.443  33.432  0.00  0.00    -0.142 NA
ATOM      3  C   UNL d   1     -52.031  24.771  33.306  0.00  0.00     0.048 A 
ATOM      4  N   UNL d   1     -51.170  23.771  33.420  0.00  0.00    -0.148 NA
ATOM      5  C   UNL d   1     -51.247  24.590  33.342  0.00  0.00     0.105 A 
ATOM      6  C   UNL d   1     -50.626  25.133  33.307  0.00  0.00     0.023 C 
ENDROOT
BRANCH   1   7
ATOM      7  C   UNL d   1     -53.280  23.993  33.348  0.00  0.00     0.231 C 
ATOM      8  O   UNL d   1     -53.757  24.664  33.316  0.00  0.00    -0.643 OA
ATOM      9  O   UNL d   1     -53.625  23.244  33.366  0.00  0.00    -0.643 OA
ENDBRANCH   1   7
TORSDOF 1
ENDMDL
