MODEL 1
REMARK VINA RESULT:      -2.7      0.000      0.000
REMARK  2 active torsions:
REMARK  status: ('A' for Active; 'I' for Inactive)
REMARK    1  A    between atoms: C_5  and  C_1 
REMARK    2  A    between atoms: N_7  and  C_3 
REMARK       I    between atoms: C_8  and  N_7 
ROOT
ATOM      1  C   UNL d   1      31.684  17.022 -23.782  0.00  0.00     0.231 A 
ATOM      2  O   UNL d   1      30.858  17.040 -23.815  0.00  0.00    -0.252 OA
ATOM      3  C   UNL d   1      30.593  16.267 -23.920  0.00  0.00     0.297 A 
ATOM      4  N   UNL d   1      31.919  16.242 -23.866  0.00  0.00    -0.117 NA
ATOM      5  N   UNL d   1      31.247  15.777 -23.951  0.00  0.00    -0.101 NA
ENDROOT
BRANCH   1   6
ATOM      6  C   UNL d   1      32.176  17.680 -23.682  0.00  0.00     0.168 A 
ATOM      7  O   UNL d   1      32.470  17.855 -22.936  0.00  0.00    -0.297 OA
ATOM      8  C   UNL d   1      32.955  18.503 -22.837  0.00  0.00     0.149 A 
ATOM      9  C   UNL d   1      33.149  18.977 -23.476  0.00  0.00     0.149 A 
ATOM     10  O   UNL d   1      32.860  18.811 -24.225  0.00  0.00    -0.299 OA
ATOM     11  C   UNL d   1      32.373  18.160 -24.326  0.00  0.00     0.151 A 
ENDBRANCH   1   6
BRANCH   3  12
ATOM     12  N   UNL d   1      29.805  16.039 -23.981  0.00  0.00    -0.165 NA
ATOM     13  C   UNL d   1      29.429  15.681 -23.353  0.00  0.00     0.282 C 
ATOM     14  O   UNL d   1      29.837  15.539 -22.641  0.00  0.00    -0.265 OA
ATOM     15  C   UNL d   1      28.637  15.453 -23.416  0.00  0.00     0.068 C 
ENDBRANCH   3  12
TORSDOF 2
ENDMDL
MODEL 2
REMARK VINA RESULT:      -2.7      2.993      4.182
REMARK  2 active torsions:
REMARK  status: ('A' for Active; 'I' for Inactive)
REMARK    1  A    between atoms: C_5  and  C_1 
REMARK    2  A    between atoms: N_7  and  C_3 
REMARK       I    between atoms: C_8  and  N_7 
ROOT
ATOM      1  C   UNL d   1      32.906  20.198 -21.875  0.00  0.00     0.231 A 
ATOM      2  O   UNL d   1      32.940  20.003 -22.678  0.00  0.00    -0.252 OA
ATOM      3  C   UNL d   1      33.147  19.208 -22.736  0.00  0.00     0.297 A 
ATOM      4  N   UNL d   1      33.092  19.525 -21.448  0.00  0.00    -0.117 NA
ATOM      5  N   UNL d   1      33.241  18.915 -21.979  0.00  0.00    -0.101 NA
ENDROOT
BRANCH   1   6
ATOM      6  C   UNL d   1      32.717  20.943 -21.568  0.00  0.00     0.168 A 
ATOM      7  O   UNL d   1      33.109  21.608 -21.849  0.00  0.00    -0.297 OA
ATOM      8  C   UNL d   1      32.923  22.341 -21.547  0.00  0.00     0.149 A 
ATOM      9  C   UNL d   1      32.350  22.418 -20.967  0.00  0.00     0.149 A 
ATOM     10  O   UNL d   1      31.953  21.761 -20.679  0.00  0.00    -0.299 OA
ATOM     11  C   UNL d   1      32.139  21.023 -20.982  0.00  0.00     0.151 A 
ENDBRANCH   1   6
BRANCH   3  12
ATOM     12  N   UNL d   1      33.241  18.792 -23.439  0.00  0.00    -0.165 NA
ATOM     13  C   UNL d   1      32.661  18.281 -23.696  0.00  0.00     0.282 C 
ATOM     14  O   UNL d   1      31.966  18.172 -23.251  0.00  0.00    -0.265 OA
ATOM     15  C   UNL d   1      32.757  17.863 -24.403  0.00  0.00     0.068 C 
ENDBRANCH   3  12
TORSDOF 2
ENDMDL
MODEL 3
REMARK VINA RESULT:      -2.6      0.874      3.579
REMARK  2 active torsions:
REMARK  status: ('A' for Active; 'I' for Inactive)
REMARK    1  A    between atoms: C_5  and  C_1 
REMARK    2  A    between atoms: N_7  and  C_3 
REMARK       I    between atoms: C_8  and  N_7 
ROOT
ATOM      1  C   UNL d   1      30.759  16.496 -23.981  0.00  0.00     0.231 A 
ATOM      2  O   UNL d   1      30.943  17.297 -23.890  0.00  0.00    -0.252 OA
ATOM      3  C   UNL d   1      31.726  17.404 -24.120  0.00  0.00     0.297 A 
ATOM      4  N   UNL d   1      31.428  16.119 -24.265  0.00  0.00    -0.117 NA
ATOM      5  N   UNL d   1      32.024  16.679 -24.350  0.00  0.00    -0.101 NA
ENDROOT
BRANCH   1   6
ATOM      6  C   UNL d   1      30.027  16.148 -23.813  0.00  0.00     0.168 A 
ATOM      7  O   UNL d   1      29.903  15.802 -23.079  0.00  0.00    -0.297 OA
ATOM      8  C   UNL d   1      29.182  15.459 -22.914  0.00  0.00     0.149 A 
ATOM      9  C   UNL d   1      28.585  15.458 -23.473  0.00  0.00     0.149 A 
ATOM     10  O   UNL d   1      28.699  15.802 -24.209  0.00  0.00    -0.299 OA
ATOM     11  C   UNL d   1      29.422  16.146 -24.377  0.00  0.00     0.151 A 
ENDBRANCH   1   6
BRANCH   3  12
ATOM     12  N   UNL d   1      32.129  18.122 -24.114  0.00  0.00    -0.165 NA
ATOM     13  C   UNL d   1      32.635  18.305 -23.503  0.00  0.00     0.282 C 
ATOM     14  O   UNL d   1      32.753  17.771 -22.876  0.00  0.00    -0.265 OA
ATOM     15  C   UNL d   1      33.040  19.026 -23.499  0.00  0.00     0.068 C 
ENDBRANCH   3  12
TORSDOF 2
ENDMDL
MODEL 4
REMARK VINA RESULT:      -2.4      2.416      3.434
REMARK  2 active torsions:
REMARK  status: ('A' for Active; 'I' for Inactive)
REMARK    1  A    between atoms: C_5  and  C_1 
REMARK    2  A    between atoms: N_7  and  C_3 
REMARK       I    between atoms: C_8  and  N_7 
ROOT
ATOM      1  C   UNL d   1      33.048  19.708 -22.572  0.00  0.00     0.231 A 
ATOM      2  O   UNL d   1      32.870  18.926 -22.369  0.00  0.00    -0.252 OA
ATOM      3  C   UNL d   1      32.937  18.466 -23.049  0.00  0.00     0.297 A 
ATOM      4  N   UNL d   1      33.222  19.722 -23.372  0.00  0.00    -0.117 NA
ATOM      5  N   UNL d   1      33.154  18.957 -23.666  0.00  0.00    -0.101 NA
ENDROOT
BRANCH   1   6
ATOM      6  C   UNL d   1      33.047  20.352 -22.054  0.00  0.00     0.168 A 
ATOM      7  O   UNL d   1      32.852  20.237 -21.265  0.00  0.00    -0.297 OA
ATOM      8  C   UNL d   1      32.852  20.872 -20.754  0.00  0.00     0.149 A 
ATOM      9  C   UNL d   1      33.044  21.621 -21.023  0.00  0.00     0.149 A 
ATOM     10  O   UNL d   1      33.240  21.747 -21.809  0.00  0.00    -0.299 OA
ATOM     11  C   UNL d   1      33.241  21.110 -22.323  0.00  0.00     0.151 A 
ENDBRANCH   1   6
BRANCH   3  12
ATOM     12  N   UNL d   1      32.806  17.655 -23.088  0.00  0.00    -0.165 NA
ATOM     13  C   UNL d   1      32.234  17.354 -23.584  0.00  0.00     0.282 C 
ATOM     14  O   UNL d   1      31.775  17.861 -24.057  0.00  0.00    -0.265 OA
ATOM     15  C   UNL d   1      32.104  16.538 -23.623  0.00  0.00     0.068 C 
ENDBRANCH   3  12
TORSDOF 2
ENDMDL
MODEL 5
REMARK VINA RESULT:      -2.4      5.899      7.291
REMARK  2 active torsions:
REMARK  status: ('A' for Active; 'I' for Inactive)
REMARK    1  A    between atoms: C_5  and  C_1 
REMARK    2  A    between atoms: N_7  and  C_3 
REMARK       I    between atoms: C_8  and  N_7 
ROOT
ATOM      1  C   UNL d   1      32.893  22.282 -20.264  0.00  0.00     0.231 A 
ATOM      2  O   UNL d   1      33.239  22.221 -19.516  0.00  0.00    -0.252 OA
ATOM      3  C   UNL d   1      33.015  22.882 -19.079  0.00  0.00     0.297 A 
ATOM      4  N   UNL d   1      32.460  22.978 -20.281  0.00  0.00    -0.117 NA
ATOM      5  N   UNL d   1      32.536  23.347 -19.550  0.00  0.00    -0.101 NA
ENDROOT
BRANCH   1   6
ATOM      6  C   UNL d   1      32.974  21.734 -20.879  0.00  0.00     0.168 A 
ATOM      7  O   UNL d   1      32.941  20.931 -20.713  0.00  0.00    -0.297 OA
ATOM      8  C   UNL d   1      33.022  20.392 -21.318  0.00  0.00     0.149 A 
ATOM      9  C   UNL d   1      33.134  20.646 -22.088  0.00  0.00     0.149 A 
ATOM     10  O   UNL d   1      33.169  21.446 -22.265  0.00  0.00    -0.299 OA
ATOM     11  C   UNL d   1      33.088  21.989 -21.658  0.00  0.00     0.151 A 
ENDBRANCH   1   6
BRANCH   3  12
ATOM     12  N   UNL d   1      33.241  23.037 -18.303  0.00  0.00    -0.165 NA
ATOM     13  C   UNL d   1      32.730  23.415 -17.793  0.00  0.00     0.282 C 
ATOM     14  O   UNL d   1      31.974  23.649 -18.049  0.00  0.00    -0.265 OA
ATOM     15  C   UNL d   1      32.958  23.570 -17.014  0.00  0.00     0.068 C 
ENDBRANCH   3  12
TORSDOF 2
ENDMDL
MODEL 6
REMARK VINA RESULT:      -2.4      1.452      3.683
REMARK  2 active torsions:
REMARK  status: ('A' for Active; 'I' for Inactive)
REMARK    1  A    between atoms: C_5  and  C_1 
REMARK    2  A    between atoms: N_7  and  C_3 
REMARK       I    between atoms: C_8  and  N_7 
ROOT
ATOM      1  C   UNL d   1      32.033  17.508 -23.778  0.00  0.00     0.231 A 
ATOM      2  O   UNL d   1      31.927  18.294 -23.542  0.00  0.00    -0.252 OA
ATOM      3  C   UNL d   1      32.671  18.625 -23.423  0.00  0.00     0.297 A 
ATOM      4  N   UNL d   1      32.838  17.363 -23.801  0.00  0.00    -0.117 NA
ATOM      5  N   UNL d   1      33.232  18.051 -23.583  0.00  0.00    -0.101 NA
ENDROOT
BRANCH   1   6
ATOM      6  C   UNL d   1      31.427  16.973 -23.955  0.00  0.00     0.168 A 
ATOM      7  O   UNL d   1      30.825  17.198 -24.466  0.00  0.00    -0.297 OA
ATOM      8  C   UNL d   1      30.228  16.671 -24.641  0.00  0.00     0.149 A 
ATOM      9  C   UNL d   1      30.227  15.922 -24.311  0.00  0.00     0.149 A 
ATOM     10  O   UNL d   1      30.823  15.687 -23.799  0.00  0.00    -0.299 OA
ATOM     11  C   UNL d   1      31.423  16.216 -23.623  0.00  0.00     0.151 A 
ENDBRANCH   1   6
BRANCH   3  12
ATOM     12  N   UNL d   1      32.815  19.399 -23.184  0.00  0.00    -0.165 NA
ATOM     13  C   UNL d   1      33.094  19.554 -22.435  0.00  0.00     0.282 C 
ATOM     14  O   UNL d   1      33.238  18.933 -21.900  0.00  0.00    -0.265 OA
ATOM     15  C   UNL d   1      33.238  20.332 -22.197  0.00  0.00     0.068 C 
ENDBRANCH   3  12
TORSDOF 2
ENDMDL
MODEL 7
REMARK VINA RESULT:      -2.3      6.426      7.629
REMARK  2 active torsions:
REMARK  status: ('A' for Active; 'I' for Inactive)
REMARK    1  A    between atoms: C_5  and  C_1 
REMARK    2  A    between atoms: N_7  and  C_3 
REMARK       I    between atoms: C_8  and  N_7 
ROOT
ATOM      1  C   UNL d   1      32.655  23.176 -19.355  0.00  0.00     0.231 A 
ATOM      2  O   UNL d   1      32.978  22.513 -19.729  0.00  0.00    -0.252 OA
ATOM      3  C   UNL d   1      32.920  22.628 -20.542  0.00  0.00     0.297 A 
ATOM      4  N   UNL d   1      32.403  23.691 -19.940  0.00  0.00    -0.117 NA
ATOM      5  N   UNL d   1      32.567  23.353 -20.671  0.00  0.00    -0.101 NA
ENDROOT
BRANCH   1   6
ATOM      6  C   UNL d   1      32.600  23.289 -18.537  0.00  0.00     0.168 A 
ATOM      7  O   UNL d   1      33.240  23.100 -18.059  0.00  0.00    -0.297 OA
ATOM      8  C   UNL d   1      33.187  23.212 -17.254  0.00  0.00     0.149 A 
ATOM      9  C   UNL d   1      32.501  23.510 -16.921  0.00  0.00     0.149 A 
ATOM     10  O   UNL d   1      31.856  23.702 -17.389  0.00  0.00    -0.299 OA
ATOM     11  C   UNL d   1      31.908  23.591 -18.199  0.00  0.00     0.151 A 
ENDBRANCH   1   6
BRANCH   3  12
ATOM     12  N   UNL d   1      33.178  22.098 -21.116  0.00  0.00    -0.165 NA
ATOM     13  C   UNL d   1      32.656  21.575 -21.458  0.00  0.00     0.282 C 
ATOM     14  O   UNL d   1      31.855  21.568 -21.232  0.00  0.00    -0.265 OA
ATOM     15  C   UNL d   1      32.916  21.043 -22.035  0.00  0.00     0.068 C 
ENDBRANCH   3  12
TORSDOF 2
ENDMDL
