MODEL 1
REMARK VINA RESULT:      -1.1      0.000      0.000
REMARK  2 active torsions:
REMARK  status: ('A' for Active; 'I' for Inactive)
REMARK    1  A    between atoms: C_6  and  C_1 
REMARK       I    between atoms: N_11  and  C_6 
REMARK    2  A    between atoms: C_13  and  N_11 
ROOT
ATOM      1  C   UNL d   1     -41.705-121.784 -51.884  0.00  0.00     0.108 A 
ATOM      2  C   UNL d   1     -42.288-122.291 -50.815  0.00  0.00     0.044 A 
ATOM      3  C   UNL d   1     -41.485-122.471 -50.764  0.00  0.00     0.112 A 
ATOM      4  S   UNL d   1     -41.125-122.153 -51.433  0.00  0.00    -0.061 SA
ATOM      5  C   UNL d   1     -42.417-121.879 -51.486  0.00  0.00     0.116 A 
ATOM      6  N   UNL d   1     -41.184-122.900 -50.118  0.00  0.00    -0.239 NA
ATOM      7  C   UNL d   1     -42.514-122.959 -49.582  0.00  0.00     0.057 A 
ATOM      8  C   UNL d   1     -42.807-122.536 -50.219  0.00  0.00     0.008 A 
ATOM      9  C   UNL d   1     -41.712-123.138 -49.532  0.00  0.00     0.085 A 
ATOM     10  C   UNL d   1     -43.029-123.205 -48.986  0.00  0.00     0.197 A 
ATOM     11  N   UNL d   1     -43.324-121.598 -51.678  0.00  0.00    -0.147 N 
ATOM     12  O   UNL d   1     -44.008-122.977 -49.061  0.00  0.00    -0.286 OA
ATOM     13  C   UNL d   1     -41.425-123.564 -48.886  0.00  0.00     0.019 A 
ATOM     14  C   UNL d   1     -42.741-123.626 -48.349  0.00  0.00     0.042 A 
ATOM     15  C   UNL d   1     -41.938-123.806 -48.299  0.00  0.00     0.005 A 
ENDROOT
BRANCH   1  16
ATOM     16  C   UNL d   1     -41.609-121.311 -52.737  0.00  0.00     0.287 C 
ATOM     17  N   UNL d   1     -41.606-121.424 -53.705  0.00  0.00    -0.205 NA
ATOM     18  O   UNL d   1     -41.489-120.540 -52.522  0.00  0.00    -0.265 OA
BRANCH  17  19
ATOM     19  C   UNL d   1     -41.725-122.207 -54.063  0.00  0.00     0.112 A 
ATOM     20  C   UNL d   1     -42.426-122.354 -54.553  0.00  0.00     0.158 A 
ATOM     21  F   UNL d   1     -43.322-121.799 -54.909  0.00  0.00    -0.203 F 
ATOM     22  C   UNL d   1     -42.545-123.157 -54.919  0.00  0.00     0.031 A 
ATOM     23  C   UNL d   1     -41.957-123.792 -54.782  0.00  0.00     0.002 A 
ATOM     24  C   UNL d   1     -41.252-123.632 -54.286  0.00  0.00     0.002 A 
ATOM     25  C   UNL d   1     -41.123-122.844 -53.919  0.00  0.00     0.021 A 
ENDBRANCH  17  19
ENDBRANCH   1  16
TORSDOF 2
ENDMDL
MODEL 2
REMARK VINA RESULT:       1.1      1.864      4.621
REMARK  2 active torsions:
REMARK  status: ('A' for Active; 'I' for Inactive)
REMARK    1  A    between atoms: C_6  and  C_1 
REMARK       I    between atoms: N_11  and  C_6 
REMARK    2  A    between atoms: C_13  and  N_11 
ROOT
ATOM      1  C   UNL d   1     -41.526-121.992 -51.321  0.00  0.00     0.108 A 
ATOM      2  C   UNL d   1     -41.589-122.034 -52.638  0.00  0.00     0.044 A 
ATOM      3  C   UNL d   1     -41.343-122.777 -52.381  0.00  0.00     0.112 A 
ATOM      4  S   UNL d   1     -41.304-122.747 -51.559  0.00  0.00    -0.061 SA
ATOM      5  C   UNL d   1     -41.699-121.565 -52.001  0.00  0.00     0.116 A 
ATOM      6  N   UNL d   1     -41.185-123.385 -52.926  0.00  0.00    -0.239 NA
ATOM      7  C   UNL d   1     -41.529-122.479 -53.985  0.00  0.00     0.057 A 
ATOM      8  C   UNL d   1     -41.684-121.883 -53.446  0.00  0.00     0.008 A 
ATOM      9  C   UNL d   1     -41.282-123.222 -53.728  0.00  0.00     0.085 A 
ATOM     10  C   UNL d   1     -41.622-122.333 -54.791  0.00  0.00     0.197 A 
ATOM     11  N   UNL d   1     -41.991-120.654 -52.153  0.00  0.00    -0.147 N 
ATOM     12  O   UNL d   1     -41.924-121.419 -55.090  0.00  0.00    -0.286 OA
ATOM     13  C   UNL d   1     -41.129-123.818 -54.278  0.00  0.00     0.019 A 
ATOM     14  C   UNL d   1     -41.469-122.925 -55.332  0.00  0.00     0.042 A 
ATOM     15  C   UNL d   1     -41.222-123.668 -55.075  0.00  0.00     0.005 A 
ENDROOT
BRANCH   1  16
ATOM     16  C   UNL d   1     -41.586-121.629 -50.412  0.00  0.00     0.287 C 
ATOM     17  N   UNL d   1     -41.982-121.769 -49.533  0.00  0.00    -0.205 NA
ATOM     18  O   UNL d   1     -41.123-120.966 -50.434  0.00  0.00    -0.265 OA
BRANCH  17  19
ATOM     19  C   UNL d   1     -42.502-122.449 -49.380  0.00  0.00     0.112 A 
ATOM     20  C   UNL d   1     -42.208-123.117 -48.911  0.00  0.00     0.158 A 
ATOM     21  F   UNL d   1     -41.275-123.416 -48.384  0.00  0.00    -0.203 F 
ATOM     22  C   UNL d   1     -42.742-123.812 -48.756  0.00  0.00     0.031 A 
ATOM     23  C   UNL d   1     -43.558-123.818 -49.077  0.00  0.00     0.002 A 
ATOM     24  C   UNL d   1     -43.844-123.137 -49.549  0.00  0.00     0.002 A 
ATOM     25  C   UNL d   1     -43.327-122.444 -49.709  0.00  0.00     0.021 A 
ENDBRANCH  17  19
ENDBRANCH   1  16
TORSDOF 2
ENDMDL
