MODEL 1
REMARK VINA RESULT:      -3.8      0.000      0.000
REMARK  6 active torsions:
REMARK  status: ('A' for Active; 'I' for Inactive)
REMARK    1  A    between atoms: C_11  and  S_1 
REMARK    2  A    between atoms: C_2  and  C_5 
REMARK       I    between atoms: N_3  and  C_2 
REMARK    3  A    between atoms: C_12  and  N_3 
REMARK    4  A    between atoms: N_4  and  C_5 
REMARK       I    between atoms: C_6  and  N_4 
REMARK    5  A    between atoms: C_5  and  C_7 
REMARK    6  A    between atoms: C_7  and  C_11 
ROOT
ATOM      1  C   UNL d   1     -41.538-122.702 -51.254  0.00  0.00     0.143 C 
ENDROOT
BRANCH   1   2
ATOM      2  C   UNL d   1     -41.507-123.001 -52.027  0.00  0.00     0.297 C 
ATOM      3  N   UNL d   1     -41.533-122.488 -52.669  0.00  0.00    -0.207 NA
ATOM      4  O   UNL d   1     -41.450-123.817 -52.154  0.00  0.00    -0.264 OA
BRANCH   3   5
ATOM      5  C   UNL d   1     -41.501-122.797 -53.447  0.00  0.00     0.085 A 
ATOM      6  C   UNL d   1     -41.788-122.316 -54.057  0.00  0.00     0.019 A 
ATOM      7  C   UNL d   1     -41.758-122.621 -54.840  0.00  0.00     0.002 A 
ATOM      8  C   UNL d   1     -42.045-122.146 -55.472  0.00  0.00     0.000 C 
ATOM      9  C   UNL d   1     -41.459-123.361 -54.986  0.00  0.00     0.000 A 
ATOM     10  C   UNL d   1     -41.180-123.817 -54.356  0.00  0.00     0.002 A 
ATOM     11  C   UNL d   1     -41.204-123.527 -53.584  0.00  0.00     0.019 A 
ENDBRANCH   3   5
ENDBRANCH   1   2
BRANCH   1  12
ATOM     12  N   UNL d   1     -41.177-121.983 -51.078  0.00  0.00    -0.203 NA
ATOM     13  C   UNL d   1     -41.624-121.294 -51.051  0.00  0.00     0.280 C 
ATOM     14  O   UNL d   1     -42.432-121.323 -51.199  0.00  0.00    -0.265 OA
ATOM     15  C   UNL d   1     -41.263-120.575 -50.875  0.00  0.00     0.068 C 
ENDBRANCH   1  12
BRANCH   1  16
ATOM     16  C   UNL d   1     -41.929-123.123 -50.665  0.00  0.00     0.036 C 
BRANCH  16  17
ATOM     17  C   UNL d   1     -41.519-123.366 -49.995  0.00  0.00     0.096 C 
BRANCH  17  18
ATOM     18  S   UNL d   1     -41.933-123.587 -49.321  0.00  0.00     0.192 S 
ATOM     19  O   UNL d   1     -42.151-123.817 -48.550  0.00  0.00    -0.222 OA
ATOM     20  O   UNL d   1     -41.138-123.581 -49.084  0.00  0.00    -0.222 OA
ATOM     21  C   UNL d   1     -42.752-123.653 -49.346  0.00  0.00     0.145 C 
ENDBRANCH  17  18
ENDBRANCH  16  17
ENDBRANCH   1  16
TORSDOF 6
ENDMDL
MODEL 2
REMARK VINA RESULT:      -2.3      1.200      1.501
REMARK  6 active torsions:
REMARK  status: ('A' for Active; 'I' for Inactive)
REMARK    1  A    between atoms: C_11  and  S_1 
REMARK    2  A    between atoms: C_2  and  C_5 
REMARK       I    between atoms: N_3  and  C_2 
REMARK    3  A    between atoms: C_12  and  N_3 
REMARK    4  A    between atoms: N_4  and  C_5 
REMARK       I    between atoms: C_6  and  N_4 
REMARK    5  A    between atoms: C_5  and  C_7 
REMARK    6  A    between atoms: C_7  and  C_11 
ROOT
ATOM      1  C   UNL d   1     -42.214-122.865 -50.492  0.00  0.00     0.143 C 
ENDROOT
BRANCH   1   2
ATOM      2  C   UNL d   1     -41.977-123.040 -51.267  0.00  0.00     0.297 C 
ATOM      3  N   UNL d   1     -41.933-122.442 -51.831  0.00  0.00    -0.207 NA
ATOM      4  O   UNL d   1     -41.785-123.817 -51.477  0.00  0.00    -0.264 OA
BRANCH   3   5
ATOM      5  C   UNL d   1     -41.693-122.627 -52.612  0.00  0.00     0.085 A 
ATOM      6  C   UNL d   1     -41.820-122.051 -53.193  0.00  0.00     0.019 A 
ATOM      7  C   UNL d   1     -41.582-122.231 -53.979  0.00  0.00     0.002 A 
ATOM      8  C   UNL d   1     -41.704-121.657 -54.582  0.00  0.00     0.000 C 
ATOM      9  C   UNL d   1     -41.239-122.945 -54.155  0.00  0.00     0.000 A 
ATOM     10  C   UNL d   1     -41.125-123.500 -53.553  0.00  0.00     0.002 A 
ATOM     11  C   UNL d   1     -41.356-123.333 -52.779  0.00  0.00     0.019 A 
ENDBRANCH   3   5
ENDBRANCH   1   2
BRANCH   1  12
ATOM     12  N   UNL d   1     -42.818-122.319 -50.362  0.00  0.00    -0.203 NA
ATOM     13  C   UNL d   1     -43.579-122.582 -50.198  0.00  0.00     0.280 C 
ATOM     14  O   UNL d   1     -43.738-123.387 -50.164  0.00  0.00    -0.265 OA
ATOM     15  C   UNL d   1     -44.183-122.036 -50.067  0.00  0.00     0.068 C 
ENDBRANCH   1  12
BRANCH   1  16
ATOM     16  C   UNL d   1     -41.847-123.233 -49.855  0.00  0.00     0.036 C 
BRANCH  16  17
ATOM     17  C   UNL d   1     -41.364-122.798 -49.353  0.00  0.00     0.096 C 
BRANCH  17  18
ATOM     18  S   UNL d   1     -41.238-123.054 -48.583  0.00  0.00     0.192 S 
ATOM     19  O   UNL d   1     -41.123-123.512 -47.896  0.00  0.00    -0.222 OA
ATOM     20  O   UNL d   1     -41.299-123.753 -49.026  0.00  0.00    -0.222 OA
ATOM     21  C   UNL d   1     -41.149-122.505 -47.977  0.00  0.00     0.145 C 
ENDBRANCH  17  18
ENDBRANCH  16  17
ENDBRANCH   1  16
TORSDOF 6
ENDMDL
