MODEL 1
REMARK VINA RESULT:      42.5      0.000      0.000
REMARK  5 active torsions:
REMARK  status: ('A' for Active; 'I' for Inactive)
REMARK    1  A    between atoms: N_6  and  C_1 
REMARK    2  A    between atoms: C_8  and  C_2 
REMARK    3  A    between atoms: C_11  and  C_3 
REMARK       I    between atoms: C_7  and  N_6 
REMARK    4  A    between atoms: C_9  and  C_7 
REMARK    5  A    between atoms: C_20  and  C_11 
ROOT
ATOM      1  C   UNL d   1      45.555 -15.579  44.214  0.00  0.00     0.119 A 
ATOM      2  C   UNL d   1      44.830 -15.377  44.538  0.00  0.00     0.084 A 
ATOM      3  C   UNL d   1      45.472 -14.246  44.221  0.00  0.00     0.031 A 
ATOM      4  S   UNL d   1      45.960 -14.884  44.014  0.00  0.00    -0.068 SA
ATOM      5  C   UNL d   1      44.778 -14.550  44.542  0.00  0.00     0.013 A 
ATOM      6  C   UNL d   1      44.143 -14.099  44.820  0.00  0.00     0.001 C 
ENDROOT
BRANCH   1   7
ATOM      7  N   UNL d   1      45.842 -16.360  44.102  0.00  0.00    -0.201 NA
ATOM      8  C   UNL d   1      45.417 -16.896  43.626  0.00  0.00     0.280 C 
ATOM      9  O   UNL d   1      44.714 -16.666  43.263  0.00  0.00    -0.265 OA
BRANCH   8  10
ATOM     10  C   UNL d   1      45.706 -17.666  43.520  0.00  0.00     0.058 A 
ATOM     11  C   UNL d   1      45.798 -17.973  42.755  0.00  0.00     0.005 A 
ATOM     12  C   UNL d   1      46.078 -18.719  42.657  0.00  0.00     0.000 A 
ATOM     13  C   UNL d   1      46.159 -18.998  41.874  0.00  0.00     0.000 A 
ATOM     14  C   UNL d   1      46.280 -19.197  43.282  0.00  0.00     0.000 A 
ATOM     15  C   UNL d   1      46.441 -19.751  41.745  0.00  0.00     0.000 A 
ATOM     16  C   UNL d   1      46.647 -20.239  42.377  0.00  0.00     0.000 A 
ATOM     17  C   UNL d   1      46.563 -19.953  43.150  0.00  0.00     0.000 A 
ATOM     18  C   UNL d   1      46.189 -18.893  44.071  0.00  0.00     0.000 A 
ATOM     19  C   UNL d   1      45.902 -18.126  44.175  0.00  0.00     0.005 A 
ENDBRANCH   8  10
ENDBRANCH   1   7
BRANCH   2  20
ATOM     20  C   UNL d   1      44.248 -15.893  44.814  0.00  0.00     0.299 C 
ATOM     21  O   UNL d   1      44.457 -16.743  44.953  0.00  0.00    -0.264 OA
ATOM     22  N   UNL d   1      43.535 -15.648  44.951  0.00  0.00    -0.102 N 
ENDBRANCH   2  20
BRANCH   3  23
ATOM     23  C   UNL d   1      45.578 -13.421  44.154  0.00  0.00     0.007 C 
BRANCH  23  24
ATOM     24  C   UNL d   1      45.613 -13.070  43.399  0.00  0.00     0.003 A 
ATOM     25  C   UNL d   1      44.930 -13.044  42.929  0.00  0.00     0.026 A 
ATOM     26  C   UNL d   1      44.956 -12.699  42.182  0.00  0.00     0.119 A 
ATOM     27  O   UNL d   1      44.381 -12.596  41.608  0.00  0.00    -0.300 OA
ATOM     28  C   UNL d   1      45.660 -12.379  41.899  0.00  0.00     0.119 A 
ATOM     29  C   UNL d   1      44.726 -12.214  40.971  0.00  0.00     0.304 A 
ATOM     30  O   UNL d   1      45.517 -12.080  41.153  0.00  0.00    -0.300 OA
ATOM     31  C   UNL d   1      46.339 -12.404  42.363  0.00  0.00     0.026 A 
ATOM     32  C   UNL d   1      46.317 -12.750  43.116  0.00  0.00     0.002 A 
ENDBRANCH  23  24
ENDBRANCH   3  23
TORSDOF 5
ENDMDL
