MODEL 1
REMARK VINA RESULT:       2.2      0.000      0.000
REMARK  7 active torsions:
REMARK  status: ('A' for Active; 'I' for Inactive)
REMARK    1  A    between atoms: C_8  and  C_1 
REMARK    2  A    between atoms: N_7  and  C_2 
REMARK    3  A    between atoms: C_5  and  N_7 
REMARK    4  A    between atoms: N_9  and  C_5 
REMARK    5  A    between atoms: O_12  and  C_8 
REMARK    6  A    between atoms: C_13  and  N_9 
REMARK    7  A    between atoms: C_16  and  O_12 
ROOT
ATOM      1  C   UNL d   1     -43.155-123.017 -49.486  0.00  0.00     0.162 A 
ATOM      2  C   UNL d   1     -42.436-123.401 -49.553  0.00  0.00     0.108 A 
ATOM      3  N   UNL d   1     -43.248-122.778 -48.701  0.00  0.00    -0.239 NA
ATOM      4  C   UNL d   1     -42.076-123.405 -48.815  0.00  0.00     0.037 A 
ATOM      5  C   UNL d   1     -42.575-123.021 -48.284  0.00  0.00     0.083 A 
ATOM      6  C   UNL d   1     -41.356-123.710 -48.554  0.00  0.00     0.003 A 
ATOM      7  C   UNL d   1     -42.357-122.939 -47.490  0.00  0.00     0.019 A 
ATOM      8  C   UNL d   1     -41.130-123.633 -47.765  0.00  0.00     0.000 A 
ATOM      9  C   UNL d   1     -41.638-123.243 -47.234  0.00  0.00     0.002 A 
ENDROOT
BRANCH   2  10
ATOM     10  N   UNL d   1     -42.117-123.734 -50.251  0.00  0.00    -0.216 NA
BRANCH  10  11
ATOM     11  C   UNL d   1     -41.463-123.377 -50.610  0.00  0.00     0.221 C 
ATOM     12  S   UNL d   1     -41.147-122.673 -50.310  0.00  0.00    -0.037 SA
BRANCH  11  13
ATOM     13  N   UNL d   1     -41.125-123.734 -51.277  0.00  0.00    -0.217 NA
BRANCH  13  14
ATOM     14  C   UNL d   1     -41.191-123.364 -52.012  0.00  0.00     0.084 A 
ATOM     15  C   UNL d   1     -41.127-122.545 -52.067  0.00  0.00     0.019 A 
ATOM     16  C   UNL d   1     -41.193-122.165 -52.804  0.00  0.00     0.002 A 
ATOM     17  C   UNL d   1     -41.324-122.621 -53.484  0.00  0.00     0.000 A 
ATOM     18  C   UNL d   1     -41.389-123.445 -53.435  0.00  0.00     0.002 A 
ATOM     19  C   UNL d   1     -41.322-123.808 -52.700  0.00  0.00     0.019 A 
ENDBRANCH  13  14
ENDBRANCH  11  13
ENDBRANCH  10  11
ENDBRANCH   2  10
BRANCH   1  20
ATOM     20  C   UNL d   1     -43.697-122.889 -50.097  0.00  0.00     0.320 C 
ATOM     21  O   UNL d   1     -44.043-123.536 -50.479  0.00  0.00    -0.257 OA
BRANCH  20  22
ATOM     22  O   UNL d   1     -43.898-122.128 -50.331  0.00  0.00    -0.270 OA
BRANCH  22  23
ATOM     23  C   UNL d   1     -44.567-122.012 -50.805  0.00  0.00     0.126 C 
ATOM     24  C   UNL d   1     -45.137-121.467 -50.579  0.00  0.00     0.029 C 
ENDBRANCH  22  23
ENDBRANCH  20  22
ENDBRANCH   1  20
TORSDOF 7
ENDMDL
MODEL 2
REMARK VINA RESULT:       2.4      2.228      3.238
REMARK  7 active torsions:
REMARK  status: ('A' for Active; 'I' for Inactive)
REMARK    1  A    between atoms: C_8  and  C_1 
REMARK    2  A    between atoms: N_7  and  C_2 
REMARK    3  A    between atoms: C_5  and  N_7 
REMARK    4  A    between atoms: N_9  and  C_5 
REMARK    5  A    between atoms: O_12  and  C_8 
REMARK    6  A    between atoms: C_13  and  N_9 
REMARK    7  A    between atoms: C_16  and  O_12 
ROOT
ATOM      1  C   UNL d   1     -41.532-121.222 -51.554  0.00  0.00     0.162 A 
ATOM      2  C   UNL d   1     -41.344-121.933 -51.910  0.00  0.00     0.108 A 
ATOM      3  N   UNL d   1     -41.715-121.368 -50.762  0.00  0.00    -0.239 NA
ATOM      4  C   UNL d   1     -41.407-122.527 -51.347  0.00  0.00     0.037 A 
ATOM      5  C   UNL d   1     -41.636-122.183 -50.635  0.00  0.00     0.083 A 
ATOM      6  C   UNL d   1     -41.285-123.342 -51.390  0.00  0.00     0.003 A 
ATOM      7  C   UNL d   1     -41.745-122.651 -49.961  0.00  0.00     0.019 A 
ATOM      8  C   UNL d   1     -41.391-123.816 -50.723  0.00  0.00     0.000 A 
ATOM      9  C   UNL d   1     -41.623-123.462 -50.007  0.00  0.00     0.002 A 
ENDROOT
BRANCH   2  10
ATOM     10  N   UNL d   1     -41.124-122.042 -52.709  0.00  0.00    -0.216 NA
BRANCH  10  11
ATOM     11  C   UNL d   1     -41.500-122.626 -53.159  0.00  0.00     0.221 C 
ATOM     12  S   UNL d   1     -41.169-123.382 -53.234  0.00  0.00    -0.037 SA
BRANCH  11  13
ATOM     13  N   UNL d   1     -42.215-122.445 -53.537  0.00  0.00    -0.217 NA
BRANCH  13  14
ATOM     14  C   UNL d   1     -42.224-122.326 -54.353  0.00  0.00     0.084 A 
ATOM     15  C   UNL d   1     -42.926-122.121 -54.731  0.00  0.00     0.019 A 
ATOM     16  C   UNL d   1     -42.943-122.000 -55.554  0.00  0.00     0.002 A 
ATOM     17  C   UNL d   1     -42.244-122.087 -55.990  0.00  0.00     0.000 A 
ATOM     18  C   UNL d   1     -41.535-122.292 -55.616  0.00  0.00     0.002 A 
ATOM     19  C   UNL d   1     -41.531-122.410 -54.801  0.00  0.00     0.019 A 
ENDBRANCH  13  14
ENDBRANCH  11  13
ENDBRANCH  10  11
ENDBRANCH   2  10
BRANCH   1  20
ATOM     20  C   UNL d   1     -41.539-120.480 -51.920  0.00  0.00     0.320 C 
ATOM     21  O   UNL d   1     -41.968-120.374 -52.620  0.00  0.00    -0.257 OA
BRANCH  20  22
ATOM     22  O   UNL d   1     -41.126-119.846 -51.601  0.00  0.00    -0.270 OA
BRANCH  22  23
ATOM     23  C   UNL d   1     -41.123-119.121 -52.000  0.00  0.00     0.126 C 
ATOM     24  C   UNL d   1     -41.123-118.421 -51.573  0.00  0.00     0.029 C 
ENDBRANCH  22  23
ENDBRANCH  20  22
ENDBRANCH   1  20
TORSDOF 7
ENDMDL
MODEL 3
REMARK VINA RESULT:       2.4      1.615      4.334
REMARK  7 active torsions:
REMARK  status: ('A' for Active; 'I' for Inactive)
REMARK    1  A    between atoms: C_8  and  C_1 
REMARK    2  A    between atoms: N_7  and  C_2 
REMARK    3  A    between atoms: C_5  and  N_7 
REMARK    4  A    between atoms: N_9  and  C_5 
REMARK    5  A    between atoms: O_12  and  C_8 
REMARK    6  A    between atoms: C_13  and  N_9 
REMARK    7  A    between atoms: C_16  and  O_12 
ROOT
ATOM      1  C   UNL d   1     -41.680-121.708 -52.702  0.00  0.00     0.162 A 
ATOM      2  C   UNL d   1     -41.397-122.471 -52.620  0.00  0.00     0.108 A 
ATOM      3  N   UNL d   1     -41.889-121.592 -53.492  0.00  0.00    -0.239 NA
ATOM      4  C   UNL d   1     -41.426-122.836 -53.355  0.00  0.00     0.037 A 
ATOM      5  C   UNL d   1     -41.730-122.297 -53.898  0.00  0.00     0.083 A 
ATOM      6  C   UNL d   1     -41.215-123.594 -53.603  0.00  0.00     0.003 A 
ATOM      7  C   UNL d   1     -41.825-122.511 -54.691  0.00  0.00     0.019 A 
ATOM      8  C   UNL d   1     -41.306-123.816 -54.392  0.00  0.00     0.000 A 
ATOM      9  C   UNL d   1     -41.614-123.267 -54.935  0.00  0.00     0.002 A 
ENDROOT
BRANCH   2  10
ATOM     10  N   UNL d   1     -41.123-122.823 -51.913  0.00  0.00    -0.216 NA
BRANCH  10  11
ATOM     11  C   UNL d   1     -41.530-123.471 -51.597  0.00  0.00     0.221 C 
ATOM     12  S   UNL d   1     -42.195-123.782 -51.982  0.00  0.00    -0.037 SA
BRANCH  11  13
ATOM     13  N   UNL d   1     -41.264-123.807 -50.888  0.00  0.00    -0.217 NA
BRANCH  13  14
ATOM     14  C   UNL d   1     -41.646-123.618 -50.181  0.00  0.00     0.084 A 
ATOM     15  C   UNL d   1     -42.448-123.785 -50.090  0.00  0.00     0.019 A 
ATOM     16  C   UNL d   1     -42.840-123.598 -49.382  0.00  0.00     0.002 A 
ATOM     17  C   UNL d   1     -42.415-123.241 -48.766  0.00  0.00     0.000 A 
ATOM     18  C   UNL d   1     -41.609-123.071 -48.851  0.00  0.00     0.002 A 
ATOM     19  C   UNL d   1     -41.233-123.261 -49.558  0.00  0.00     0.019 A 
ENDBRANCH  13  14
ENDBRANCH  11  13
ENDBRANCH  10  11
ENDBRANCH   2  10
BRANCH   1  20
ATOM     20  C   UNL d   1     -41.747-121.147 -52.098  0.00  0.00     0.320 C 
ATOM     21  O   UNL d   1     -42.278-121.276 -51.476  0.00  0.00    -0.257 OA
BRANCH  20  22
ATOM     22  O   UNL d   1     -41.295-120.462 -52.105  0.00  0.00    -0.270 OA
BRANCH  22  23
ATOM     23  C   UNL d   1     -41.582-119.780 -51.733  0.00  0.00     0.126 C 
ATOM     24  C   UNL d   1     -41.123-119.101 -51.716  0.00  0.00     0.029 C 
ENDBRANCH  22  23
ENDBRANCH  20  22
ENDBRANCH   1  20
TORSDOF 7
ENDMDL
MODEL 4
REMARK VINA RESULT:       3.2      1.847      3.941
REMARK  7 active torsions:
REMARK  status: ('A' for Active; 'I' for Inactive)
REMARK    1  A    between atoms: C_8  and  C_1 
REMARK    2  A    between atoms: N_7  and  C_2 
REMARK    3  A    between atoms: C_5  and  N_7 
REMARK    4  A    between atoms: N_9  and  C_5 
REMARK    5  A    between atoms: O_12  and  C_8 
REMARK    6  A    between atoms: C_13  and  N_9 
REMARK    7  A    between atoms: C_16  and  O_12 
ROOT
ATOM      1  C   UNL d   1     -41.506-122.088 -52.828  0.00  0.00     0.162 A 
ATOM      2  C   UNL d   1     -41.397-122.271 -52.038  0.00  0.00     0.108 A 
ATOM      3  N   UNL d   1     -41.489-121.266 -52.908  0.00  0.00    -0.239 NA
ATOM      4  C   UNL d   1     -41.312-121.570 -51.620  0.00  0.00     0.037 A 
ATOM      5  C   UNL d   1     -41.368-120.945 -52.154  0.00  0.00     0.083 A 
ATOM      6  C   UNL d   1     -41.190-121.416 -50.819  0.00  0.00     0.003 A 
ATOM      7  C   UNL d   1     -41.301-120.163 -51.890  0.00  0.00     0.019 A 
ATOM      8  C   UNL d   1     -41.123-120.641 -50.547  0.00  0.00     0.000 A 
ATOM      9  C   UNL d   1     -41.180-120.014 -51.091  0.00  0.00     0.002 A 
ENDROOT
BRANCH   2  10
ATOM     10  N   UNL d   1     -41.377-123.039 -51.709  0.00  0.00    -0.216 NA
BRANCH  10  11
ATOM     11  C   UNL d   1     -41.843-123.211 -51.047  0.00  0.00     0.221 C 
ATOM     12  S   UNL d   1     -42.629-122.952 -51.004  0.00  0.00    -0.037 SA
BRANCH  11  13
ATOM     13  N   UNL d   1     -41.514-123.647 -50.424  0.00  0.00    -0.217 NA
BRANCH  13  14
ATOM     14  C   UNL d   1     -41.907-123.678 -49.699  0.00  0.00     0.084 A 
ATOM     15  C   UNL d   1     -41.480-123.611 -48.998  0.00  0.00     0.019 A 
ATOM     16  C   UNL d   1     -41.869-123.641 -48.263  0.00  0.00     0.002 A 
ATOM     17  C   UNL d   1     -42.691-123.739 -48.244  0.00  0.00     0.000 A 
ATOM     18  C   UNL d   1     -43.126-123.807 -48.946  0.00  0.00     0.002 A 
ATOM     19  C   UNL d   1     -42.729-123.776 -49.666  0.00  0.00     0.019 A 
ENDBRANCH  13  14
ENDBRANCH  11  13
ENDBRANCH  10  11
ENDBRANCH   2  10
BRANCH   1  20
ATOM     20  C   UNL d   1     -41.615-122.629 -53.443  0.00  0.00     0.320 C 
ATOM     21  O   UNL d   1     -41.123-123.293 -53.495  0.00  0.00    -0.257 OA
BRANCH  20  22
ATOM     22  O   UNL d   1     -42.204-122.520 -54.004  0.00  0.00    -0.270 OA
BRANCH  22  23
ATOM     23  C   UNL d   1     -42.344-123.110 -54.568  0.00  0.00     0.126 C 
ATOM     24  C   UNL d   1     -42.628-122.906 -55.309  0.00  0.00     0.029 C 
ENDBRANCH  22  23
ENDBRANCH  20  22
ENDBRANCH   1  20
TORSDOF 7
ENDMDL
