MODEL 1
REMARK VINA RESULT:      -8.5      0.000      0.000
REMARK  4 active torsions:
REMARK  status: ('A' for Active; 'I' for Inactive)
REMARK    1  A    between atoms: N_10  and  C_3 
REMARK    2  A    between atoms: C_11  and  C_5 
REMARK    3  A    between atoms: C_13  and  N_10 
REMARK    4  A    between atoms: C_19  and  C_13 
ROOT
ATOM      1  N   UNL d   1      52.952  32.164  53.381  0.00  0.00    -0.195 N 
ATOM      2  C   UNL d   1      53.242  31.488  53.792  0.00  0.00     0.167 A 
ATOM      3  C   UNL d   1      53.144  32.924  53.655  0.00  0.00     0.167 A 
ATOM      4  N   UNL d   1      52.295  31.313  52.445  0.00  0.00    -0.163 NA
ATOM      5  C   UNL d   1      53.056  30.745  53.525  0.00  0.00     0.055 A 
ATOM      6  N   UNL d   1      53.713  31.596  54.462  0.00  0.00    -0.227 NA
ATOM      7  C   UNL d   1      53.610  33.015  54.318  0.00  0.00     0.054 A 
ATOM      8  C   UNL d   1      52.581  30.648  52.849  0.00  0.00     0.104 A 
ATOM      9  C   UNL d   1      53.903  32.344  54.733  0.00  0.00     0.086 A 
ATOM     10  C   UNL d   1      53.885  33.673  54.710  0.00  0.00     0.005 A 
ATOM     11  C   UNL d   1      52.397  29.893  52.587  0.00  0.00     0.023 C 
ATOM     12  C   UNL d   1      54.351  32.606  55.371  0.00  0.00     0.019 A 
ATOM     13  C   UNL d   1      54.338  33.440  55.354  0.00  0.00     0.002 A 
ENDROOT
BRANCH   5  14
ATOM     14  C   UNL d   1      53.340  30.083  53.927  0.00  0.00     0.004 A 
ATOM     15  C   UNL d   1      54.055  29.738  53.705  0.00  0.00     0.000 A 
ATOM     16  C   UNL d   1      54.340  29.080  54.102  0.00  0.00     0.000 A 
ATOM     17  C   UNL d   1      53.908  28.759  54.732  0.00  0.00     0.000 A 
ATOM     18  C   UNL d   1      53.201  29.095  54.958  0.00  0.00     0.000 A 
ATOM     19  C   UNL d   1      52.914  29.763  54.552  0.00  0.00     0.000 A 
ENDBRANCH   5  14
BRANCH   3  20
ATOM     20  N   UNL d   1      52.853  33.609  53.243  0.00  0.00    -0.225 NA
BRANCH  20  21
ATOM     21  C   UNL d   1      52.375  34.304  53.225  0.00  0.00     0.101 C 
BRANCH  21  22
ATOM     22  C   UNL d   1      51.815  34.423  52.605  0.00  0.00     0.019 C 
ATOM     23  C   UNL d   1      52.082  34.533  51.808  0.00  0.00     0.002 C 
ATOM     24  C   UNL d   1      50.983  34.431  52.785  0.00  0.00     0.002 C 
ENDBRANCH  21  22
ENDBRANCH  20  21
ENDBRANCH   3  20
TORSDOF 4
ENDMDL
MODEL 2
REMARK VINA RESULT:      -8.4      1.681      3.571
REMARK  4 active torsions:
REMARK  status: ('A' for Active; 'I' for Inactive)
REMARK    1  A    between atoms: N_10  and  C_3 
REMARK    2  A    between atoms: C_11  and  C_5 
REMARK    3  A    between atoms: C_13  and  N_10 
REMARK    4  A    between atoms: C_19  and  C_13 
ROOT
ATOM      1  N   UNL d   1      52.267  33.923  53.561  0.00  0.00    -0.195 N 
ATOM      2  C   UNL d   1      53.004  33.724  53.915  0.00  0.00     0.167 A 
ATOM      3  C   UNL d   1      51.849  33.348  53.131  0.00  0.00     0.167 A 
ATOM      4  N   UNL d   1      52.382  35.250  54.068  0.00  0.00    -0.163 NA
ATOM      5  C   UNL d   1      53.413  34.284  54.335  0.00  0.00     0.055 A 
ATOM      6  N   UNL d   1      53.298  32.956  53.828  0.00  0.00    -0.227 NA
ATOM      7  C   UNL d   1      52.152  32.595  53.054  0.00  0.00     0.054 A 
ATOM      8  C   UNL d   1      53.107  35.054  54.417  0.00  0.00     0.104 A 
ATOM      9  C   UNL d   1      52.889  32.388  53.406  0.00  0.00     0.086 A 
ATOM     10  C   UNL d   1      51.878  31.929  52.675  0.00  0.00     0.005 A 
ATOM     11  C   UNL d   1      53.528  35.615  54.843  0.00  0.00     0.023 C 
ATOM     12  C   UNL d   1      53.049  31.600  53.235  0.00  0.00     0.019 A 
ATOM     13  C   UNL d   1      52.413  31.314  52.777  0.00  0.00     0.002 A 
ENDROOT
BRANCH   5  14
ATOM     14  C   UNL d   1      54.135  34.089  54.683  0.00  0.00     0.004 A 
ATOM     15  C   UNL d   1      54.158  33.781  55.448  0.00  0.00     0.000 A 
ATOM     16  C   UNL d   1      54.874  33.585  55.796  0.00  0.00     0.000 A 
ATOM     17  C   UNL d   1      55.580  33.699  55.378  0.00  0.00     0.000 A 
ATOM     18  C   UNL d   1      55.566  34.002  54.623  0.00  0.00     0.000 A 
ATOM     19  C   UNL d   1      54.837  34.199  54.272  0.00  0.00     0.000 A 
ENDBRANCH   5  14
BRANCH   3  20
ATOM     20  N   UNL d   1      51.104  33.545  52.771  0.00  0.00    -0.225 NA
BRANCH  20  21
ATOM     21  C   UNL d   1      50.274  33.683  52.835  0.00  0.00     0.101 C 
BRANCH  21  22
ATOM     22  C   UNL d   1      49.901  34.274  52.363  0.00  0.00     0.019 C 
ATOM     23  C   UNL d   1      49.964  34.244  51.517  0.00  0.00     0.002 C 
ATOM     24  C   UNL d   1      49.462  34.898  52.739  0.00  0.00     0.002 C 
ENDBRANCH  21  22
ENDBRANCH  20  21
ENDBRANCH   3  20
TORSDOF 4
ENDMDL
MODEL 3
REMARK VINA RESULT:      -8.0      1.321      4.303
REMARK  4 active torsions:
REMARK  status: ('A' for Active; 'I' for Inactive)
REMARK    1  A    between atoms: N_10  and  C_3 
REMARK    2  A    between atoms: C_11  and  C_5 
REMARK    3  A    between atoms: C_13  and  N_10 
REMARK    4  A    between atoms: C_19  and  C_13 
ROOT
ATOM      1  N   UNL d   1      53.067  33.545  53.748  0.00  0.00    -0.195 N 
ATOM      2  C   UNL d   1      52.368  33.513  53.279  0.00  0.00     0.167 A 
ATOM      3  C   UNL d   1      53.523  32.859  53.854  0.00  0.00     0.167 A 
ATOM      4  N   UNL d   1      52.840  34.931  53.991  0.00  0.00    -0.163 NA
ATOM      5  C   UNL d   1      51.923  34.182  53.175  0.00  0.00     0.055 A 
ATOM      6  N   UNL d   1      52.150  32.795  52.932  0.00  0.00    -0.227 NA
ATOM      7  C   UNL d   1      53.294  32.158  53.505  0.00  0.00     0.054 A 
ATOM      8  C   UNL d   1      52.152  34.899  53.529  0.00  0.00     0.104 A 
ATOM      9  C   UNL d   1      52.596  32.118  53.034  0.00  0.00     0.086 A 
ATOM     10  C   UNL d   1      53.618  31.412  53.507  0.00  0.00     0.005 A 
ATOM     11  C   UNL d   1      51.695  35.572  53.419  0.00  0.00     0.023 C 
ATOM     12  C   UNL d   1      52.509  31.348  52.759  0.00  0.00     0.019 A 
ATOM     13  C   UNL d   1      53.152  30.908  53.057  0.00  0.00     0.002 A 
ENDROOT
BRANCH   5  14
ATOM     14  C   UNL d   1      51.238  34.151  52.716  0.00  0.00     0.004 A 
ATOM     15  C   UNL d   1      50.506  34.017  53.071  0.00  0.00     0.000 A 
ATOM     16  C   UNL d   1      49.823  33.986  52.618  0.00  0.00     0.000 A 
ATOM     17  C   UNL d   1      49.869  34.088  51.797  0.00  0.00     0.000 A 
ATOM     18  C   UNL d   1      50.588  34.220  51.438  0.00  0.00     0.000 A 
ATOM     19  C   UNL d   1      51.279  34.251  51.902  0.00  0.00     0.000 A 
ENDBRANCH   5  14
BRANCH   3  20
ATOM     20  N   UNL d   1      54.229  32.887  54.326  0.00  0.00    -0.225 NA
BRANCH  20  21
ATOM     21  C   UNL d   1      54.603  32.918  55.082  0.00  0.00     0.101 C 
BRANCH  21  22
ATOM     22  C   UNL d   1      55.153  33.531  55.263  0.00  0.00     0.019 C 
ATOM     23  C   UNL d   1      55.772  33.720  54.714  0.00  0.00     0.002 C 
ATOM     24  C   UNL d   1      55.084  33.956  55.996  0.00  0.00     0.002 C 
ENDBRANCH  21  22
ENDBRANCH  20  21
ENDBRANCH   3  20
TORSDOF 4
ENDMDL
MODEL 4
REMARK VINA RESULT:      -7.7      1.311      4.420
REMARK  4 active torsions:
REMARK  status: ('A' for Active; 'I' for Inactive)
REMARK    1  A    between atoms: N_10  and  C_3 
REMARK    2  A    between atoms: C_11  and  C_5 
REMARK    3  A    between atoms: C_13  and  N_10 
REMARK    4  A    between atoms: C_19  and  C_13 
ROOT
ATOM      1  N   UNL d   1      53.225  32.517  53.870  0.00  0.00    -0.195 N 
ATOM      2  C   UNL d   1      53.080  33.333  54.015  0.00  0.00     0.167 A 
ATOM      3  C   UNL d   1      52.644  32.057  53.495  0.00  0.00     0.167 A 
ATOM      4  N   UNL d   1      54.511  32.638  54.472  0.00  0.00    -0.163 NA
ATOM      5  C   UNL d   1      53.646  33.783  54.382  0.00  0.00     0.055 A 
ATOM      6  N   UNL d   1      52.360  33.662  53.780  0.00  0.00    -0.227 NA
ATOM      7  C   UNL d   1      51.938  32.396  53.268  0.00  0.00     0.054 A 
ATOM      8  C   UNL d   1      54.368  33.442  54.615  0.00  0.00     0.104 A 
ATOM      9  C   UNL d   1      51.786  33.212  53.410  0.00  0.00     0.086 A 
ATOM     10  C   UNL d   1      51.279  32.095  52.898  0.00  0.00     0.005 A 
ATOM     11  C   UNL d   1      54.936  33.905  54.986  0.00  0.00     0.023 C 
ATOM     12  C   UNL d   1      51.037  33.392  53.123  0.00  0.00     0.019 A 
ATOM     13  C   UNL d   1      50.721  32.690  52.803  0.00  0.00     0.002 A 
ENDROOT
BRANCH   5  14
ATOM     14  C   UNL d   1      53.505  34.583  54.524  0.00  0.00     0.004 A 
ATOM     15  C   UNL d   1      53.199  34.828  55.250  0.00  0.00     0.000 A 
ATOM     16  C   UNL d   1      53.057  35.623  55.395  0.00  0.00     0.000 A 
ATOM     17  C   UNL d   1      53.221  36.184  54.808  0.00  0.00     0.000 A 
ATOM     18  C   UNL d   1      53.522  35.950  54.089  0.00  0.00     0.000 A 
ATOM     19  C   UNL d   1      53.665  35.142  53.945  0.00  0.00     0.000 A 
ENDBRANCH   5  14
BRANCH   3  20
ATOM     20  N   UNL d   1      52.787  31.232  53.347  0.00  0.00    -0.225 NA
BRANCH  20  21
ATOM     21  C   UNL d   1      53.322  30.596  53.205  0.00  0.00     0.101 C 
BRANCH  21  22
ATOM     22  C   UNL d   1      53.099  29.801  53.379  0.00  0.00     0.019 C 
ATOM     23  C   UNL d   1      52.665  29.347  52.809  0.00  0.00     0.002 C 
ATOM     24  C   UNL d   1      53.312  29.459  54.129  0.00  0.00     0.002 C 
ENDBRANCH  21  22
ENDBRANCH  20  21
ENDBRANCH   3  20
TORSDOF 4
ENDMDL
MODEL 5
REMARK VINA RESULT:      -6.7      1.263      2.600
REMARK  4 active torsions:
REMARK  status: ('A' for Active; 'I' for Inactive)
REMARK    1  A    between atoms: N_10  and  C_3 
REMARK    2  A    between atoms: C_11  and  C_5 
REMARK    3  A    between atoms: C_13  and  N_10 
REMARK    4  A    between atoms: C_19  and  C_13 
ROOT
ATOM      1  N   UNL d   1      52.993  33.305  53.725  0.00  0.00    -0.195 N 
ATOM      2  C   UNL d   1      52.775  32.529  53.482  0.00  0.00     0.167 A 
ATOM      3  C   UNL d   1      52.447  33.927  53.653  0.00  0.00     0.167 A 
ATOM      4  N   UNL d   1      54.281  32.825  54.099  0.00  0.00    -0.163 NA
ATOM      5  C   UNL d   1      53.307  31.921  53.551  0.00  0.00     0.055 A 
ATOM      6  N   UNL d   1      52.018  32.401  53.176  0.00  0.00    -0.227 NA
ATOM      7  C   UNL d   1      51.704  33.785  53.350  0.00  0.00     0.054 A 
ATOM      8  C   UNL d   1      54.066  32.061  53.860  0.00  0.00     0.104 A 
ATOM      9  C   UNL d   1      51.478  33.011  53.105  0.00  0.00     0.086 A 
ATOM     10  C   UNL d   1      51.064  34.270  53.215  0.00  0.00     0.005 A 
ATOM     11  C   UNL d   1      54.599  31.440  53.927  0.00  0.00     0.023 C 
ATOM     12  C   UNL d   1      50.705  33.040  52.826  0.00  0.00     0.019 A 
ATOM     13  C   UNL d   1      50.448  33.830  52.896  0.00  0.00     0.002 A 
ENDROOT
BRANCH   5  14
ATOM     14  C   UNL d   1      53.093  31.161  53.313  0.00  0.00     0.004 A 
ATOM     15  C   UNL d   1      53.182  30.932  52.526  0.00  0.00     0.000 A 
ATOM     16  C   UNL d   1      52.971  30.177  52.285  0.00  0.00     0.000 A 
ATOM     17  C   UNL d   1      52.665  29.640  52.837  0.00  0.00     0.000 A 
ATOM     18  C   UNL d   1      52.574  29.858  53.616  0.00  0.00     0.000 A 
ATOM     19  C   UNL d   1      52.790  30.626  53.857  0.00  0.00     0.000 A 
ENDBRANCH   5  14
BRANCH   3  20
ATOM     20  N   UNL d   1      52.664  34.711  53.898  0.00  0.00    -0.225 NA
BRANCH  20  21
ATOM     21  C   UNL d   1      53.248  35.311  53.999  0.00  0.00     0.101 C 
BRANCH  21  22
ATOM     22  C   UNL d   1      53.205  35.846  54.651  0.00  0.00     0.019 C 
ATOM     23  C   UNL d   1      53.169  35.546  55.443  0.00  0.00     0.002 C 
ATOM     24  C   UNL d   1      53.197  36.684  54.507  0.00  0.00     0.002 C 
ENDBRANCH  21  22
ENDBRANCH  20  21
ENDBRANCH   3  20
TORSDOF 4
ENDMDL
MODEL 6
REMARK VINA RESULT:      -5.7      1.129      4.131
REMARK  4 active torsions:
REMARK  status: ('A' for Active; 'I' for Inactive)
REMARK    1  A    between atoms: N_10  and  C_3 
REMARK    2  A    between atoms: C_11  and  C_5 
REMARK    3  A    between atoms: C_13  and  N_10 
REMARK    4  A    between atoms: C_19  and  C_13 
ROOT
ATOM      1  N   UNL d   1      52.803  32.714  53.480  0.00  0.00    -0.195 N 
ATOM      2  C   UNL d   1      52.938  33.474  53.815  0.00  0.00     0.167 A 
ATOM      3  C   UNL d   1      53.141  32.042  53.834  0.00  0.00     0.167 A 
ATOM      4  N   UNL d   1      52.007  33.307  52.457  0.00  0.00    -0.163 NA
ATOM      5  C   UNL d   1      52.609  34.130  53.470  0.00  0.00     0.055 A 
ATOM      6  N   UNL d   1      53.406  33.537  54.494  0.00  0.00    -0.227 NA
ATOM      7  C   UNL d   1      53.600  32.121  54.503  0.00  0.00     0.054 A 
ATOM      8  C   UNL d   1      52.140  34.055  52.788  0.00  0.00     0.104 A 
ATOM      9  C   UNL d   1      53.739  32.878  54.844  0.00  0.00     0.086 A 
ATOM     10  C   UNL d   1      53.995  31.579  54.964  0.00  0.00     0.005 A 
ATOM     11  C   UNL d   1      51.811  34.724  52.445  0.00  0.00     0.023 C 
ATOM     12  C   UNL d   1      54.217  32.783  55.507  0.00  0.00     0.019 A 
ATOM     13  C   UNL d   1      54.376  31.967  55.580  0.00  0.00     0.002 A 
ENDROOT
BRANCH   5  14
ATOM     14  C   UNL d   1      52.741  34.875  53.799  0.00  0.00     0.004 A 
ATOM     15  C   UNL d   1      52.221  35.178  54.364  0.00  0.00     0.000 A 
ATOM     16  C   UNL d   1      52.349  35.918  54.693  0.00  0.00     0.000 A 
ATOM     17  C   UNL d   1      53.006  36.365  54.457  0.00  0.00     0.000 A 
ATOM     18  C   UNL d   1      53.524  36.073  53.901  0.00  0.00     0.000 A 
ATOM     19  C   UNL d   1      53.390  35.321  53.569  0.00  0.00     0.000 A 
ENDBRANCH   5  14
BRANCH   3  20
ATOM     20  N   UNL d   1      53.007  31.273  53.498  0.00  0.00    -0.225 NA
BRANCH  20  21
ATOM     21  C   UNL d   1      52.486  30.705  53.154  0.00  0.00     0.101 C 
BRANCH  21  22
ATOM     22  C   UNL d   1      52.767  29.937  52.946  0.00  0.00     0.019 C 
ATOM     23  C   UNL d   1      53.194  29.823  52.222  0.00  0.00     0.002 C 
ATOM     24  C   UNL d   1      52.621  29.280  53.467  0.00  0.00     0.002 C 
ENDBRANCH  21  22
ENDBRANCH  20  21
ENDBRANCH   3  20
TORSDOF 4
ENDMDL
