MODEL 1
REMARK VINA RESULT:      -1.7      0.000      0.000
REMARK  1 active torsions:
REMARK  status: ('A' for Active; 'I' for Inactive)
REMARK    1  A    between atoms: C_14  and  C_7 
ROOT
ATOM      1  C   UNL d   1      31.360  18.452 -24.818  0.00  0.00     0.121 A 
ATOM      2  C   UNL d   1      31.897  17.889 -24.543  0.00  0.00     0.058 A 
ATOM      3  N   UNL d   1      31.792  19.114 -25.057  0.00  0.00    -0.195 NA
ATOM      4  S   UNL d   1      30.554  18.289 -24.814  0.00  0.00    -0.068 SA
ATOM      5  C   UNL d   1      30.290  17.569 -24.537  0.00  0.00     0.027 A 
ATOM      6  C   UNL d   1      30.827  17.006 -24.262  0.00  0.00     0.003 A 
ATOM      7  C   UNL d   1      31.627  17.164 -24.265  0.00  0.00     0.010 A 
ATOM      8  C   UNL d   1      32.588  18.964 -24.933  0.00  0.00     0.311 A 
ATOM      9  S   UNL d   1      32.660  18.204 -24.613  0.00  0.00    -0.024 SA
ATOM     10  C   UNL d   1      30.068  16.410 -24.075  0.00  0.00    -0.017 A 
ATOM     11  C   UNL d   1      29.402  16.949 -24.350  0.00  0.00    -0.012 A 
ATOM     12  C   UNL d   1      28.441  17.125 -24.498  0.00  0.00     0.053 A 
ATOM     13  O   UNL d   1      33.212  19.478 -25.097  0.00  0.00    -0.258 OA
ATOM     14  C   UNL d   1      30.120  15.453 -23.676  0.00  0.00    -0.004 A 
ATOM     15  C   UNL d   1      29.582  16.105 -23.988  0.00  0.00    -0.004 A 
ENDROOT
BRANCH   7  16
ATOM     16  C   UNL d   1      32.164  16.601 -23.990  0.00  0.00     0.020 A 
ATOM     17  C   UNL d   1      32.453  16.020 -24.508  0.00  0.00     0.099 A 
ATOM     18  N   UNL d   1      32.989  15.461 -24.225  0.00  0.00    -0.242 NA
ATOM     19  C   UNL d   1      33.237  15.476 -23.441  0.00  0.00     0.099 A 
ATOM     20  C   UNL d   1      32.945  16.057 -22.933  0.00  0.00     0.021 A 
ATOM     21  C   UNL d   1      32.412  16.616 -23.206  0.00  0.00     0.003 A 
ENDBRANCH   7  16
TORSDOF 1
ENDMDL
MODEL 2
REMARK VINA RESULT:       0.4      4.961      6.524
REMARK  1 active torsions:
REMARK  status: ('A' for Active; 'I' for Inactive)
REMARK    1  A    between atoms: C_14  and  C_7 
ROOT
ATOM      1  C   UNL d   1      33.127  20.391 -21.343  0.00  0.00     0.121 A 
ATOM      2  C   UNL d   1      32.952  21.029 -21.836  0.00  0.00     0.058 A 
ATOM      3  N   UNL d   1      33.200  19.720 -21.819  0.00  0.00    -0.195 NA
ATOM      4  S   UNL d   1      33.198  20.505 -20.532  0.00  0.00    -0.068 SA
ATOM      5  C   UNL d   1      33.093  21.251 -20.219  0.00  0.00     0.027 A 
ATOM      6  C   UNL d   1      32.917  21.889 -20.711  0.00  0.00     0.003 A 
ATOM      7  C   UNL d   1      32.847  21.780 -21.517  0.00  0.00     0.010 A 
ATOM      8  C   UNL d   1      33.071  19.939 -22.598  0.00  0.00     0.311 A 
ATOM      9  S   UNL d   1      32.916  20.751 -22.615  0.00  0.00    -0.024 SA
ATOM     10  C   UNL d   1      32.898  22.465 -19.917  0.00  0.00    -0.017 A 
ATOM     11  C   UNL d   1      33.086  21.844 -19.294  0.00  0.00    -0.012 A 
ATOM     12  C   UNL d   1      33.240  21.586 -18.353  0.00  0.00     0.053 A 
ATOM     13  O   UNL d   1      33.091  19.438 -23.254  0.00  0.00    -0.258 OA
ATOM     14  C   UNL d   1      32.708  23.487 -19.900  0.00  0.00    -0.004 A 
ATOM     15  C   UNL d   1      32.901  22.753 -19.413  0.00  0.00    -0.004 A 
ENDROOT
BRANCH   7  16
ATOM     16  C   UNL d   1      32.671  22.418 -22.010  0.00  0.00     0.020 A 
ATOM     17  C   UNL d   1      33.241  22.691 -22.548  0.00  0.00     0.099 A 
ATOM     18  N   UNL d   1      33.057  23.330 -23.037  0.00  0.00    -0.242 NA
ATOM     19  C   UNL d   1      32.320  23.692 -22.995  0.00  0.00     0.099 A 
ATOM     20  C   UNL d   1      31.759  23.414 -22.457  0.00  0.00     0.021 A 
ATOM     21  C   UNL d   1      31.934  22.780 -21.967  0.00  0.00     0.003 A 
ENDBRANCH   7  16
TORSDOF 1
ENDMDL
MODEL 3
REMARK VINA RESULT:       0.9      4.392      6.034
REMARK  1 active torsions:
REMARK  status: ('A' for Active; 'I' for Inactive)
REMARK    1  A    between atoms: C_14  and  C_7 
ROOT
ATOM      1  C   UNL d   1      32.634  21.589 -20.800  0.00  0.00     0.121 A 
ATOM      2  C   UNL d   1      32.602  22.162 -21.392  0.00  0.00     0.058 A 
ATOM      3  N   UNL d   1      32.498  21.966 -20.078  0.00  0.00    -0.195 NA
ATOM      4  S   UNL d   1      32.781  20.803 -20.995  0.00  0.00    -0.068 SA
ATOM      5  C   UNL d   1      32.896  20.596 -21.775  0.00  0.00     0.027 A 
ATOM      6  C   UNL d   1      32.864  21.170 -22.367  0.00  0.00     0.003 A 
ATOM      7  C   UNL d   1      32.718  21.950 -22.178  0.00  0.00     0.010 A 
ATOM      8  C   UNL d   1      32.383  22.765 -20.220  0.00  0.00     0.311 A 
ATOM      9  S   UNL d   1      32.447  22.893 -21.035  0.00  0.00    -0.024 SA
ATOM     10  C   UNL d   1      33.047  20.464 -23.026  0.00  0.00    -0.017 A 
ATOM     11  C   UNL d   1      33.102  19.765 -22.464  0.00  0.00    -0.012 A 
ATOM     12  C   UNL d   1      33.241  18.801 -22.298  0.00  0.00     0.053 A 
ATOM     13  O   UNL d   1      32.230  23.343 -19.652  0.00  0.00    -0.258 OA
ATOM     14  C   UNL d   1      33.134  20.588 -24.054  0.00  0.00    -0.004 A 
ATOM     15  C   UNL d   1      33.156  20.007 -23.365  0.00  0.00    -0.004 A 
ENDROOT
BRANCH   7  16
ATOM     16  C   UNL d   1      32.687  22.524 -22.770  0.00  0.00     0.020 A 
ATOM     17  C   UNL d   1      32.094  22.485 -23.350  0.00  0.00     0.099 A 
ATOM     18  N   UNL d   1      32.069  23.063 -23.938  0.00  0.00    -0.242 NA
ATOM     19  C   UNL d   1      32.624  23.670 -23.953  0.00  0.00     0.099 A 
ATOM     20  C   UNL d   1      33.210  23.701 -23.373  0.00  0.00     0.021 A 
ATOM     21  C   UNL d   1      33.241  23.131 -22.785  0.00  0.00     0.003 A 
ENDBRANCH   7  16
TORSDOF 1
ENDMDL
MODEL 4
REMARK VINA RESULT:       1.3      1.823      3.133
REMARK  1 active torsions:
REMARK  status: ('A' for Active; 'I' for Inactive)
REMARK    1  A    between atoms: C_14  and  C_7 
ROOT
ATOM      1  C   UNL d   1      30.079  18.331 -24.821  0.00  0.00     0.121 A 
ATOM      2  C   UNL d   1      29.592  17.781 -24.446  0.00  0.00     0.058 A 
ATOM      3  N   UNL d   1      29.599  18.944 -25.096  0.00  0.00    -0.195 NA
ATOM      4  S   UNL d   1      30.891  18.202 -24.861  0.00  0.00    -0.068 SA
ATOM      5  C   UNL d   1      31.209  17.529 -24.529  0.00  0.00     0.027 A 
ATOM      6  C   UNL d   1      30.722  16.979 -24.154  0.00  0.00     0.003 A 
ATOM      7  C   UNL d   1      29.917  17.103 -24.112  0.00  0.00     0.010 A 
ATOM      8  C   UNL d   1      28.823  18.776 -24.894  0.00  0.00     0.311 A 
ATOM      9  S   UNL d   1      28.812  18.055 -24.490  0.00  0.00    -0.024 SA
ATOM     10  C   UNL d   1      31.521  16.439 -23.964  0.00  0.00    -0.017 A 
ATOM     11  C   UNL d   1      32.137  16.970 -24.346  0.00  0.00    -0.012 A 
ATOM     12  C   UNL d   1      33.075  17.167 -24.587  0.00  0.00     0.053 A 
ATOM     13  O   UNL d   1      28.164  19.243 -25.064  0.00  0.00    -0.258 OA
ATOM     14  C   UNL d   1      31.545  15.531 -23.460  0.00  0.00    -0.004 A 
ATOM     15  C   UNL d   1      32.026  16.166 -23.882  0.00  0.00    -0.004 A 
ENDROOT
BRANCH   7  16
ATOM     16  C   UNL d   1      29.430  16.553 -23.737  0.00  0.00     0.020 A 
ATOM     17  C   UNL d   1      29.363  16.558 -22.909  0.00  0.00     0.099 A 
ATOM     18  N   UNL d   1      28.873  16.005 -22.542  0.00  0.00    -0.242 NA
ATOM     19  C   UNL d   1      28.456  15.453 -22.988  0.00  0.00     0.099 A 
ATOM     20  C   UNL d   1      28.528  15.454 -23.810  0.00  0.00     0.021 A 
ATOM     21  C   UNL d   1      29.013  16.001 -24.182  0.00  0.00     0.003 A 
ENDBRANCH   7  16
TORSDOF 1
ENDMDL
