MODEL 1
REMARK VINA RESULT:       2.7      0.000      0.000
REMARK  4 active torsions:
REMARK  status: ('A' for Active; 'I' for Inactive)
REMARK    1  A    between atoms: N_10  and  C_3 
REMARK    2  A    between atoms: C_11  and  C_4 
REMARK    3  A    between atoms: C_17  and  N_10 
REMARK       I    between atoms: C_12  and  N_13 
REMARK    4  A    between atoms: N_13  and  C_18 
ROOT
ATOM      1  C   UNL d   1      32.750  21.007 -21.602  0.00  0.00     0.168 A 
ATOM      2  N   UNL d   1      32.621  20.311 -22.056  0.00  0.00    -0.184 N 
ATOM      3  C   UNL d   1      32.701  20.350 -22.847  0.00  0.00     0.218 A 
ATOM      4  C   UNL d   1      32.673  20.984 -20.805  0.00  0.00     0.057 A 
ATOM      5  N   UNL d   1      32.344  19.606 -20.873  0.00  0.00    -0.160 NA
ATOM      6  N   UNL d   1      32.950  21.694 -21.970  0.00  0.00    -0.227 NA
ATOM      7  C   UNL d   1      32.903  21.040 -23.228  0.00  0.00     0.071 A 
ATOM      8  C   UNL d   1      32.468  20.280 -20.433  0.00  0.00     0.124 A 
ATOM      9  C   UNL d   1      33.030  21.725 -22.781  0.00  0.00     0.087 A 
ATOM     10  C   UNL d   1      33.241  22.450 -23.170  0.00  0.00     0.021 C 
ENDROOT
BRANCH   3  11
ATOM     11  N   UNL d   1      32.572  19.650 -23.310  0.00  0.00    -0.383 NA
BRANCH  11  12
ATOM     12  C   UNL d   1      32.495  18.904 -23.686  0.00  0.00     0.134 A 
ATOM     13  C   UNL d   1      33.132  18.369 -23.710  0.00  0.00     0.034 A 
ATOM     14  C   UNL d   1      33.042  17.608 -24.097  0.00  0.00     0.022 A 
ATOM     15  C   UNL d   1      32.310  17.401 -24.455  0.00  0.00     0.085 A 
ATOM     16  C   UNL d   1      31.660  17.941 -24.435  0.00  0.00     0.022 A 
ATOM     17  C   UNL d   1      31.745  18.700 -24.049  0.00  0.00     0.034 A 
BRANCH  15  18
ATOM     18  N   UNL d   1      32.223  16.652 -24.837  0.00  0.00    -0.208 NA
ATOM     19  C   UNL d   1      31.523  16.194 -24.721  0.00  0.00     0.279 C 
ATOM     20  O   UNL d   1      31.434  15.453 -25.097  0.00  0.00    -0.265 OA
ATOM     21  C   UNL d   1      30.907  16.487 -24.220  0.00  0.00     0.068 C 
ENDBRANCH  15  18
ENDBRANCH  11  12
ENDBRANCH   3  11
BRANCH   4  22
ATOM     22  C   UNL d   1      32.797  21.659 -20.365  0.00  0.00     0.005 A 
ATOM     23  C   UNL d   1      32.600  22.378 -20.668  0.00  0.00     0.001 A 
ATOM     24  C   UNL d   1      32.724  23.051 -20.228  0.00  0.00     0.011 A 
ATOM     25  C   UNL d   1      33.045  22.996 -19.492  0.00  0.00     0.058 A 
ATOM     26  C   UNL d   1      33.240  22.266 -19.195  0.00  0.00     0.011 A 
ATOM     27 CL   UNL d   1      33.175  23.702 -19.031  0.00  0.00    -0.082 Cl
ATOM     28  C   UNL d   1      33.118  21.604 -19.628  0.00  0.00     0.001 A 
ENDBRANCH   4  22
TORSDOF 4
ENDMDL
MODEL 2
REMARK VINA RESULT:       4.3      3.165      6.077
REMARK  4 active torsions:
REMARK  status: ('A' for Active; 'I' for Inactive)
REMARK    1  A    between atoms: N_10  and  C_3 
REMARK    2  A    between atoms: C_11  and  C_4 
REMARK    3  A    between atoms: C_17  and  N_10 
REMARK       I    between atoms: C_12  and  N_13 
REMARK    4  A    between atoms: N_13  and  C_18 
ROOT
ATOM      1  C   UNL d   1      32.804  20.681 -21.747  0.00  0.00     0.168 A 
ATOM      2  N   UNL d   1      32.901  21.058 -21.002  0.00  0.00    -0.184 N 
ATOM      3  C   UNL d   1      33.014  21.846 -20.982  0.00  0.00     0.218 A 
ATOM      4  C   UNL d   1      32.689  19.889 -21.783  0.00  0.00     0.057 A 
ATOM      5  N   UNL d   1      32.760  19.812 -20.368  0.00  0.00    -0.160 NA
ATOM      6  N   UNL d   1      32.827  21.118 -22.422  0.00  0.00    -0.227 NA
ATOM      7  C   UNL d   1      33.039  22.296 -21.660  0.00  0.00     0.071 A 
ATOM      8  C   UNL d   1      32.666  19.447 -21.091  0.00  0.00     0.124 A 
ATOM      9  C   UNL d   1      32.943  21.925 -22.394  0.00  0.00     0.087 A 
ATOM     10  C   UNL d   1      32.968  22.387 -23.106  0.00  0.00     0.021 C 
ENDROOT
BRANCH   3  11
ATOM     11  N   UNL d   1      33.112  22.231 -20.232  0.00  0.00    -0.383 NA
BRANCH  11  12
ATOM     12  C   UNL d   1      33.142  22.535 -19.451  0.00  0.00     0.134 A 
ATOM     13  C   UNL d   1      33.210  22.026 -18.796  0.00  0.00     0.034 A 
ATOM     14  C   UNL d   1      33.239  22.348 -18.001  0.00  0.00     0.022 A 
ATOM     15  C   UNL d   1      33.199  23.179 -17.881  0.00  0.00     0.085 A 
ATOM     16  C   UNL d   1      33.130  23.701 -18.543  0.00  0.00     0.022 A 
ATOM     17  C   UNL d   1      33.100  23.384 -19.336  0.00  0.00     0.034 A 
BRANCH  15  18
ATOM     18  N   UNL d   1      33.227  23.495 -17.097  0.00  0.00    -0.208 NA
ATOM     19  C   UNL d   1      32.589  23.362 -16.560  0.00  0.00     0.279 C 
ATOM     20  O   UNL d   1      32.615  23.673 -15.785  0.00  0.00    -0.265 OA
ATOM     21  C   UNL d   1      31.919  22.909 -16.809  0.00  0.00     0.068 C 
ENDBRANCH  15  18
ENDBRANCH  11  12
ENDBRANCH   3  11
BRANCH   4  22
ATOM     22  C   UNL d   1      32.595  19.524 -22.506  0.00  0.00     0.005 A 
ATOM     23  C   UNL d   1      33.241  19.269 -22.913  0.00  0.00     0.001 A 
ATOM     24  C   UNL d   1      33.147  18.904 -23.635  0.00  0.00     0.011 A 
ATOM     25  C   UNL d   1      32.409  18.800 -23.938  0.00  0.00     0.058 A 
ATOM     26  C   UNL d   1      31.765  19.061 -23.520  0.00  0.00     0.011 A 
ATOM     27 CL   UNL d   1      32.311  18.418 -24.695  0.00  0.00    -0.082 Cl
ATOM     28  C   UNL d   1      31.857  19.420 -22.810  0.00  0.00     0.001 A 
ENDBRANCH   4  22
TORSDOF 4
ENDMDL
