MODEL 1
REMARK VINA RESULT:      58.8      0.000      0.000
REMARK  3 active torsions:
REMARK  status: ('A' for Active; 'I' for Inactive)
REMARK    1  A    between atoms: C_2  and  C_1 
REMARK    2  A    between atoms: C_3  and  C_1 
REMARK       I    between atoms: N_4  and  C_2 
REMARK    3  A    between atoms: C_6  and  N_4 
ROOT
ATOM      1  C   UNL d   1      60.412  48.949  51.047  0.00  0.00     0.150 A 
ATOM      2  O   UNL d   1      61.211  49.491  49.705  0.00  0.00    -0.304 OA
ATOM      3  C   UNL d   1      60.151  48.728  50.293  0.00  0.00     0.019 A 
ATOM      4  C   UNL d   1      61.063  49.434  51.125  0.00  0.00     0.019 A 
ATOM      5  C   UNL d   1      61.465  49.707  50.449  0.00  0.00     0.119 A 
ATOM      6  C   UNL d   1      60.552  49.000  49.622  0.00  0.00     0.119 A 
ENDROOT
BRANCH   1   7
ATOM      7  C   UNL d   1      59.751  48.457  50.967  0.00  0.00     0.315 C 
ATOM      8  N   UNL d   1      59.011  48.775  50.791  0.00  0.00    -0.367 NA
ATOM      9  O   UNL d   1      59.839  47.645  51.065  0.00  0.00    -0.255 OA
BRANCH   8  10
ATOM     10  C   UNL d   1      58.270  49.086  50.615  0.00  0.00     0.135 A 
ATOM     11  C   UNL d   1      58.089  49.234  49.836  0.00  0.00     0.032 A 
ATOM     12  C   UNL d   1      57.336  49.551  49.653  0.00  0.00     0.003 A 
ATOM     13  C   UNL d   1      57.147  49.704  48.862  0.00  0.00     0.000 C 
ATOM     14  C   UNL d   1      56.819  49.699  50.238  0.00  0.00     0.000 A 
ATOM     15  C   UNL d   1      57.000  49.551  51.013  0.00  0.00     0.003 A 
ATOM     16  C   UNL d   1      57.730  49.244  51.198  0.00  0.00     0.032 A 
ATOM     17  C   UNL d   1      56.459  49.707  51.613  0.00  0.00     0.000 C 
ENDBRANCH   8  10
ENDBRANCH   1   7
BRANCH   1  18
ATOM     18  C   UNL d   1      60.671  49.168  51.803  0.00  0.00     0.024 A 
ATOM     19  S   UNL d   1      61.400  48.980  52.153  0.00  0.00    -0.090 SA
ATOM     20  C   UNL d   1      61.428  49.309  52.909  0.00  0.00     0.035 A 
ATOM     21  C   UNL d   1      60.724  49.707  53.046  0.00  0.00     0.007 A 
ATOM     22  C   UNL d   1      60.251  49.622  52.361  0.00  0.00     0.004 A 
ENDBRANCH   1  18
TORSDOF 3
ENDMDL
MODEL 2
REMARK VINA RESULT:      59.7      1.677      4.116
REMARK  3 active torsions:
REMARK  status: ('A' for Active; 'I' for Inactive)
REMARK    1  A    between atoms: C_2  and  C_1 
REMARK    2  A    between atoms: C_3  and  C_1 
REMARK       I    between atoms: N_4  and  C_2 
REMARK    3  A    between atoms: C_6  and  N_4 
ROOT
ATOM      1  C   UNL d   1      57.798  49.384  50.174  0.00  0.00     0.150 A 
ATOM      2  O   UNL d   1      57.618  49.646  51.796  0.00  0.00    -0.304 OA
ATOM      3  C   UNL d   1      58.457  49.570  50.638  0.00  0.00     0.019 A 
ATOM      4  C   UNL d   1      57.060  49.330  50.518  0.00  0.00     0.019 A 
ATOM      5  C   UNL d   1      56.970  49.462  51.335  0.00  0.00     0.119 A 
ATOM      6  C   UNL d   1      58.365  49.701  51.450  0.00  0.00     0.119 A 
ENDROOT
BRANCH   1   7
ATOM      7  C   UNL d   1      58.546  49.438  49.824  0.00  0.00     0.315 C 
ATOM      8  N   UNL d   1      59.222  49.228  50.247  0.00  0.00    -0.367 NA
ATOM      9  O   UNL d   1      58.610  49.705  49.049  0.00  0.00    -0.255 OA
BRANCH   8  10
ATOM     10  C   UNL d   1      59.900  49.020  50.664  0.00  0.00     0.135 A 
ATOM     11  C   UNL d   1      60.104  49.463  51.314  0.00  0.00     0.032 A 
ATOM     12  C   UNL d   1      60.794  49.254  51.741  0.00  0.00     0.003 A 
ATOM     13  C   UNL d   1      61.006  49.702  52.404  0.00  0.00     0.000 C 
ATOM     14  C   UNL d   1      61.230  48.634  51.504  0.00  0.00     0.000 A 
ATOM     15  C   UNL d   1      61.026  48.193  50.857  0.00  0.00     0.003 A 
ATOM     16  C   UNL d   1      60.357  48.390  50.438  0.00  0.00     0.032 A 
ATOM     17  C   UNL d   1      61.483  47.552  50.618  0.00  0.00     0.000 C 
ENDBRANCH   8  10
ENDBRANCH   1   7
BRANCH   1  18
ATOM     18  C   UNL d   1      57.140  49.197  49.706  0.00  0.00     0.024 A 
ATOM     19  S   UNL d   1      56.746  49.703  49.178  0.00  0.00    -0.090 SA
ATOM     20  C   UNL d   1      56.121  49.292  48.828  0.00  0.00     0.035 A 
ATOM     21  C   UNL d   1      56.111  48.528  49.128  0.00  0.00     0.007 A 
ATOM     22  C   UNL d   1      56.743  48.466  49.673  0.00  0.00     0.004 A 
ENDBRANCH   1  18
TORSDOF 3
ENDMDL
