MODEL 1
REMARK VINA RESULT:      -3.0      0.000      0.000
REMARK  5 active torsions:
REMARK  status: ('A' for Active; 'I' for Inactive)
REMARK    1  A    between atoms: C_2  and  S_1 
REMARK    2  A    between atoms: N_4  and  S_1 
REMARK    3  A    between atoms: C_11  and  N_4 
REMARK    4  A    between atoms: O_13  and  C_5 
REMARK    5  A    between atoms: O_14  and  C_6 
ROOT
ATOM      1  C   UNL d   1      58.131   0.041  30.698  0.00  0.00     0.141 A 
ATOM      2  C   UNL d   1      58.014  -0.235  29.928  0.00  0.00     0.040 A 
ATOM      3  C   UNL d   1      58.836   0.393  30.900  0.00  0.00     0.107 A 
ATOM      4  C   UNL d   1      58.604  -0.157  29.367  0.00  0.00     0.095 A 
ATOM      5  C   UNL d   1      59.435   0.476  30.344  0.00  0.00     0.027 A 
ATOM      6  C   UNL d   1      59.318   0.199  29.575  0.00  0.00     0.024 A 
ATOM      7  C   UNL d   1      59.923   0.282  29.009  0.00  0.00     0.002 C 
ENDROOT
BRANCH   1   8
ATOM      8  S   UNL d   1      57.531  -0.042  31.253  0.00  0.00     0.329 S 
ATOM      9  O   UNL d   1      57.839  -0.771  31.474  0.00  0.00    -0.186 OA
ATOM     10  O   UNL d   1      57.218   0.682  31.041  0.00  0.00    -0.186 OA
BRANCH   8  11
ATOM     11  N   UNL d   1      56.933  -0.134  31.813  0.00  0.00    -0.316 NA
BRANCH  11  12
ATOM     12  C   UNL d   1      56.326  -0.224  32.372  0.00  0.00     0.165 A 
ATOM     13  C   UNL d   1      55.870   0.421  32.584  0.00  0.00     0.132 A 
ATOM     14  N   UNL d   1      55.265   0.330  33.142  0.00  0.00    -0.240 NA
ATOM     15  C   UNL d   1      55.119  -0.407  33.485  0.00  0.00     0.099 A 
ATOM     16  C   UNL d   1      55.584  -1.054  33.265  0.00  0.00     0.023 A 
ATOM     17  C   UNL d   1      56.188  -0.972  32.711  0.00  0.00     0.036 A 
ENDBRANCH  11  12
ENDBRANCH   8  11
ENDBRANCH   1   8
BRANCH   3  18
ATOM     18  O   UNL d   1      58.953   0.669  31.670  0.00  0.00    -0.327 OA
ATOM     19  C   UNL d   1      59.719   0.680  31.993  0.00  0.00     0.181 C 
ENDBRANCH   3  18
BRANCH   4  20
ATOM     20  O   UNL d   1      58.487  -0.434  28.597  0.00  0.00    -0.328 OA
ATOM     21  C   UNL d   1      58.409  -1.243  28.455  0.00  0.00     0.181 C 
ENDBRANCH   4  20
TORSDOF 5
ENDMDL
