MODEL 1
REMARK VINA RESULT:      -2.8      0.000      0.000
REMARK  1 active torsions:
REMARK  status: ('A' for Active; 'I' for Inactive)
REMARK    1  A    between atoms: C_5  and  C_1 
ROOT
ATOM      1  C   UNL d   1      30.366  16.320 -23.886  0.00  0.00     0.005 A 
ATOM      2  C   UNL d   1      29.839  16.810 -24.290  0.00  0.00     0.001 A 
ATOM      3  C   UNL d   1      30.087  15.769 -23.344  0.00  0.00     0.001 A 
ATOM      4  C   UNL d   1      28.749  16.191 -23.607  0.00  0.00     0.058 A 
ATOM      5  C   UNL d   1      29.276  15.701 -23.203  0.00  0.00     0.011 A 
ATOM      6  C   UNL d   1      29.033  16.747 -24.153  0.00  0.00     0.011 A 
ATOM      7 CL   UNL d   1      27.930  16.127 -23.468  0.00  0.00    -0.082 Cl
ENDROOT
BRANCH   1   8
ATOM      8  C   UNL d   1      31.175  16.386 -24.026  0.00  0.00     0.060 A 
ATOM      9  C   UNL d   1      31.694  16.037 -24.527  0.00  0.00     0.206 A 
ATOM     10  N   UNL d   1      32.462  16.235 -24.516  0.00  0.00    -0.127 NA
ATOM     11  N   UNL d   1      31.425  15.464 -25.061  0.00  0.00    -0.125 N 
ATOM     12  N   UNL d   1      32.708  16.784 -24.002  0.00  0.00    -0.145 NA
ATOM     13  C   UNL d   1      32.194  17.133 -23.501  0.00  0.00     0.125 A 
ENDBRANCH   1   8
TORSDOF 1
ENDMDL
MODEL 2
REMARK VINA RESULT:      -2.7      2.083      2.984
REMARK  1 active torsions:
REMARK  status: ('A' for Active; 'I' for Inactive)
REMARK    1  A    between atoms: C_5  and  C_1 
ROOT
ATOM      1  C   UNL d   1      30.332  16.665 -23.976  0.00  0.00     0.005 A 
ATOM      2  C   UNL d   1      30.482  17.370 -24.378  0.00  0.00     0.001 A 
ATOM      3  C   UNL d   1      30.936  16.284 -23.569  0.00  0.00     0.001 A 
ATOM      4  C   UNL d   1      31.847  17.309 -23.964  0.00  0.00     0.058 A 
ATOM      5  C   UNL d   1      31.697  16.604 -23.561  0.00  0.00     0.011 A 
ATOM      6  C   UNL d   1      31.236  17.693 -24.374  0.00  0.00     0.011 A 
ATOM      7 CL   UNL d   1      32.613  17.637 -23.959  0.00  0.00    -0.082 Cl
ENDROOT
BRANCH   1   8
ATOM      8  C   UNL d   1      29.574  16.344 -23.983  0.00  0.00     0.060 A 
ATOM      9  C   UNL d   1      29.186  15.815 -24.443  0.00  0.00     0.206 A 
ATOM     10  N   UNL d   1      28.432  15.622 -24.291  0.00  0.00    -0.127 NA
ATOM     11  N   UNL d   1      29.577  15.467 -25.085  0.00  0.00    -0.125 N 
ATOM     12  N   UNL d   1      28.068  15.961 -23.675  0.00  0.00    -0.145 NA
ATOM     13  C   UNL d   1      28.451  16.488 -23.215  0.00  0.00     0.125 A 
ENDBRANCH   1   8
TORSDOF 1
ENDMDL
MODEL 3
REMARK VINA RESULT:      -2.5      2.022      3.098
REMARK  1 active torsions:
REMARK  status: ('A' for Active; 'I' for Inactive)
REMARK    1  A    between atoms: C_5  and  C_1 
ROOT
ATOM      1  C   UNL d   1      30.886  17.045 -24.309  0.00  0.00     0.005 A 
ATOM      2  C   UNL d   1      31.403  16.894 -23.684  0.00  0.00     0.001 A 
ATOM      3  C   UNL d   1      31.061  17.629 -24.860  0.00  0.00     0.001 A 
ATOM      4  C   UNL d   1      32.274  17.918 -24.165  0.00  0.00     0.058 A 
ATOM      5  C   UNL d   1      31.757  18.069 -24.790  0.00  0.00     0.011 A 
ATOM      6  C   UNL d   1      32.095  17.328 -23.610  0.00  0.00     0.011 A 
ATOM      7 CL   UNL d   1      32.977  18.359 -24.090  0.00  0.00    -0.082 Cl
ENDROOT
BRANCH   1   8
ATOM      8  C   UNL d   1      30.191  16.608 -24.380  0.00  0.00     0.060 A 
ATOM      9  C   UNL d   1      29.995  15.907 -24.714  0.00  0.00     0.206 A 
ATOM     10  N   UNL d   1      29.249  15.638 -24.682  0.00  0.00    -0.127 NA
ATOM     11  N   UNL d   1      30.576  15.458 -25.097  0.00  0.00    -0.125 N 
ATOM     12  N   UNL d   1      28.702  16.075 -24.313  0.00  0.00    -0.145 NA
ATOM     13  C   UNL d   1      28.894  16.773 -23.980  0.00  0.00     0.125 A 
ENDBRANCH   1   8
TORSDOF 1
ENDMDL
MODEL 4
REMARK VINA RESULT:      -2.5      2.125      2.879
REMARK  1 active torsions:
REMARK  status: ('A' for Active; 'I' for Inactive)
REMARK    1  A    between atoms: C_5  and  C_1 
ROOT
ATOM      1  C   UNL d   1      32.227  17.697 -23.688  0.00  0.00     0.005 A 
ATOM      2  C   UNL d   1      31.459  17.666 -23.988  0.00  0.00     0.001 A 
ATOM      3  C   UNL d   1      32.623  17.004 -23.493  0.00  0.00     0.001 A 
ATOM      4  C   UNL d   1      31.486  16.242 -23.896  0.00  0.00     0.058 A 
ATOM      5  C   UNL d   1      32.254  16.272 -23.596  0.00  0.00     0.011 A 
ATOM      6  C   UNL d   1      31.087  16.943 -24.093  0.00  0.00     0.011 A 
ATOM      7 CL   UNL d   1      31.108  15.507 -24.002  0.00  0.00    -0.082 Cl
ENDROOT
BRANCH   1   8
ATOM      8  C   UNL d   1      32.597  18.425 -23.585  0.00  0.00     0.060 A 
ATOM      9  C   UNL d   1      32.916  18.974 -24.074  0.00  0.00     0.206 A 
ATOM     10  N   UNL d   1      33.239  19.637 -23.782  0.00  0.00    -0.127 NA
ATOM     11  N   UNL d   1      32.908  18.847 -24.892  0.00  0.00    -0.125 N 
ATOM     12  N   UNL d   1      33.241  19.748 -22.998  0.00  0.00    -0.145 NA
ATOM     13  C   UNL d   1      32.925  19.204 -22.509  0.00  0.00     0.125 A 
ENDBRANCH   1   8
TORSDOF 1
ENDMDL
MODEL 5
REMARK VINA RESULT:      -2.5      7.552      8.556
REMARK  1 active torsions:
REMARK  status: ('A' for Active; 'I' for Inactive)
REMARK    1  A    between atoms: C_5  and  C_1 
ROOT
ATOM      1  C   UNL d   1      32.691  23.001 -19.294  0.00  0.00     0.005 A 
ATOM      2  C   UNL d   1      32.255  23.596 -18.924  0.00  0.00     0.001 A 
ATOM      3  C   UNL d   1      33.182  22.511 -18.853  0.00  0.00     0.001 A 
ATOM      4  C   UNL d   1      32.805  23.206 -17.665  0.00  0.00     0.058 A 
ATOM      5  C   UNL d   1      33.241  22.612 -18.035  0.00  0.00     0.011 A 
ATOM      6  C   UNL d   1      32.310  23.700 -18.112  0.00  0.00     0.011 A 
ATOM      7 CL   UNL d   1      32.861  23.312 -16.840  0.00  0.00    -0.082 Cl
ENDROOT
BRANCH   1   8
ATOM      8  C   UNL d   1      32.634  22.899 -20.110  0.00  0.00     0.060 A 
ATOM      9  C   UNL d   1      32.321  22.340 -20.590  0.00  0.00     0.206 A 
ATOM     10  N   UNL d   1      32.363  22.415 -21.378  0.00  0.00    -0.127 NA
ATOM     11  N   UNL d   1      31.952  21.676 -20.260  0.00  0.00    -0.125 N 
ATOM     12  N   UNL d   1      32.718  23.053 -21.683  0.00  0.00    -0.145 NA
ATOM     13  C   UNL d   1      33.030  23.612 -21.208  0.00  0.00     0.125 A 
ENDBRANCH   1   8
TORSDOF 1
ENDMDL
