MODEL 1
REMARK VINA RESULT:      31.3      0.000      0.000
REMARK  3 active torsions:
REMARK  status: ('A' for Active; 'I' for Inactive)
REMARK    1  A    between atoms: C_7  and  N_1 
REMARK    2  A    between atoms: C_5  and  C_2 
REMARK    3  A    between atoms: C_11  and  C_7 
ROOT
ATOM      1  N   UNL d   1     -57.352 -98.828 -44.345  0.00  0.00    -0.262 N 
ATOM      2  C   UNL d   1     -58.159 -98.789 -44.523  0.00  0.00     0.173 A 
ATOM      3  N   UNL d   1     -58.552 -98.763 -43.800  0.00  0.00    -0.128 NA
ATOM      4  C   UNL d   1     -57.250 -98.827 -43.543  0.00  0.00     0.227 A 
ATOM      5  N   UNL d   1     -57.996 -98.787 -43.193  0.00  0.00    -0.117 NA
ATOM      6  S   UNL d   1     -56.569 -98.857 -43.061  0.00  0.00    -0.036 SA
ENDROOT
BRANCH   2   7
ATOM      7  C   UNL d   1     -58.511 -98.776 -45.266  0.00  0.00     0.064 A 
ATOM      8  C   UNL d   1     -58.420 -98.764 -46.081  0.00  0.00     0.143 A 
ATOM      9  F   UNL d   1     -57.605 -98.764 -46.235  0.00  0.00    -0.204 F 
ATOM     10  C   UNL d   1     -59.096 -98.755 -46.569  0.00  0.00     0.030 A 
ATOM     11  C   UNL d   1     -59.852 -98.758 -46.237  0.00  0.00     0.002 A 
ATOM     12  C   UNL d   1     -59.932 -98.770 -45.423  0.00  0.00     0.000 A 
ATOM     13  C   UNL d   1     -59.261 -98.779 -44.929  0.00  0.00     0.005 A 
ENDBRANCH   2   7
BRANCH   1  14
ATOM     14  C   UNL d   1     -56.727 -98.863 -44.888  0.00  0.00     0.108 C 
BRANCH  14  15
ATOM     15  C   UNL d   1     -56.072 -99.331 -44.717  0.00  0.00     0.118 A 
ATOM     16  O   UNL d   1     -56.087-100.118 -44.471  0.00  0.00    -0.304 OA
ATOM     17  C   UNL d   1     -55.312-100.377 -44.362  0.00  0.00     0.123 A 
ATOM     18  C   UNL d   1     -54.817 -99.738 -44.544  0.00  0.00     0.029 A 
ATOM     19  C   UNL d   1     -55.282 -99.094 -44.763  0.00  0.00     0.028 A 
ENDBRANCH  14  15
ENDBRANCH   1  14
TORSDOF 3
ENDMDL
