MODEL 1
REMARK VINA RESULT:      -3.2      0.000      0.000
REMARK  6 active torsions:
REMARK  status: ('A' for Active; 'I' for Inactive)
REMARK       I    between atoms: N_2  and  C_4 
REMARK    1  A    between atoms: C_6  and  N_2 
REMARK    2  A    between atoms: C_12  and  C_3 
REMARK    3  A    between atoms: C_4  and  C_11 
REMARK    4  A    between atoms: O_13  and  C_9 
REMARK    5  A    between atoms: C_11  and  C_12 
REMARK    6  A    between atoms: C_17  and  O_13 
ROOT
ATOM      1  N   UNL d   1      58.590   0.155  28.909  0.00  0.00    -0.206 NA
ATOM      2  C   UNL d   1      57.938   0.401  29.349  0.00  0.00     0.279 C 
ATOM      3  O   UNL d   1      57.244   0.621  28.970  0.00  0.00    -0.265 OA
ENDROOT
BRANCH   1   4
ATOM      4  C   UNL d   1      59.290  -0.067  29.299  0.00  0.00     0.107 A 
ATOM      5  C   UNL d   1      59.578  -0.834  29.219  0.00  0.00     0.118 A 
ATOM      6  C   UNL d   1      60.267  -1.053  29.601  0.00  0.00     0.026 A 
ATOM      7  C   UNL d   1      60.679  -0.507  30.071  0.00  0.00     0.002 A 
ATOM      8  C   UNL d   1      60.390   0.265  30.151  0.00  0.00     0.002 A 
ATOM      9  C   UNL d   1      59.689   0.487  29.761  0.00  0.00     0.021 A 
BRANCH   5  10
ATOM     10  O   UNL d   1      59.166  -1.373  28.753  0.00  0.00    -0.304 OA
BRANCH  10  11
ATOM     11  C   UNL d   1      59.511  -2.086  28.535  0.00  0.00     0.123 C 
ATOM     12  C   UNL d   1      59.054  -2.766  28.457  0.00  0.00     0.029 C 
ENDBRANCH  10  11
ENDBRANCH   5  10
ENDBRANCH   1   4
BRANCH   2  13
ATOM     13  C   UNL d   1      57.976   0.430  30.173  0.00  0.00     0.065 C 
BRANCH  13  14
ATOM     14  C   UNL d   1      57.328   0.681  30.608  0.00  0.00     0.030 C 
BRANCH  14  15
ATOM     15  C   UNL d   1      57.169   0.351  31.349  0.00  0.00     0.100 A 
ATOM     16  O   UNL d   1      56.763  -0.353  31.505  0.00  0.00    -0.307 OA
ATOM     17  C   UNL d   1      56.735  -0.466  32.314  0.00  0.00     0.100 A 
ATOM     18  C   UNL d   1      57.127   0.170  32.672  0.00  0.00     0.027 A 
ATOM     19  C   UNL d   1      56.384  -1.095  32.704  0.00  0.00     0.027 C 
ATOM     20  C   UNL d   1      57.395   0.675  32.077  0.00  0.00     0.027 A 
ENDBRANCH  14  15
ENDBRANCH  13  14
ENDBRANCH   2  13
TORSDOF 6
ENDMDL
MODEL 2
REMARK VINA RESULT:      -1.7      1.862      2.896
REMARK  6 active torsions:
REMARK  status: ('A' for Active; 'I' for Inactive)
REMARK       I    between atoms: N_2  and  C_4 
REMARK    1  A    between atoms: C_6  and  N_2 
REMARK    2  A    between atoms: C_12  and  C_3 
REMARK    3  A    between atoms: C_4  and  C_11 
REMARK    4  A    between atoms: O_13  and  C_9 
REMARK    5  A    between atoms: C_11  and  C_12 
REMARK    6  A    between atoms: C_17  and  O_13 
ROOT
ATOM      1  N   UNL d   1      56.939  -1.362  31.526  0.00  0.00    -0.206 NA
ATOM      2  C   UNL d   1      56.395  -1.281  32.138  0.00  0.00     0.279 C 
ATOM      3  O   UNL d   1      55.976  -1.934  32.407  0.00  0.00    -0.265 OA
ENDROOT
BRANCH   1   4
ATOM      4  C   UNL d   1      57.361  -0.697  31.257  0.00  0.00     0.107 A 
ATOM      5  C   UNL d   1      57.842  -0.759  30.593  0.00  0.00     0.118 A 
ATOM      6  C   UNL d   1      58.257  -0.106  30.327  0.00  0.00     0.026 A 
ATOM      7  C   UNL d   1      58.197   0.620  30.725  0.00  0.00     0.002 A 
ATOM      8  C   UNL d   1      57.713   0.682  31.394  0.00  0.00     0.002 A 
ATOM      9  C   UNL d   1      57.291   0.017  31.662  0.00  0.00     0.021 A 
BRANCH   5  10
ATOM     10  O   UNL d   1      57.899  -1.481  30.201  0.00  0.00    -0.304 OA
BRANCH  10  11
ATOM     11  C   UNL d   1      58.325  -1.543  29.501  0.00  0.00     0.123 C 
ATOM     12  C   UNL d   1      58.667  -2.259  29.281  0.00  0.00     0.029 C 
ENDBRANCH  10  11
ENDBRANCH   5  10
ENDBRANCH   1   4
BRANCH   2  13
ATOM     13  C   UNL d   1      56.265  -0.544  32.488  0.00  0.00     0.065 C 
BRANCH  13  14
ATOM     14  C   UNL d   1      55.516  -0.338  32.751  0.00  0.00     0.030 C 
BRANCH  14  15
ATOM     15  C   UNL d   1      55.417   0.018  33.490  0.00  0.00     0.100 A 
ATOM     16  O   UNL d   1      55.988   0.102  34.083  0.00  0.00    -0.307 OA
ATOM     17  C   UNL d   1      55.650   0.488  34.720  0.00  0.00     0.100 A 
ATOM     18  C   UNL d   1      54.860   0.649  34.528  0.00  0.00     0.027 A 
ATOM     19  C   UNL d   1      56.023   0.682  35.423  0.00  0.00     0.027 C 
ATOM     20  C   UNL d   1      54.716   0.359  33.769  0.00  0.00     0.027 A 
ENDBRANCH  14  15
ENDBRANCH  13  14
ENDBRANCH   2  13
TORSDOF 6
ENDMDL
MODEL 3
REMARK VINA RESULT:      -1.5      1.988      4.988
REMARK  6 active torsions:
REMARK  status: ('A' for Active; 'I' for Inactive)
REMARK       I    between atoms: N_2  and  C_4 
REMARK    1  A    between atoms: C_6  and  N_2 
REMARK    2  A    between atoms: C_12  and  C_3 
REMARK    3  A    between atoms: C_4  and  C_11 
REMARK    4  A    between atoms: O_13  and  C_9 
REMARK    5  A    between atoms: C_11  and  C_12 
REMARK    6  A    between atoms: C_17  and  O_13 
ROOT
ATOM      1  N   UNL d   1      57.208  -0.041  33.685  0.00  0.00    -0.206 NA
ATOM      2  C   UNL d   1      57.708   0.262  33.105  0.00  0.00     0.279 C 
ATOM      3  O   UNL d   1      58.385   0.675  33.319  0.00  0.00    -0.265 OA
ENDROOT
BRANCH   1   4
ATOM      4  C   UNL d   1      56.524  -0.458  33.462  0.00  0.00     0.107 A 
ATOM      5  C   UNL d   1      55.811  -0.310  33.847  0.00  0.00     0.118 A 
ATOM      6  C   UNL d   1      55.137  -0.720  33.629  0.00  0.00     0.026 A 
ATOM      7  C   UNL d   1      55.167  -1.285  33.022  0.00  0.00     0.002 A 
ATOM      8  C   UNL d   1      55.884  -1.434  32.635  0.00  0.00     0.002 A 
ATOM      9  C   UNL d   1      56.568  -1.016  32.857  0.00  0.00     0.021 A 
BRANCH   5  10
ATOM     10  O   UNL d   1      55.786   0.251  34.448  0.00  0.00    -0.304 OA
BRANCH  10  11
ATOM     11  C   UNL d   1      55.066   0.501  34.756  0.00  0.00     0.123 C 
ATOM     12  C   UNL d   1      54.992   0.681  35.556  0.00  0.00     0.029 C 
ENDBRANCH  10  11
ENDBRANCH   5  10
ENDBRANCH   1   4
BRANCH   2  13
ATOM     13  C   UNL d   1      57.535   0.155  32.305  0.00  0.00     0.065 C 
BRANCH  13  14
ATOM     14  C   UNL d   1      57.826   0.679  31.745  0.00  0.00     0.030 C 
BRANCH  14  15
ATOM     15  C   UNL d   1      58.003   0.418  30.981  0.00  0.00     0.100 A 
ATOM     16  O   UNL d   1      58.737   0.159  30.700  0.00  0.00    -0.307 OA
ATOM     17  C   UNL d   1      58.659  -0.047  29.913  0.00  0.00     0.100 A 
ATOM     18  C   UNL d   1      57.870   0.082  29.695  0.00  0.00     0.027 A 
ATOM     19  C   UNL d   1      59.252  -0.330  29.425  0.00  0.00     0.027 C 
ATOM     20  C   UNL d   1      57.465   0.369  30.354  0.00  0.00     0.027 A 
ENDBRANCH  14  15
ENDBRANCH  13  14
ENDBRANCH   2  13
TORSDOF 6
ENDMDL
MODEL 4
REMARK VINA RESULT:      -1.4      1.424      4.065
REMARK  6 active torsions:
REMARK  status: ('A' for Active; 'I' for Inactive)
REMARK       I    between atoms: N_2  and  C_4 
REMARK    1  A    between atoms: C_6  and  N_2 
REMARK    2  A    between atoms: C_12  and  C_3 
REMARK    3  A    between atoms: C_4  and  C_11 
REMARK    4  A    between atoms: O_13  and  C_9 
REMARK    5  A    between atoms: C_11  and  C_12 
REMARK    6  A    between atoms: C_17  and  O_13 
ROOT
ATOM      1  N   UNL d   1      57.300  -1.480  30.983  0.00  0.00    -0.206 NA
ATOM      2  C   UNL d   1      57.810  -1.496  30.337  0.00  0.00     0.279 C 
ATOM      3  O   UNL d   1      57.990  -2.209  29.971  0.00  0.00    -0.265 OA
ENDROOT
BRANCH   1   4
ATOM      4  C   UNL d   1      57.122  -0.755  31.350  0.00  0.00     0.107 A 
ATOM      5  C   UNL d   1      56.656  -0.743  32.028  0.00  0.00     0.118 A 
ATOM      6  C   UNL d   1      56.479  -0.032  32.390  0.00  0.00     0.026 A 
ATOM      7  C   UNL d   1      56.767   0.682  32.077  0.00  0.00     0.002 A 
ATOM      8  C   UNL d   1      57.236   0.670  31.394  0.00  0.00     0.002 A 
ATOM      9  C   UNL d   1      57.414  -0.055  31.028  0.00  0.00     0.021 A 
BRANCH   5  10
ATOM     10  O   UNL d   1      56.373  -1.452  32.336  0.00  0.00    -0.304 OA
BRANCH  10  11
ATOM     11  C   UNL d   1      56.038  -1.478  33.086  0.00  0.00     0.123 C 
ATOM     12  C   UNL d   1      55.446  -2.022  33.262  0.00  0.00     0.029 C 
ENDBRANCH  10  11
ENDBRANCH   5  10
ENDBRANCH   1   4
BRANCH   2  13
ATOM     13  C   UNL d   1      58.146  -0.798  30.051  0.00  0.00     0.065 C 
BRANCH  13  14
ATOM     14  C   UNL d   1      58.446  -0.766  29.288  0.00  0.00     0.030 C 
BRANCH  14  15
ATOM     15  C   UNL d   1      59.086  -0.274  29.112  0.00  0.00     0.100 A 
ATOM     16  O   UNL d   1      59.836  -0.287  29.464  0.00  0.00    -0.307 OA
ATOM     17  C   UNL d   1      60.296   0.295  29.121  0.00  0.00     0.100 A 
ATOM     18  C   UNL d   1      59.835   0.678  28.549  0.00  0.00     0.027 A 
ATOM     19  C   UNL d   1      61.074   0.470  29.308  0.00  0.00     0.027 C 
ATOM     20  C   UNL d   1      59.088   0.327  28.543  0.00  0.00     0.027 A 
ENDBRANCH  14  15
ENDBRANCH  13  14
ENDBRANCH   2  13
TORSDOF 6
ENDMDL
MODEL 5
REMARK VINA RESULT:      -1.0      1.580      2.577
REMARK  6 active torsions:
REMARK  status: ('A' for Active; 'I' for Inactive)
REMARK       I    between atoms: N_2  and  C_4 
REMARK    1  A    between atoms: C_6  and  N_2 
REMARK    2  A    between atoms: C_12  and  C_3 
REMARK    3  A    between atoms: C_4  and  C_11 
REMARK    4  A    between atoms: O_13  and  C_9 
REMARK    5  A    between atoms: C_11  and  C_12 
REMARK    6  A    between atoms: C_17  and  O_13 
ROOT
ATOM      1  N   UNL d   1      58.744   0.661  31.635  0.00  0.00    -0.206 NA
ATOM      2  C   UNL d   1      58.306   0.602  32.330  0.00  0.00     0.279 C 
ATOM      3  O   UNL d   1      58.676   0.681  33.059  0.00  0.00    -0.265 OA
ENDROOT
BRANCH   1   4
ATOM      4  C   UNL d   1      58.363   0.581  30.900  0.00  0.00     0.107 A 
ATOM      5  C   UNL d   1      58.805   0.406  30.228  0.00  0.00     0.118 A 
ATOM      6  C   UNL d   1      58.433   0.327  29.504  0.00  0.00     0.026 A 
ATOM      7  C   UNL d   1      57.611   0.423  29.442  0.00  0.00     0.002 A 
ATOM      8  C   UNL d   1      57.166   0.600  30.118  0.00  0.00     0.002 A 
ATOM      9  C   UNL d   1      57.546   0.679  30.854  0.00  0.00     0.021 A 
BRANCH   5  10
ATOM     10  O   UNL d   1      59.620   0.311  30.294  0.00  0.00    -0.304 OA
BRANCH  10  11
ATOM     11  C   UNL d   1      60.084   0.207  29.623  0.00  0.00     0.123 C 
ATOM     12  C   UNL d   1      60.825   0.560  29.568  0.00  0.00     0.029 C 
ENDBRANCH  10  11
ENDBRANCH   5  10
ENDBRANCH   1   4
BRANCH   2  13
ATOM     13  C   UNL d   1      57.492   0.465  32.302  0.00  0.00     0.065 C 
BRANCH  13  14
ATOM     14  C   UNL d   1      57.053   0.442  32.994  0.00  0.00     0.030 C 
BRANCH  14  15
ATOM     15  C   UNL d   1      56.401  -0.061  33.058  0.00  0.00     0.100 A 
ATOM     16  O   UNL d   1      56.401  -0.887  32.999  0.00  0.00    -0.307 OA
ATOM     17  C   UNL d   1      55.636  -1.158  33.096  0.00  0.00     0.100 A 
ATOM     18  C   UNL d   1      55.148  -0.498  33.218  0.00  0.00     0.027 A 
ATOM     19  C   UNL d   1      55.391  -1.939  33.078  0.00  0.00     0.027 C 
ATOM     20  C   UNL d   1      55.620   0.178  33.194  0.00  0.00     0.027 A 
ENDBRANCH  14  15
ENDBRANCH  13  14
ENDBRANCH   2  13
TORSDOF 6
ENDMDL
