MODEL 1
REMARK VINA RESULT:      -2.3      0.000      0.000
REMARK  6 active torsions:
REMARK  status: ('A' for Active; 'I' for Inactive)
REMARK    1  A    between atoms: N_2  and  C_1 
REMARK    2  A    between atoms: C_8  and  C_5 
REMARK    3  A    between atoms: C_6  and  C_9 
REMARK       I    between atoms: N_13  and  C_6 
REMARK    4  A    between atoms: C_9  and  C_8 
REMARK    5  A    between atoms: C_14  and  C_11 
REMARK    6  A    between atoms: C_16  and  N_13 
ROOT
ATOM      1  C   UNL d   1      32.896  20.551 -22.000  0.00  0.00     0.279 C 
ATOM      2  N   UNL d   1      32.670  20.680 -21.225  0.00  0.00    -0.208 NA
ATOM      3  O   UNL d   1      33.155  21.202 -22.451  0.00  0.00    -0.265 OA
ENDROOT
BRANCH   1   4
ATOM      4  C   UNL d   1      32.870  19.808 -22.321  0.00  0.00     0.063 C 
BRANCH   4   5
ATOM      5  C   UNL d   1      33.008  19.706 -23.137  0.00  0.00     0.011 C 
BRANCH   5   6
ATOM      6  C   UNL d   1      32.884  18.952 -23.498  0.00  0.00     0.031 A 
ATOM      7  S   UNL d   1      32.674  18.216 -23.188  0.00  0.00    -0.064 SA
ATOM      8  C   UNL d   1      32.637  17.698 -23.807  0.00  0.00     0.156 A 
ATOM      9  C   UNL d   1      32.820  18.094 -24.503  0.00  0.00     0.031 A 
ATOM     10  C   UNL d   1      32.975  18.885 -24.302  0.00  0.00     0.009 A 
BRANCH   8  11
ATOM     11  N   UNL d   1      32.443  16.876 -23.765  0.00  0.00    -0.107 N 
ATOM     12  O   UNL d   1      32.117  16.498 -24.435  0.00  0.00    -0.531 OA
ATOM     13  O   UNL d   1      32.572  16.445 -23.074  0.00  0.00    -0.531 OA
ENDBRANCH   8  11
ENDBRANCH   5   6
ENDBRANCH   4   5
ENDBRANCH   1   4
BRANCH   2  14
ATOM     14  C   UNL d   1      32.692  21.428 -20.886  0.00  0.00     0.085 A 
ATOM     15  C   UNL d   1      32.222  22.023 -21.160  0.00  0.00     0.022 A 
ATOM     16  C   UNL d   1      32.248  22.782 -20.814  0.00  0.00     0.041 A 
ATOM     17  C   UNL d   1      32.758  22.926 -20.184  0.00  0.00     0.003 A 
ATOM     18  C   UNL d   1      33.237  22.305 -19.910  0.00  0.00     0.002 A 
ATOM     19  C   UNL d   1      33.206  21.565 -20.255  0.00  0.00     0.019 A 
BRANCH  16  20
ATOM     20  C   UNL d   1      31.767  23.391 -21.093  0.00  0.00     0.196 C 
ATOM     21  O   UNL d   1      31.192  23.702 -20.614  0.00  0.00    -0.287 OA
ATOM     22  C   UNL d   1      31.862  23.700 -21.869  0.00  0.00     0.045 C 
ENDBRANCH  16  20
ENDBRANCH   2  14
TORSDOF 6
ENDMDL
MODEL 2
REMARK VINA RESULT:      -2.1      1.017      1.581
REMARK  6 active torsions:
REMARK  status: ('A' for Active; 'I' for Inactive)
REMARK    1  A    between atoms: N_2  and  C_1 
REMARK    2  A    between atoms: C_8  and  C_5 
REMARK    3  A    between atoms: C_6  and  C_9 
REMARK       I    between atoms: N_13  and  C_6 
REMARK    4  A    between atoms: C_9  and  C_8 
REMARK    5  A    between atoms: C_14  and  C_11 
REMARK    6  A    between atoms: C_16  and  N_13 
ROOT
ATOM      1  C   UNL d   1      33.003  19.679 -22.713  0.00  0.00     0.279 C 
ATOM      2  N   UNL d   1      32.847  20.071 -22.012  0.00  0.00    -0.208 NA
ATOM      3  O   UNL d   1      33.187  20.131 -23.388  0.00  0.00    -0.265 OA
ENDROOT
BRANCH   1   4
ATOM      4  C   UNL d   1      32.979  18.870 -22.749  0.00  0.00     0.063 C 
BRANCH   4   5
ATOM      5  C   UNL d   1      33.024  18.489 -23.489  0.00  0.00     0.011 C 
BRANCH   5   6
ATOM      6  C   UNL d   1      32.717  17.707 -23.583  0.00  0.00     0.031 A 
ATOM      7  S   UNL d   1      31.946  17.410 -23.592  0.00  0.00    -0.064 SA
ATOM      8  C   UNL d   1      31.999  16.611 -23.703  0.00  0.00     0.156 A 
ATOM      9  C   UNL d   1      32.791  16.398 -23.764  0.00  0.00     0.031 A 
ATOM     10  C   UNL d   1      33.239  17.094 -23.687  0.00  0.00     0.009 A 
BRANCH   8  11
ATOM     11  N   UNL d   1      31.356  16.066 -23.751  0.00  0.00    -0.107 N 
ATOM     12  O   UNL d   1      30.990  15.801 -23.049  0.00  0.00    -0.531 OA
ATOM     13  O   UNL d   1      31.085  15.792 -24.482  0.00  0.00    -0.531 OA
ENDBRANCH   8  11
ENDBRANCH   5   6
ENDBRANCH   4   5
ENDBRANCH   1   4
BRANCH   2  14
ATOM     14  C   UNL d   1      32.867  20.890 -21.961  0.00  0.00     0.085 A 
ATOM     15  C   UNL d   1      32.556  21.276 -21.325  0.00  0.00     0.022 A 
ATOM     16  C   UNL d   1      32.579  22.108 -21.276  0.00  0.00     0.041 A 
ATOM     17  C   UNL d   1      32.923  22.543 -21.884  0.00  0.00     0.003 A 
ATOM     18  C   UNL d   1      33.241  22.135 -22.535  0.00  0.00     0.002 A 
ATOM     19  C   UNL d   1      33.215  21.320 -22.574  0.00  0.00     0.019 A 
BRANCH  16  20
ATOM     20  C   UNL d   1      32.261  22.503 -20.626  0.00  0.00     0.196 C 
ATOM     21  O   UNL d   1      31.497  22.777 -20.655  0.00  0.00    -0.287 OA
ATOM     22  C   UNL d   1      32.712  22.630 -19.929  0.00  0.00     0.045 C 
ENDBRANCH  16  20
ENDBRANCH   2  14
TORSDOF 6
ENDMDL
MODEL 3
REMARK VINA RESULT:      -0.4      2.203      5.567
REMARK  6 active torsions:
REMARK  status: ('A' for Active; 'I' for Inactive)
REMARK    1  A    between atoms: N_2  and  C_1 
REMARK    2  A    between atoms: C_8  and  C_5 
REMARK    3  A    between atoms: C_6  and  C_9 
REMARK       I    between atoms: N_13  and  C_6 
REMARK    4  A    between atoms: C_9  and  C_8 
REMARK    5  A    between atoms: C_14  and  C_11 
REMARK    6  A    between atoms: C_16  and  N_13 
ROOT
ATOM      1  C   UNL d   1      32.510  21.879 -21.654  0.00  0.00     0.279 C 
ATOM      2  N   UNL d   1      33.135  21.380 -21.825  0.00  0.00    -0.208 NA
ATOM      3  O   UNL d   1      31.852  21.880 -22.165  0.00  0.00    -0.265 OA
ENDROOT
BRANCH   1   4
ATOM      4  C   UNL d   1      32.531  22.359 -21.002  0.00  0.00     0.063 C 
BRANCH   4   5
ATOM      5  C   UNL d   1      32.859  22.076 -20.291  0.00  0.00     0.011 C 
BRANCH   5   6
ATOM      6  C   UNL d   1      32.868  22.566 -19.602  0.00  0.00     0.031 A 
ATOM      7  S   UNL d   1      32.724  22.406 -18.804  0.00  0.00    -0.064 SA
ATOM      8  C   UNL d   1      32.815  23.101 -18.401  0.00  0.00     0.156 A 
ATOM      9  C   UNL d   1      33.014  23.696 -18.931  0.00  0.00     0.031 A 
ATOM     10  C   UNL d   1      33.046  23.354 -19.687  0.00  0.00     0.009 A 
BRANCH   8  11
ATOM     11  N   UNL d   1      32.725  23.215 -17.569  0.00  0.00    -0.107 N 
ATOM     12  O   UNL d   1      32.104  23.697 -17.287  0.00  0.00    -0.531 OA
ATOM     13  O   UNL d   1      33.241  22.857 -17.033  0.00  0.00    -0.531 OA
ENDBRANCH   8  11
ENDBRANCH   5   6
ENDBRANCH   4   5
ENDBRANCH   1   4
BRANCH   2  14
ATOM     14  C   UNL d   1      33.128  20.887 -22.483  0.00  0.00     0.085 A 
ATOM     15  C   UNL d   1      33.013  20.093 -22.407  0.00  0.00     0.022 A 
ATOM     16  C   UNL d   1      33.006  19.596 -23.076  0.00  0.00     0.041 A 
ATOM     17  C   UNL d   1      33.118  19.919 -23.826  0.00  0.00     0.003 A 
ATOM     18  C   UNL d   1      33.236  20.739 -23.892  0.00  0.00     0.002 A 
ATOM     19  C   UNL d   1      33.241  21.218 -23.231  0.00  0.00     0.019 A 
BRANCH  16  20
ATOM     20  C   UNL d   1      32.889  18.783 -22.999  0.00  0.00     0.196 C 
ATOM     21  O   UNL d   1      33.044  18.419 -22.291  0.00  0.00    -0.287 OA
ATOM     22  C   UNL d   1      32.610  18.320 -23.643  0.00  0.00     0.045 C 
ENDBRANCH  16  20
ENDBRANCH   2  14
TORSDOF 6
ENDMDL
MODEL 4
REMARK VINA RESULT:       0.6      1.703      5.385
REMARK  6 active torsions:
REMARK  status: ('A' for Active; 'I' for Inactive)
REMARK    1  A    between atoms: N_2  and  C_1 
REMARK    2  A    between atoms: C_8  and  C_5 
REMARK    3  A    between atoms: C_6  and  C_9 
REMARK       I    between atoms: N_13  and  C_6 
REMARK    4  A    between atoms: C_9  and  C_8 
REMARK    5  A    between atoms: C_14  and  C_11 
REMARK    6  A    between atoms: C_16  and  N_13 
ROOT
ATOM      1  C   UNL d   1      32.410  20.321 -22.372  0.00  0.00     0.279 C 
ATOM      2  N   UNL d   1      32.456  19.509 -22.278  0.00  0.00    -0.208 NA
ATOM      3  O   UNL d   1      32.386  20.629 -23.146  0.00  0.00    -0.265 OA
ENDROOT
BRANCH   1   4
ATOM      4  C   UNL d   1      32.388  20.812 -21.729  0.00  0.00     0.063 C 
BRANCH   4   5
ATOM      5  C   UNL d   1      31.960  21.525 -21.769  0.00  0.00     0.011 C 
BRANCH   5   6
ATOM      6  C   UNL d   1      32.036  22.102 -21.155  0.00  0.00     0.031 A 
ATOM      7  S   UNL d   1      32.415  22.085 -20.421  0.00  0.00    -0.064 SA
ATOM      8  C   UNL d   1      32.297  22.806 -20.075  0.00  0.00     0.156 A 
ATOM      9  C   UNL d   1      31.850  23.278 -20.578  0.00  0.00     0.031 A 
ATOM     10  C   UNL d   1      31.689  22.828 -21.258  0.00  0.00     0.009 A 
BRANCH   8  11
ATOM     11  N   UNL d   1      32.580  23.053 -19.318  0.00  0.00    -0.107 N 
ATOM     12  O   UNL d   1      33.231  23.574 -19.274  0.00  0.00    -0.531 OA
ATOM     13  O   UNL d   1      32.222  22.786 -18.624  0.00  0.00    -0.531 OA
ENDBRANCH   8  11
ENDBRANCH   5   6
ENDBRANCH   4   5
ENDBRANCH   1   4
BRANCH   2  14
ATOM     14  C   UNL d   1      32.478  18.999 -22.921  0.00  0.00     0.085 A 
ATOM     15  C   UNL d   1      31.805  18.659 -23.207  0.00  0.00     0.022 A 
ATOM     16  C   UNL d   1      31.832  18.142 -23.861  0.00  0.00     0.041 A 
ATOM     17  C   UNL d   1      32.554  17.975 -24.220  0.00  0.00     0.003 A 
ATOM     18  C   UNL d   1      33.241  18.331 -23.917  0.00  0.00     0.002 A 
ATOM     19  C   UNL d   1      33.206  18.837 -23.277  0.00  0.00     0.019 A 
BRANCH  16  20
ATOM     20  C   UNL d   1      31.144  17.794 -24.154  0.00  0.00     0.196 C 
ATOM     21  O   UNL d   1      30.573  17.536 -23.639  0.00  0.00    -0.287 OA
ATOM     22  C   UNL d   1      31.021  17.699 -24.979  0.00  0.00     0.045 C 
ENDBRANCH  16  20
ENDBRANCH   2  14
TORSDOF 6
ENDMDL
