MODEL 1
REMARK VINA RESULT:     205.0      0.000      0.000
REMARK  4 active torsions:
REMARK  status: ('A' for Active; 'I' for Inactive)
REMARK    1  A    between atoms: N_7  and  C_1 
REMARK    2  A    between atoms: C_11  and  C_2 
REMARK    3  A    between atoms: N_6  and  C_12 
REMARK       I    between atoms: C_8  and  N_7 
REMARK    4  A    between atoms: C_14  and  C_8 
REMARK       I    between atoms: N_26  and  C_11 
ROOT
ATOM      1  N   UNL d   1     -56.834-100.233 -42.369  0.00  0.00    -0.201 NA
ATOM      2  C   UNL d   1     -55.893-100.561 -42.212  0.00  0.00     0.280 C 
ATOM      3  O   UNL d   1     -55.349-100.765 -42.632  0.00  0.00    -0.265 OA
ENDROOT
BRANCH   1   4
ATOM      4  C   UNL d   1     -56.969-100.208 -43.133  0.00  0.00     0.119 A 
ATOM      5  C   UNL d   1     -56.643-100.171 -43.874  0.00  0.00     0.082 A 
ATOM      6  C   UNL d   1     -57.256-100.166 -44.426  0.00  0.00     0.013 A 
ATOM      7  C   UNL d   1     -57.260-100.135 -45.248  0.00  0.00     0.001 A 
ATOM      8  C   UNL d   1     -57.969-100.201 -44.004  0.00  0.00     0.031 A 
ATOM      9  C   UNL d   1     -57.979-100.138 -45.660  0.00  0.00     0.000 A 
ATOM     10  C   UNL d   1     -58.686-100.172 -45.235  0.00  0.00     0.001 A 
ATOM     11  C   UNL d   1     -58.683-100.203 -44.417  0.00  0.00     0.006 A 
ATOM     12  C   UNL d   1     -59.407-100.176 -45.639  0.00  0.00     0.000 C 
ATOM     13  S   UNL d   1     -57.792-100.226 -43.207  0.00  0.00    -0.068 SA
BRANCH   5  14
ATOM     14  C   UNL d   1     -55.835-100.144 -44.041  0.00  0.00     0.281 C 
ATOM     15  O   UNL d   1     -55.334 -99.655 -43.604  0.00  0.00    -0.265 OA
ATOM     16  N   UNL d   1     -55.527-100.611 -44.649  0.00  0.00    -0.205 NA
ATOM     17  C   UNL d   1     -54.720-100.589 -44.821  0.00  0.00     0.123 C 
ENDBRANCH   5  14
ENDBRANCH   1   4
BRANCH   2  18
ATOM     18  C   UNL d   1     -55.705-100.604 -41.410  0.00  0.00     0.058 A 
ATOM     19  C   UNL d   1     -55.225-101.209 -41.129  0.00  0.00     0.006 A 
ATOM     20  C   UNL d   1     -55.039-101.250 -40.334  0.00  0.00     0.018 A 
ATOM     21  C   UNL d   1     -55.322-100.699 -39.803  0.00  0.00     0.070 A 
ATOM     22  C   UNL d   1     -55.813-100.080 -40.082  0.00  0.00     0.018 A 
ATOM     23  C   UNL d   1     -56.005-100.028 -40.874  0.00  0.00     0.006 A 
BRANCH  21  24
ATOM     24  N   UNL d   1     -55.133-100.746 -39.002  0.00  0.00    -0.242 N 
ATOM     25  C   UNL d   1     -55.110-101.454 -38.569  0.00  0.00     0.267 A 
ATOM     26  C   UNL d   1     -54.898-101.276 -37.784  0.00  0.00     0.066 A 
ATOM     27  O   UNL d   1     -55.274-102.229 -38.872  0.00  0.00    -0.267 OA
ATOM     28  C   UNL d   1     -54.793-100.462 -37.744  0.00  0.00     0.066 A 
ATOM     29  C   UNL d   1     -54.934-100.138 -38.480  0.00  0.00     0.267 A 
ATOM     30  O   UNL d   1     -54.888 -99.334 -38.675  0.00  0.00    -0.267 OA
ENDBRANCH  21  24
ENDBRANCH   2  18
TORSDOF 4
ENDMDL
