MODEL 1
REMARK VINA RESULT:      56.6      0.000      0.000
REMARK  6 active torsions:
REMARK  status: ('A' for Active; 'I' for Inactive)
REMARK    1  A    between atoms: S_6  and  C_1 
REMARK    2  A    between atoms: C_7  and  S_6 
REMARK    3  A    between atoms: C_8  and  C_7 
REMARK    4  A    between atoms: O_14  and  C_9 
REMARK    5  A    between atoms: C_17  and  O_14 
REMARK    6  A    between atoms: C_18  and  C_17 
ROOT
ATOM      1  C   UNL d   1      60.158  49.118  50.107  0.00  0.00     0.038 C 
ENDROOT
BRANCH   1   2
ATOM      2  S   UNL d   1      59.695  49.701  50.463  0.00  0.00    -0.048 SA
BRANCH   2   3
ATOM      3  C   UNL d   1      58.877  49.700  50.359  0.00  0.00     0.194 A 
ATOM      4  N   UNL d   1      58.305  49.690  50.950  0.00  0.00    -0.220 NA
ATOM      5  C   UNL d   1      57.550  49.692  50.575  0.00  0.00     0.101 A 
ATOM      6  C   UNL d   1      56.790  49.685  50.894  0.00  0.00     0.021 A 
ATOM      7  C   UNL d   1      57.653  49.703  49.761  0.00  0.00     0.101 A 
ATOM      8  C   UNL d   1      56.159  49.690  50.398  0.00  0.00     0.002 A 
ATOM      9  C   UNL d   1      56.262  49.701  49.584  0.00  0.00     0.002 A 
ATOM     10  C   UNL d   1      56.997  49.707  49.262  0.00  0.00     0.021 A 
ATOM     11  N   UNL d   1      58.474  49.708  49.618  0.00  0.00    -0.220 NA
ENDBRANCH   2   3
ENDBRANCH   1   2
BRANCH   1  12
ATOM     12  C   UNL d   1      60.368  48.460  50.559  0.00  0.00     0.007 A 
ATOM     13  C   UNL d   1      60.118  47.718  50.301  0.00  0.00     0.003 A 
ATOM     14  C   UNL d   1      60.314  47.043  50.734  0.00  0.00     0.025 A 
ATOM     15  C   UNL d   1      60.760  47.112  51.426  0.00  0.00     0.100 A 
ATOM     16  C   UNL d   1      60.996  47.838  51.664  0.00  0.00     0.025 A 
ATOM     17  C   UNL d   1      60.800  48.513  51.231  0.00  0.00     0.003 A 
BRANCH  15  18
ATOM     18  O   UNL d   1      60.956  46.438  51.859  0.00  0.00    -0.305 OA
BRANCH  18  19
ATOM     19  C   UNL d   1      60.704  45.695  51.602  0.00  0.00     0.123 C 
BRANCH  19  20
ATOM     20  C   UNL d   1      61.204  45.042  51.675  0.00  0.00     0.027 C 
ATOM     21  C   UNL d   1      60.914  44.335  51.996  0.00  0.00     0.002 C 
ENDBRANCH  19  20
ENDBRANCH  18  19
ENDBRANCH  15  18
ENDBRANCH   1  12
TORSDOF 6
ENDMDL
MODEL 2
REMARK VINA RESULT:      56.8      2.091      4.813
REMARK  6 active torsions:
REMARK  status: ('A' for Active; 'I' for Inactive)
REMARK    1  A    between atoms: S_6  and  C_1 
REMARK    2  A    between atoms: C_7  and  S_6 
REMARK    3  A    between atoms: C_8  and  C_7 
REMARK    4  A    between atoms: O_14  and  C_9 
REMARK    5  A    between atoms: C_17  and  O_14 
REMARK    6  A    between atoms: C_18  and  C_17 
ROOT
ATOM      1  C   UNL d   1      60.754  48.696  51.046  0.00  0.00     0.038 C 
ENDROOT
BRANCH   1   2
ATOM      2  S   UNL d   1      61.269  48.531  50.422  0.00  0.00    -0.048 SA
BRANCH   2   3
ATOM      3  C   UNL d   1      61.451  47.749  50.233  0.00  0.00     0.194 A 
ATOM      4  N   UNL d   1      61.863  47.484  49.573  0.00  0.00    -0.220 NA
ATOM      5  C   UNL d   1      61.910  46.644  49.621  0.00  0.00     0.101 A 
ATOM      6  C   UNL d   1      62.257  46.094  49.115  0.00  0.00     0.021 A 
ATOM      7  C   UNL d   1      61.531  46.391  50.304  0.00  0.00     0.101 A 
ATOM      8  C   UNL d   1      62.219  45.314  49.300  0.00  0.00     0.002 A 
ATOM      9  C   UNL d   1      61.839  45.061  49.983  0.00  0.00     0.002 A 
ATOM     10  C   UNL d   1      61.498  45.587  50.483  0.00  0.00     0.021 A 
ATOM     11  N   UNL d   1      61.243  47.070  50.690  0.00  0.00    -0.220 NA
ENDBRANCH   2   3
ENDBRANCH   1   2
BRANCH   1  12
ATOM     12  C   UNL d   1      59.993  48.955  50.861  0.00  0.00     0.007 A 
ATOM     13  C   UNL d   1      59.410  48.888  51.442  0.00  0.00     0.003 A 
ATOM     14  C   UNL d   1      58.640  49.138  51.284  0.00  0.00     0.025 A 
ATOM     15  C   UNL d   1      58.452  49.455  50.545  0.00  0.00     0.100 A 
ATOM     16  C   UNL d   1      59.027  49.514  49.992  0.00  0.00     0.025 A 
ATOM     17  C   UNL d   1      59.797  49.263  50.150  0.00  0.00     0.003 A 
BRANCH  15  18
ATOM     18  O   UNL d   1      57.682  49.705  50.387  0.00  0.00    -0.305 OA
BRANCH  18  19
ATOM     19  C   UNL d   1      57.077  49.150  50.305  0.00  0.00     0.123 C 
BRANCH  19  20
ATOM     20  C   UNL d   1      56.330  49.390  50.051  0.00  0.00     0.027 C 
ATOM     21  C   UNL d   1      56.096  49.254  49.267  0.00  0.00     0.002 C 
ENDBRANCH  19  20
ENDBRANCH  18  19
ENDBRANCH  15  18
ENDBRANCH   1  12
TORSDOF 6
ENDMDL
