MODEL 1
REMARK VINA RESULT:      -3.2      0.000      0.000
REMARK  5 active torsions:
REMARK  status: ('A' for Active; 'I' for Inactive)
REMARK    1  A    between atoms: C_11  and  N_2 
REMARK    2  A    between atoms: C_6  and  O_13 
REMARK    3  A    between atoms: C_12  and  C_7 
REMARK    4  A    between atoms: C_16  and  C_11 
REMARK    5  A    between atoms: O_13  and  C_16 
ROOT
ATOM      1  C   UNL d   1      58.200  -1.059  30.339  0.00  0.00     0.142 C 
ENDROOT
BRANCH   1   2
ATOM      2  O   UNL d   1      58.483  -1.629  29.818  0.00  0.00    -0.304 OA
BRANCH   2   3
ATOM      3  C   UNL d   1      59.238  -1.544  29.496  0.00  0.00     0.100 A 
ATOM      4  C   UNL d   1      59.572  -2.158  29.062  0.00  0.00     0.023 A 
ATOM      5  C   UNL d   1      60.322  -2.082  28.738  0.00  0.00     0.002 A 
ATOM      6  C   UNL d   1      60.747  -1.375  28.852  0.00  0.00     0.000 A 
ATOM      7  C   UNL d   1      60.413  -0.758  29.288  0.00  0.00     0.002 A 
ATOM      8  C   UNL d   1      59.659  -0.842  29.610  0.00  0.00     0.025 A 
ATOM      9  C   UNL d   1      60.833  -0.059  29.401  0.00  0.00     0.000 C 
BRANCH   4  10
ATOM     10  C   UNL d   1      59.148  -2.857  28.950  0.00  0.00     0.002 C 
ATOM     11  C   UNL d   1      59.380  -3.552  29.332  0.00  0.00     0.000 C 
ATOM     12  C   UNL d   1      58.488  -2.869  28.455  0.00  0.00     0.000 C 
ENDBRANCH   4  10
ENDBRANCH   2   3
ENDBRANCH   1   2
BRANCH   1  13
ATOM     13  C   UNL d   1      57.386  -0.956  30.423  0.00  0.00     0.112 C 
BRANCH  13  14
ATOM     14  N   UNL d   1      57.093  -0.517  31.052  0.00  0.00    -0.249 N 
ATOM     15  C   UNL d   1      57.128   0.308  30.940  0.00  0.00     0.378 A 
ATOM     16  O   UNL d   1      56.818   0.681  31.610  0.00  0.00    -0.258 OA
ATOM     17  O   UNL d   1      57.425   0.682  30.268  0.00  0.00    -0.237 OA
ATOM     18  C   UNL d   1      56.586   0.085  32.148  0.00  0.00     0.121 A 
ATOM     19  C   UNL d   1      56.246   0.115  32.900  0.00  0.00     0.026 A 
ATOM     20  C   UNL d   1      56.758  -0.652  31.799  0.00  0.00     0.092 A 
ATOM     21  C   UNL d   1      56.077  -0.582  33.303  0.00  0.00     0.002 A 
ATOM     22  C   UNL d   1      56.247  -1.311  32.958  0.00  0.00     0.002 A 
ATOM     23  C   UNL d   1      56.588  -1.351  32.205  0.00  0.00     0.020 A 
ENDBRANCH  13  14
ENDBRANCH   1  13
TORSDOF 5
ENDMDL
MODEL 2
REMARK VINA RESULT:      -0.2      8.809      9.020
REMARK  5 active torsions:
REMARK  status: ('A' for Active; 'I' for Inactive)
REMARK    1  A    between atoms: C_11  and  N_2 
REMARK    2  A    between atoms: C_6  and  O_13 
REMARK    3  A    between atoms: C_12  and  C_7 
REMARK    4  A    between atoms: C_16  and  C_11 
REMARK    5  A    between atoms: O_13  and  C_16 
ROOT
ATOM      1  C   UNL d   1      59.378  -9.451  32.048  0.00  0.00     0.142 C 
ENDROOT
BRANCH   1   2
ATOM      2  O   UNL d   1      58.698  -9.783  31.729  0.00  0.00    -0.304 OA
BRANCH   2   3
ATOM      3  C   UNL d   1      58.597  -9.793  30.911  0.00  0.00     0.100 A 
ATOM      4  C   UNL d   1      57.840  -9.803  30.589  0.00  0.00     0.023 A 
ATOM      5  C   UNL d   1      57.730  -9.813  29.776  0.00  0.00     0.002 A 
ATOM      6  C   UNL d   1      58.394  -9.812  29.274  0.00  0.00     0.000 A 
ATOM      7  C   UNL d   1      59.156  -9.802  29.595  0.00  0.00     0.002 A 
ATOM      8  C   UNL d   1      59.257  -9.792  30.414  0.00  0.00     0.025 A 
ATOM      9  C   UNL d   1      59.812  -9.802  29.099  0.00  0.00     0.000 C 
BRANCH   4  10
ATOM     10  C   UNL d   1      57.183  -9.803  31.089  0.00  0.00     0.002 C 
ATOM     11  C   UNL d   1      57.282  -9.817  31.909  0.00  0.00     0.000 C 
ATOM     12  C   UNL d   1      56.420  -9.790  30.775  0.00  0.00     0.000 C 
ENDBRANCH   4  10
ENDBRANCH   2   3
ENDBRANCH   1   2
BRANCH   1  13
ATOM     13  C   UNL d   1      59.748  -9.818  32.688  0.00  0.00     0.112 C 
BRANCH  13  14
ATOM     14  N   UNL d   1      60.090  -9.362  33.278  0.00  0.00    -0.249 N 
ATOM     15  C   UNL d   1      60.785  -8.966  33.046  0.00  0.00     0.378 A 
ATOM     16  O   UNL d   1      61.071  -8.530  33.689  0.00  0.00    -0.258 OA
ATOM     17  O   UNL d   1      61.125  -9.008  32.296  0.00  0.00    -0.237 OA
ATOM     18  C   UNL d   1      60.550  -8.653  34.330  0.00  0.00     0.121 A 
ATOM     19  C   UNL d   1      60.546  -8.370  35.106  0.00  0.00     0.026 A 
ATOM     20  C   UNL d   1      59.948  -9.167  34.072  0.00  0.00     0.092 A 
ATOM     21  C   UNL d   1      59.946  -8.594  35.623  0.00  0.00     0.002 A 
ATOM     22  C   UNL d   1      59.349  -9.102  35.367  0.00  0.00     0.002 A 
ATOM     23  C   UNL d   1      59.346  -9.392  34.592  0.00  0.00     0.020 A 
ENDBRANCH  13  14
ENDBRANCH   1  13
TORSDOF 5
ENDMDL
