MODEL 1
REMARK VINA RESULT:       8.5      0.000      0.000
REMARK  4 active torsions:
REMARK  status: ('A' for Active; 'I' for Inactive)
REMARK    1  A    between atoms: S_18  and  C_6 
REMARK    2  A    between atoms: C_8  and  N_12 
REMARK       I    between atoms: N_12  and  C_16 
REMARK    3  A    between atoms: C_16  and  C_21 
REMARK    4  A    between atoms: C_21  and  S_18 
ROOT
ATOM      1  N   UNL d   1      46.407 -19.251  43.665  0.00  0.00    -0.242 N 
ATOM      2  C   UNL d   1      46.414 -18.554  43.230  0.00  0.00     0.153 A 
ATOM      3  C   UNL d   1      46.327 -19.221  44.486  0.00  0.00     0.357 A 
ATOM      4  N   UNL d   1      46.342 -17.826  43.612  0.00  0.00    -0.203 NA
ATOM      5  N   UNL d   1      46.255 -18.493  44.868  0.00  0.00    -0.167 NA
ATOM      6  C   UNL d   1      46.262 -17.795  44.428  0.00  0.00     0.200 A 
ATOM      7  C   UNL d   1      46.479 -19.978  43.284  0.00  0.00     0.086 A 
ATOM      8  C   UNL d   1      46.495 -18.584  42.409  0.00  0.00     0.038 A 
ATOM      9  C   UNL d   1      46.559 -20.010  42.467  0.00  0.00     0.019 A 
ATOM     10  C   UNL d   1      46.567 -19.311  42.028  0.00  0.00     0.004 A 
ATOM     11  O   UNL d   1      46.318 -19.927  44.937  0.00  0.00    -0.244 OA
ATOM     12  C   UNL d   1      46.647 -19.339  41.203  0.00  0.00     0.000 C 
ENDROOT
BRANCH   6  13
ATOM     13  S   UNL d   1      46.190 -17.067  44.810  0.00  0.00    -0.043 SA
BRANCH  13  14
ATOM     14  C   UNL d   1      45.597 -16.540  44.583  0.00  0.00     0.101 C 
BRANCH  14  15
ATOM     15  C   UNL d   1      45.736 -15.733  44.622  0.00  0.00     0.287 C 
ATOM     16  N   UNL d   1      45.174 -15.207  44.324  0.00  0.00    -0.186 NA
ATOM     17  O   UNL d   1      46.430 -15.444  44.955  0.00  0.00    -0.265 OA
BRANCH  16  18
ATOM     18  C   UNL d   1      45.309 -14.394  44.361  0.00  0.00     0.194 A 
ATOM     19  N   UNL d   1      45.630 -13.908  44.948  0.00  0.00    -0.107 NA
ATOM     20  O   UNL d   1      45.626 -13.136  44.674  0.00  0.00    -0.210 OA
ATOM     21  C   UNL d   1      45.308 -13.132  43.923  0.00  0.00     0.128 A 
ATOM     22  C   UNL d   1      45.110 -13.913  43.726  0.00  0.00     0.068 A 
ATOM     23  C   UNL d   1      45.207 -12.452  43.450  0.00  0.00     0.029 C 
ENDBRANCH  16  18
ENDBRANCH  14  15
ENDBRANCH  13  14
ENDBRANCH   6  13
TORSDOF 4
ENDMDL
