MODEL 1
REMARK VINA RESULT:      -3.1      0.000      0.000
REMARK  1 active torsions:
REMARK  status: ('A' for Active; 'I' for Inactive)
REMARK    1  A    between atoms: C_9  and  C_3 
ROOT
ATOM      1  C   UNL d   1      31.397  16.871 -23.965  0.00  0.00     0.035 A 
ATOM      2  N   UNL d   1      30.561  17.915 -24.630  0.00  0.00    -0.239 NA
ATOM      3  C   UNL d   1      31.270  17.598 -24.301  0.00  0.00     0.083 A 
ATOM      4  N   UNL d   1      30.035  16.210 -24.071  0.00  0.00    -0.207 NA
ATOM      5  C   UNL d   1      30.844  16.246 -23.861  0.00  0.00     0.086 A 
ATOM      6  C   UNL d   1      29.581  16.793 -24.439  0.00  0.00     0.298 A 
ATOM      7  C   UNL d   1      32.154  16.788 -23.721  0.00  0.00     0.003 A 
ATOM      8  C   UNL d   1      29.827  17.560 -24.687  0.00  0.00     0.161 A 
ATOM      9  C   UNL d   1      31.082  15.544 -23.504  0.00  0.00     0.019 A 
ATOM     10  O   UNL d   1      28.776  16.593 -24.580  0.00  0.00    -0.263 OA
ATOM     11  C   UNL d   1      32.400  16.075 -23.357  0.00  0.00     0.000 A 
ATOM     12  C   UNL d   1      31.854  15.453 -23.252  0.00  0.00     0.002 A 
ATOM     13  C   UNL d   1      33.216  16.013 -23.104  0.00  0.00     0.000 C 
ENDROOT
BRANCH   3  14
ATOM     14  C   UNL d   1      31.918  18.090 -24.325  0.00  0.00     0.018 A 
ATOM     15  C   UNL d   1      32.132  18.537 -23.675  0.00  0.00     0.002 A 
ATOM     16  C   UNL d   1      32.807  19.047 -23.707  0.00  0.00     0.000 A 
ATOM     17  C   UNL d   1      33.241  19.081 -24.407  0.00  0.00     0.000 A 
ATOM     18  C   UNL d   1      33.021  18.631 -25.056  0.00  0.00     0.000 A 
ATOM     19  C   UNL d   1      32.352  18.130 -25.013  0.00  0.00     0.002 A 
ENDBRANCH   3  14
TORSDOF 1
ENDMDL
MODEL 2
REMARK VINA RESULT:      -2.8      4.278      5.998
REMARK  1 active torsions:
REMARK  status: ('A' for Active; 'I' for Inactive)
REMARK    1  A    between atoms: C_9  and  C_3 
ROOT
ATOM      1  C   UNL d   1      32.932  21.817 -22.138  0.00  0.00     0.035 A 
ATOM      2  N   UNL d   1      32.785  20.942 -20.936  0.00  0.00    -0.239 NA
ATOM      3  C   UNL d   1      32.790  21.676 -21.352  0.00  0.00     0.083 A 
ATOM      4  N   UNL d   1      33.192  20.425 -22.686  0.00  0.00    -0.207 NA
ATOM      5  C   UNL d   1      33.113  21.257 -22.739  0.00  0.00     0.086 A 
ATOM      6  C   UNL d   1      33.108  19.951 -22.017  0.00  0.00     0.298 A 
ATOM      7  C   UNL d   1      32.884  22.596 -22.311  0.00  0.00     0.003 A 
ATOM      8  C   UNL d   1      32.924  20.193 -21.231  0.00  0.00     0.161 A 
ATOM      9  C   UNL d   1      33.241  21.512 -23.511  0.00  0.00     0.019 A 
ATOM     10  O   UNL d   1      33.221  19.126 -22.139  0.00  0.00    -0.263 OA
ATOM     11  C   UNL d   1      33.013  22.859 -23.096  0.00  0.00     0.000 A 
ATOM     12  C   UNL d   1      33.192  22.307 -23.694  0.00  0.00     0.002 A 
ATOM     13  C   UNL d   1      32.955  23.699 -23.253  0.00  0.00     0.000 C 
ENDROOT
BRANCH   3  14
ATOM     14  C   UNL d   1      32.629  22.335 -20.903  0.00  0.00     0.018 A 
ATOM     15  C   UNL d   1      31.871  22.637 -20.853  0.00  0.00     0.002 A 
ATOM     16  C   UNL d   1      31.711  23.323 -20.383  0.00  0.00     0.000 A 
ATOM     17  C   UNL d   1      32.337  23.677 -19.979  0.00  0.00     0.000 A 
ATOM     18  C   UNL d   1      33.095  23.369 -20.033  0.00  0.00     0.000 A 
ATOM     19  C   UNL d   1      33.241  22.691 -20.500  0.00  0.00     0.002 A 
ENDBRANCH   3  14
TORSDOF 1
ENDMDL
MODEL 3
REMARK VINA RESULT:      -2.7      1.091      2.477
REMARK  1 active torsions:
REMARK  status: ('A' for Active; 'I' for Inactive)
REMARK    1  A    between atoms: C_9  and  C_3 
ROOT
ATOM      1  C   UNL d   1      30.463  16.760 -24.213  0.00  0.00     0.035 A 
ATOM      2  N   UNL d   1      30.177  15.508 -23.450  0.00  0.00    -0.239 NA
ATOM      3  C   UNL d   1      30.672  16.104 -23.785  0.00  0.00     0.083 A 
ATOM      4  N   UNL d   1      28.950  16.657 -24.268  0.00  0.00    -0.207 NA
ATOM      5  C   UNL d   1      29.691  17.011 -24.431  0.00  0.00     0.086 A 
ATOM      6  C   UNL d   1      28.802  15.965 -23.845  0.00  0.00     0.298 A 
ATOM      7  C   UNL d   1      31.104  17.186 -24.430  0.00  0.00     0.003 A 
ATOM      8  C   UNL d   1      29.363  15.453 -23.479  0.00  0.00     0.161 A 
ATOM      9  C   UNL d   1      29.592  17.699 -24.871  0.00  0.00     0.019 A 
ATOM     10  O   UNL d   1      27.992  15.747 -23.772  0.00  0.00    -0.263 OA
ATOM     11  C   UNL d   1      31.008  17.887 -24.878  0.00  0.00     0.000 A 
ATOM     12  C   UNL d   1      30.243  18.139 -25.096  0.00  0.00     0.002 A 
ATOM     13  C   UNL d   1      31.711  18.324 -25.097  0.00  0.00     0.000 C 
ENDROOT
BRANCH   3  14
ATOM     14  C   UNL d   1      31.471  16.006 -23.661  0.00  0.00     0.018 A 
ATOM     15  C   UNL d   1      31.837  16.325 -23.005  0.00  0.00     0.002 A 
ATOM     16  C   UNL d   1      32.668  16.220 -22.882  0.00  0.00     0.000 A 
ATOM     17  C   UNL d   1      33.096  15.789 -23.441  0.00  0.00     0.000 A 
ATOM     18  C   UNL d   1      32.722  15.472 -24.098  0.00  0.00     0.000 A 
ATOM     19  C   UNL d   1      31.900  15.583 -24.208  0.00  0.00     0.002 A 
ENDBRANCH   3  14
TORSDOF 1
ENDMDL
MODEL 4
REMARK VINA RESULT:      -2.6      4.730      6.207
REMARK  1 active torsions:
REMARK  status: ('A' for Active; 'I' for Inactive)
REMARK    1  A    between atoms: C_9  and  C_3 
ROOT
ATOM      1  C   UNL d   1      32.938  22.147 -22.135  0.00  0.00     0.035 A 
ATOM      2  N   UNL d   1      32.801  23.563 -22.591  0.00  0.00    -0.239 NA
ATOM      3  C   UNL d   1      32.800  22.938 -22.023  0.00  0.00     0.083 A 
ATOM      4  N   UNL d   1      33.201  22.059 -23.627  0.00  0.00    -0.207 NA
ATOM      5  C   UNL d   1      33.118  21.749 -22.854  0.00  0.00     0.086 A 
ATOM      6  C   UNL d   1      33.123  22.844 -23.869  0.00  0.00     0.298 A 
ATOM      7  C   UNL d   1      32.885  21.739 -21.449  0.00  0.00     0.003 A 
ATOM      8  C   UNL d   1      32.942  23.516 -23.394  0.00  0.00     0.161 A 
ATOM      9  C   UNL d   1      33.241  20.936 -22.853  0.00  0.00     0.019 A 
ATOM     10  O   UNL d   1      33.239  22.985 -24.691  0.00  0.00    -0.263 OA
ATOM     11  C   UNL d   1      33.009  20.911 -21.444  0.00  0.00     0.000 A 
ATOM     12  C   UNL d   1      33.188  20.514 -22.155  0.00  0.00     0.002 A 
ATOM     13  C   UNL d   1      32.946  20.500 -20.695  0.00  0.00     0.000 C 
ENDROOT
BRANCH   3  14
ATOM     14  C   UNL d   1      32.639  23.161 -21.257  0.00  0.00     0.018 A 
ATOM     15  C   UNL d   1      33.241  23.308 -20.726  0.00  0.00     0.002 A 
ATOM     16  C   UNL d   1      33.066  23.539 -19.930  0.00  0.00     0.000 A 
ATOM     17  C   UNL d   1      32.275  23.611 -19.707  0.00  0.00     0.000 A 
ATOM     18  C   UNL d   1      31.675  23.462 -20.246  0.00  0.00     0.000 A 
ATOM     19  C   UNL d   1      31.861  23.234 -21.029  0.00  0.00     0.002 A 
ENDBRANCH   3  14
TORSDOF 1
ENDMDL
MODEL 5
REMARK VINA RESULT:      -2.2      1.479      2.899
REMARK  1 active torsions:
REMARK  status: ('A' for Active; 'I' for Inactive)
REMARK    1  A    between atoms: C_9  and  C_3 
ROOT
ATOM      1  C   UNL d   1      31.694  17.246 -24.047  0.00  0.00     0.035 A 
ATOM      2  N   UNL d   1      31.142  18.241 -25.016  0.00  0.00    -0.239 NA
ATOM      3  C   UNL d   1      31.122  17.546 -24.538  0.00  0.00     0.083 A 
ATOM      4  N   UNL d   1      32.823  18.250 -24.198  0.00  0.00    -0.207 NA
ATOM      5  C   UNL d   1      32.458  17.560 -23.893  0.00  0.00     0.086 A 
ATOM      6  C   UNL d   1      32.509  18.793 -24.733  0.00  0.00     0.298 A 
ATOM      7  C   UNL d   1      31.453  16.572 -23.692  0.00  0.00     0.003 A 
ATOM      8  C   UNL d   1      31.750  18.781 -25.097  0.00  0.00     0.161 A 
ATOM      9  C   UNL d   1      32.963  17.171 -23.372  0.00  0.00     0.019 A 
ATOM     10  O   UNL d   1      33.013  19.436 -24.937  0.00  0.00    -0.263 OA
ATOM     11  C   UNL d   1      31.964  16.173 -23.162  0.00  0.00     0.000 A 
ATOM     12  C   UNL d   1      32.723  16.482 -23.006  0.00  0.00     0.002 A 
ATOM     13  C   UNL d   1      31.681  15.453 -22.795  0.00  0.00     0.000 C 
ENDROOT
BRANCH   3  14
ATOM     14  C   UNL d   1      30.432  17.115 -24.575  0.00  0.00     0.018 A 
ATOM     15  C   UNL d   1      30.368  16.463 -25.061  0.00  0.00     0.002 A 
ATOM     16  C   UNL d   1      29.647  16.020 -25.094  0.00  0.00     0.000 A 
ATOM     17  C   UNL d   1      29.014  16.263 -24.624  0.00  0.00     0.000 A 
ATOM     18  C   UNL d   1      29.085  16.919 -24.138  0.00  0.00     0.000 A 
ATOM     19  C   UNL d   1      29.802  17.349 -24.114  0.00  0.00     0.002 A 
ENDBRANCH   3  14
TORSDOF 1
ENDMDL
MODEL 6
REMARK VINA RESULT:      -2.2      5.249      6.601
REMARK  1 active torsions:
REMARK  status: ('A' for Active; 'I' for Inactive)
REMARK    1  A    between atoms: C_9  and  C_3 
ROOT
ATOM      1  C   UNL d   1      32.911  22.056 -20.717  0.00  0.00     0.035 A 
ATOM      2  N   UNL d   1      32.819  23.442 -20.167  0.00  0.00    -0.239 NA
ATOM      3  C   UNL d   1      32.798  22.857 -20.775  0.00  0.00     0.083 A 
ATOM      4  N   UNL d   1      33.172  21.861 -19.234  0.00  0.00    -0.207 NA
ATOM      5  C   UNL d   1      33.079  21.606 -20.027  0.00  0.00     0.086 A 
ATOM      6  C   UNL d   1      33.119  22.630 -18.941  0.00  0.00     0.298 A 
ATOM      7  C   UNL d   1      32.845  21.697 -21.428  0.00  0.00     0.003 A 
ATOM      8  C   UNL d   1      32.959  23.337 -19.370  0.00  0.00     0.161 A 
ATOM      9  C   UNL d   1      33.176  20.791 -20.082  0.00  0.00     0.019 A 
ATOM     10  O   UNL d   1      33.240  22.712 -18.112  0.00  0.00    -0.263 OA
ATOM     11  C   UNL d   1      32.943  20.867 -21.489  0.00  0.00     0.000 A 
ATOM     12  C   UNL d   1      33.110  20.419 -20.806  0.00  0.00     0.002 A 
ATOM     13  C   UNL d   1      32.866  20.509 -22.263  0.00  0.00     0.000 C 
ENDROOT
BRANCH   3  14
ATOM     14  C   UNL d   1      32.643  23.135 -21.524  0.00  0.00     0.018 A 
ATOM     15  C   UNL d   1      33.241  23.225 -22.072  0.00  0.00     0.002 A 
ATOM     16  C   UNL d   1      33.072  23.514 -22.850  0.00  0.00     0.000 A 
ATOM     17  C   UNL d   1      32.291  23.702 -23.038  0.00  0.00     0.000 A 
ATOM     18  C   UNL d   1      31.695  23.610 -22.483  0.00  0.00     0.000 A 
ATOM     19  C   UNL d   1      31.875  23.323 -21.718  0.00  0.00     0.002 A 
ENDBRANCH   3  14
TORSDOF 1
ENDMDL
MODEL 7
REMARK VINA RESULT:      -0.7      4.740      6.112
REMARK  1 active torsions:
REMARK  status: ('A' for Active; 'I' for Inactive)
REMARK    1  A    between atoms: C_9  and  C_3 
ROOT
ATOM      1  C   UNL d   1      32.762  22.161 -21.919  0.00  0.00     0.035 A 
ATOM      2  N   UNL d   1      32.506  23.555 -21.448  0.00  0.00    -0.239 NA
ATOM      3  C   UNL d   1      32.618  22.952 -22.027  0.00  0.00     0.083 A 
ATOM      4  N   UNL d   1      32.781  22.027 -20.407  0.00  0.00    -0.207 NA
ATOM      5  C   UNL d   1      32.835  21.743 -21.193  0.00  0.00     0.086 A 
ATOM      6  C   UNL d   1      32.640  22.800 -20.157  0.00  0.00     0.298 A 
ATOM      7  C   UNL d   1      32.834  21.777 -22.617  0.00  0.00     0.003 A 
ATOM      8  C   UNL d   1      32.517  23.483 -20.634  0.00  0.00     0.161 A 
ATOM      9  C   UNL d   1      32.983  20.934 -21.200  0.00  0.00     0.019 A 
ATOM     10  O   UNL d   1      32.616  22.915 -19.324  0.00  0.00    -0.263 OA
ATOM     11  C   UNL d   1      32.984  20.953 -22.628  0.00  0.00     0.000 A 
ATOM     12  C   UNL d   1      33.057  20.536 -21.910  0.00  0.00     0.002 A 
ATOM     13  C   UNL d   1      33.056  20.568 -23.389  0.00  0.00     0.000 C 
ENDROOT
BRANCH   3  14
ATOM     14  C   UNL d   1      32.576  23.197 -22.802  0.00  0.00     0.018 A 
ATOM     15  C   UNL d   1      33.241  23.214 -23.275  0.00  0.00     0.002 A 
ATOM     16  C   UNL d   1      33.190  23.471 -24.081  0.00  0.00     0.000 A 
ATOM     17  C   UNL d   1      32.454  23.702 -24.373  0.00  0.00     0.000 A 
ATOM     18  C   UNL d   1      31.790  23.683 -23.892  0.00  0.00     0.000 A 
ATOM     19  C   UNL d   1      31.853  23.428 -23.098  0.00  0.00     0.002 A 
ENDBRANCH   3  14
TORSDOF 1
ENDMDL
