MODEL 1
REMARK VINA RESULT:      -8.3      0.000      0.000
REMARK  5 active torsions:
REMARK  status: ('A' for Active; 'I' for Inactive)
REMARK    1  A    between atoms: C_2  and  S_1 
REMARK    2  A    between atoms: N_3  and  S_1 
REMARK    3  A    between atoms: C_11  and  N_3 
REMARK    4  A    between atoms: O_13  and  C_5 
REMARK    5  A    between atoms: C_14  and  C_11 
ROOT
ATOM      1  S   UNL d   1      52.837  32.871  53.410  0.00  0.00     0.285 S 
ATOM      2  O   UNL d   1      52.102  32.823  53.780  0.00  0.00    -0.198 OA
ATOM      3  O   UNL d   1      53.571  32.916  53.039  0.00  0.00    -0.198 OA
ENDROOT
BRANCH   1   4
ATOM      4  C   UNL d   1      52.899  33.663  53.634  0.00  0.00     0.107 A 
ATOM      5  C   UNL d   1      53.325  33.866  54.311  0.00  0.00     0.039 A 
ATOM      6  C   UNL d   1      53.386  34.657  54.535  0.00  0.00     0.122 A 
ATOM      7  C   UNL d   1      53.022  35.246  54.083  0.00  0.00     0.162 A 
ATOM      8  C   UNL d   1      52.598  35.039  53.408  0.00  0.00     0.032 A 
ATOM      9  F   UNL d   1      53.086  36.034  54.309  0.00  0.00    -0.202 F 
ATOM     10  C   UNL d   1      52.535  34.251  53.182  0.00  0.00     0.015 A 
BRANCH   6  11
ATOM     11  O   UNL d   1      53.812  34.861  55.212  0.00  0.00    -0.326 OA
ATOM     12  C   UNL d   1      54.481  34.424  55.427  0.00  0.00     0.181 C 
ENDBRANCH   6  11
ENDBRANCH   1   4
BRANCH   1  13
ATOM     13  N   UNL d   1      52.774  32.076  53.185  0.00  0.00    -0.157 NA
BRANCH  13  14
ATOM     14  C   UNL d   1      53.382  31.548  53.365  0.00  0.00     0.112 C 
BRANCH  14  15
ATOM     15  C   UNL d   1      53.224  30.739  53.404  0.00  0.00     0.020 A 
ATOM     16  C   UNL d   1      52.802  30.369  52.797  0.00  0.00     0.002 A 
ATOM     17  C   UNL d   1      52.645  29.553  52.840  0.00  0.00     0.000 A 
ATOM     18  C   UNL d   1      52.910  29.114  53.487  0.00  0.00     0.000 A 
ATOM     19  C   UNL d   1      53.332  29.484  54.093  0.00  0.00     0.000 A 
ATOM     20  C   UNL d   1      53.490  30.293  54.054  0.00  0.00     0.002 A 
ENDBRANCH  14  15
ENDBRANCH  13  14
ENDBRANCH   1  13
TORSDOF 5
ENDMDL
MODEL 2
REMARK VINA RESULT:      -8.1      2.168      3.880
REMARK  5 active torsions:
REMARK  status: ('A' for Active; 'I' for Inactive)
REMARK    1  A    between atoms: C_2  and  S_1 
REMARK    2  A    between atoms: N_3  and  S_1 
REMARK    3  A    between atoms: C_11  and  N_3 
REMARK    4  A    between atoms: O_13  and  C_5 
REMARK    5  A    between atoms: C_14  and  C_11 
ROOT
ATOM      1  S   UNL d   1      52.357  34.184  53.550  0.00  0.00     0.285 S 
ATOM      2  O   UNL d   1      52.828  34.605  53.019  0.00  0.00    -0.198 OA
ATOM      3  O   UNL d   1      51.885  33.764  54.078  0.00  0.00    -0.198 OA
ENDROOT
BRANCH   1   4
ATOM      4  C   UNL d   1      53.034  33.885  53.913  0.00  0.00     0.107 A 
ATOM      5  C   UNL d   1      53.383  33.194  53.628  0.00  0.00     0.039 A 
ATOM      6  C   UNL d   1      54.060  32.895  53.991  0.00  0.00     0.122 A 
ATOM      7  C   UNL d   1      54.390  33.287  54.640  0.00  0.00     0.162 A 
ATOM      8  C   UNL d   1      54.040  33.976  54.922  0.00  0.00     0.032 A 
ATOM      9  F   UNL d   1      55.066  32.986  55.001  0.00  0.00    -0.202 F 
ATOM     10  C   UNL d   1      53.364  34.277  54.562  0.00  0.00     0.015 A 
BRANCH   6  11
ATOM     11  O   UNL d   1      54.409  32.203  53.706  0.00  0.00    -0.326 OA
ATOM     12  C   UNL d   1      53.980  31.496  53.699  0.00  0.00     0.181 C 
ENDBRANCH   6  11
ENDBRANCH   1   4
BRANCH   1  13
ATOM     13  N   UNL d   1      51.677  34.485  53.184  0.00  0.00    -0.157 NA
BRANCH  13  14
ATOM     14  C   UNL d   1      51.047  33.982  53.007  0.00  0.00     0.112 C 
BRANCH  14  15
ATOM     15  C   UNL d   1      50.383  34.277  52.616  0.00  0.00     0.020 A 
ATOM     16  C   UNL d   1      49.830  34.733  53.026  0.00  0.00     0.002 A 
ATOM     17  C   UNL d   1      49.162  35.030  52.629  0.00  0.00     0.000 A 
ATOM     18  C   UNL d   1      49.052  34.868  51.827  0.00  0.00     0.000 A 
ATOM     19  C   UNL d   1      49.605  34.412  51.417  0.00  0.00     0.000 A 
ATOM     20  C   UNL d   1      50.269  34.116  51.808  0.00  0.00     0.002 A 
ENDBRANCH  14  15
ENDBRANCH  13  14
ENDBRANCH   1  13
TORSDOF 5
ENDMDL
MODEL 3
REMARK VINA RESULT:      -8.0      2.594      3.692
REMARK  5 active torsions:
REMARK  status: ('A' for Active; 'I' for Inactive)
REMARK    1  A    between atoms: C_2  and  S_1 
REMARK    2  A    between atoms: N_3  and  S_1 
REMARK    3  A    between atoms: C_11  and  N_3 
REMARK    4  A    between atoms: O_13  and  C_5 
REMARK    5  A    between atoms: C_14  and  C_11 
ROOT
ATOM      1  S   UNL d   1      51.740  34.177  53.273  0.00  0.00     0.285 S 
ATOM      2  O   UNL d   1      52.082  34.846  52.932  0.00  0.00    -0.198 OA
ATOM      3  O   UNL d   1      51.400  33.509  53.614  0.00  0.00    -0.198 OA
ENDROOT
BRANCH   1   4
ATOM      4  C   UNL d   1      51.084  34.261  52.779  0.00  0.00     0.107 A 
ATOM      5  C   UNL d   1      50.362  34.508  53.093  0.00  0.00     0.039 A 
ATOM      6  C   UNL d   1      49.707  34.592  52.599  0.00  0.00     0.122 A 
ATOM      7  C   UNL d   1      49.773  34.429  51.791  0.00  0.00     0.162 A 
ATOM      8  C   UNL d   1      50.495  34.182  51.482  0.00  0.00     0.032 A 
ATOM      9  F   UNL d   1      49.117  34.514  51.302  0.00  0.00    -0.202 F 
ATOM     10  C   UNL d   1      51.150  34.098  51.971  0.00  0.00     0.015 A 
BRANCH   6  11
ATOM     11  O   UNL d   1      48.985  34.839  52.913  0.00  0.00    -0.326 OA
ATOM     12  C   UNL d   1      48.898  35.613  53.191  0.00  0.00     0.181 C 
ENDBRANCH   6  11
ENDBRANCH   1   4
BRANCH   1  13
ATOM     13  N   UNL d   1      52.399  34.093  53.768  0.00  0.00    -0.157 NA
BRANCH  13  14
ATOM     14  C   UNL d   1      52.843  33.398  53.749  0.00  0.00     0.112 C 
BRANCH  14  15
ATOM     15  C   UNL d   1      53.575  33.368  54.129  0.00  0.00     0.020 A 
ATOM     16  C   UNL d   1      53.646  33.624  54.911  0.00  0.00     0.002 A 
ATOM     17  C   UNL d   1      54.385  33.593  55.292  0.00  0.00     0.000 A 
ATOM     18  C   UNL d   1      55.046  33.306  54.888  0.00  0.00     0.000 A 
ATOM     19  C   UNL d   1      54.975  33.050  54.106  0.00  0.00     0.000 A 
ATOM     20  C   UNL d   1      54.243  33.079  53.726  0.00  0.00     0.002 A 
ENDBRANCH  14  15
ENDBRANCH  13  14
ENDBRANCH   1  13
TORSDOF 5
ENDMDL
MODEL 4
REMARK VINA RESULT:      -7.8      1.977      4.427
REMARK  5 active torsions:
REMARK  status: ('A' for Active; 'I' for Inactive)
REMARK    1  A    between atoms: C_2  and  S_1 
REMARK    2  A    between atoms: N_3  and  S_1 
REMARK    3  A    between atoms: C_11  and  N_3 
REMARK    4  A    between atoms: O_13  and  C_5 
REMARK    5  A    between atoms: C_14  and  C_11 
ROOT
ATOM      1  S   UNL d   1      53.267  31.999  53.466  0.00  0.00     0.285 S 
ATOM      2  O   UNL d   1      52.461  32.123  53.341  0.00  0.00    -0.198 OA
ATOM      3  O   UNL d   1      54.072  31.878  53.590  0.00  0.00    -0.198 OA
ENDROOT
BRANCH   1   4
ATOM      4  C   UNL d   1      53.162  31.190  53.346  0.00  0.00     0.107 A 
ATOM      5  C   UNL d   1      53.425  30.652  53.913  0.00  0.00     0.039 A 
ATOM      6  C   UNL d   1      53.319  29.843  53.793  0.00  0.00     0.122 A 
ATOM      7  C   UNL d   1      52.950  29.571  53.105  0.00  0.00     0.162 A 
ATOM      8  C   UNL d   1      52.688  30.110  52.541  0.00  0.00     0.032 A 
ATOM      9  F   UNL d   1      52.846  28.763  52.988  0.00  0.00    -0.202 F 
ATOM     10  C   UNL d   1      52.792  30.918  52.658  0.00  0.00     0.015 A 
BRANCH   6  11
ATOM     11  O   UNL d   1      53.583  29.305  54.360  0.00  0.00    -0.326 OA
ATOM     12  C   UNL d   1      53.159  29.203  55.063  0.00  0.00     0.181 C 
ENDBRANCH   6  11
ENDBRANCH   1   4
BRANCH   1  13
ATOM     13  N   UNL d   1      53.373  32.812  53.586  0.00  0.00    -0.157 NA
BRANCH  13  14
ATOM     14  C   UNL d   1      52.820  33.238  54.027  0.00  0.00     0.112 C 
BRANCH  14  15
ATOM     15  C   UNL d   1      52.940  34.042  54.168  0.00  0.00     0.020 A 
ATOM     16  C   UNL d   1      52.726  34.600  53.598  0.00  0.00     0.002 A 
ATOM     17  C   UNL d   1      52.849  35.410  53.744  0.00  0.00     0.000 A 
ATOM     18  C   UNL d   1      53.184  35.655  54.457  0.00  0.00     0.000 A 
ATOM     19  C   UNL d   1      53.398  35.098  55.028  0.00  0.00     0.000 A 
ATOM     20  C   UNL d   1      53.277  34.294  54.887  0.00  0.00     0.002 A 
ENDBRANCH  14  15
ENDBRANCH  13  14
ENDBRANCH   1  13
TORSDOF 5
ENDMDL
