MODEL 1
REMARK VINA RESULT:      -3.7      0.000      0.000
REMARK  5 active torsions:
REMARK  status: ('A' for Active; 'I' for Inactive)
REMARK    1  A    between atoms: C_5  and  C_1 
REMARK    2  A    between atoms: N_15  and  C_4 
REMARK       I    between atoms: N_9  and  C_5 
REMARK    3  A    between atoms: C_7  and  N_9 
REMARK    4  A    between atoms: C_18  and  N_15 
REMARK    5  A    between atoms: C_16  and  C_18 
ROOT
ATOM      1  C   UNL d   1      58.091  -0.626  30.333  0.00  0.00     0.128 A 
ATOM      2  N   UNL d   1      59.333  -0.885  29.296  0.00  0.00    -0.200 NA
ATOM      3  C   UNL d   1      58.650  -0.038  30.206  0.00  0.00     0.196 A 
ATOM      4  C   UNL d   1      58.774  -1.473  29.424  0.00  0.00     0.196 A 
ATOM      5  S   UNL d   1      58.162  -1.345  29.934  0.00  0.00    -0.041 SA
ATOM      6  N   UNL d   1      58.588   0.681  30.599  0.00  0.00    -0.126 N 
ENDROOT
BRANCH   1   7
ATOM      7  C   UNL d   1      57.467  -0.487  30.858  0.00  0.00     0.290 C 
ATOM      8  N   UNL d   1      57.346  -1.008  31.501  0.00  0.00    -0.186 NA
ATOM      9  O   UNL d   1      56.960   0.159  30.756  0.00  0.00    -0.264 OA
BRANCH   8  10
ATOM     10  C   UNL d   1      56.720  -0.875  32.032  0.00  0.00     0.194 A 
ATOM     11  N   UNL d   1      56.010  -1.265  32.215  0.00  0.00    -0.107 NA
ATOM     12  O   UNL d   1      55.506  -0.968  32.790  0.00  0.00    -0.210 OA
ATOM     13  C   UNL d   1      55.712  -0.258  33.201  0.00  0.00     0.128 A 
ATOM     14  C   UNL d   1      56.417   0.128  33.018  0.00  0.00     0.068 A 
ATOM     15  C   UNL d   1      55.355   0.207  33.805  0.00  0.00     0.029 C 
ENDBRANCH   8  10
ENDBRANCH   1   7
BRANCH   4  16
ATOM     16  N   UNL d   1      58.842  -2.189  29.029  0.00  0.00    -0.220 NA
BRANCH  16  17
ATOM     17  C   UNL d   1      59.589  -2.518  28.908  0.00  0.00     0.101 C 
BRANCH  17  18
ATOM     18  C   UNL d   1      59.663  -3.216  28.490  0.00  0.00     0.021 C 
ATOM     19  C   UNL d   1      60.388  -3.609  28.472  0.00  0.00     0.002 C 
ENDBRANCH  17  18
ENDBRANCH  16  17
ENDBRANCH   4  16
TORSDOF 5
ENDMDL
MODEL 2
REMARK VINA RESULT:      -3.1      1.612      4.863
REMARK  5 active torsions:
REMARK  status: ('A' for Active; 'I' for Inactive)
REMARK    1  A    between atoms: C_5  and  C_1 
REMARK    2  A    between atoms: N_15  and  C_4 
REMARK       I    between atoms: N_9  and  C_5 
REMARK    3  A    between atoms: C_7  and  N_9 
REMARK    4  A    between atoms: C_18  and  N_15 
REMARK    5  A    between atoms: C_16  and  C_18 
ROOT
ATOM      1  C   UNL d   1      58.201  -0.322  29.969  0.00  0.00     0.128 A 
ATOM      2  N   UNL d   1      57.197   0.667  30.804  0.00  0.00    -0.200 NA
ATOM      3  C   UNL d   1      58.029   0.427  29.681  0.00  0.00     0.196 A 
ATOM      4  C   UNL d   1      57.370  -0.082  31.092  0.00  0.00     0.196 A 
ATOM      5  S   UNL d   1      57.864  -0.570  30.681  0.00  0.00    -0.041 SA
ATOM      6  N   UNL d   1      58.360   0.681  28.973  0.00  0.00    -0.126 N 
ENDROOT
BRANCH   1   7
ATOM      7  C   UNL d   1      58.709  -0.817  29.542  0.00  0.00     0.290 C 
ATOM      8  N   UNL d   1      59.504  -0.900  29.785  0.00  0.00    -0.186 NA
ATOM      9  O   UNL d   1      58.440  -1.230  28.877  0.00  0.00    -0.264 OA
BRANCH   8  10
ATOM     10  C   UNL d   1      60.020  -1.395  29.360  0.00  0.00     0.194 A 
ATOM     11  N   UNL d   1      60.672  -1.276  28.859  0.00  0.00    -0.107 NA
ATOM     12  O   UNL d   1      61.063  -1.913  28.523  0.00  0.00    -0.210 OA
ATOM     13  C   UNL d   1      60.801  -2.700  28.689  0.00  0.00     0.128 A 
ATOM     14  C   UNL d   1      60.153  -2.817  29.187  0.00  0.00     0.068 A 
ATOM     15  C   UNL d   1      61.046  -3.471  28.461  0.00  0.00     0.029 C 
ENDBRANCH   8  10
ENDBRANCH   1   7
BRANCH   4  16
ATOM     16  N   UNL d   1      57.036  -0.331  31.800  0.00  0.00    -0.220 NA
BRANCH  16  17
ATOM     17  C   UNL d   1      56.499   0.159  32.191  0.00  0.00     0.101 C 
BRANCH  17  18
ATOM     18  C   UNL d   1      55.995  -0.157  32.752  0.00  0.00     0.021 C 
ATOM     19  C   UNL d   1      55.659   0.334  33.324  0.00  0.00     0.002 C 
ENDBRANCH  17  18
ENDBRANCH  16  17
ENDBRANCH   4  16
TORSDOF 5
ENDMDL
MODEL 3
REMARK VINA RESULT:      -2.1      2.022      2.840
REMARK  5 active torsions:
REMARK  status: ('A' for Active; 'I' for Inactive)
REMARK    1  A    between atoms: C_5  and  C_1 
REMARK    2  A    between atoms: N_15  and  C_4 
REMARK       I    between atoms: N_9  and  C_5 
REMARK    3  A    between atoms: C_7  and  N_9 
REMARK    4  A    between atoms: C_18  and  N_15 
REMARK    5  A    between atoms: C_16  and  C_18 
ROOT
ATOM      1  C   UNL d   1      56.823  -0.240  32.153  0.00  0.00     0.128 A 
ATOM      2  N   UNL d   1      57.508  -0.829  30.786  0.00  0.00    -0.200 NA
ATOM      3  C   UNL d   1      56.756  -1.038  31.971  0.00  0.00     0.196 A 
ATOM      4  C   UNL d   1      57.574  -0.032  30.969  0.00  0.00     0.196 A 
ATOM      5  S   UNL d   1      57.237   0.259  31.642  0.00  0.00    -0.041 SA
ATOM      6  N   UNL d   1      56.346  -1.542  32.474  0.00  0.00    -0.126 N 
ENDROOT
BRANCH   1   7
ATOM      7  C   UNL d   1      56.474   0.050  32.845  0.00  0.00     0.290 C 
ATOM      8  N   UNL d   1      55.698  -0.187  33.047  0.00  0.00    -0.186 NA
ATOM      9  O   UNL d   1      56.883   0.572  33.341  0.00  0.00    -0.264 OA
BRANCH   8  10
ATOM     10  C   UNL d   1      55.342   0.101  33.741  0.00  0.00     0.194 A 
ATOM     11  N   UNL d   1      54.617   0.462  33.925  0.00  0.00    -0.107 NA
ATOM     12  O   UNL d   1      54.443   0.682  34.696  0.00  0.00    -0.210 OA
ATOM     13  C   UNL d   1      55.008   0.541  35.309  0.00  0.00     0.128 A 
ATOM     14  C   UNL d   1      55.728   0.183  35.125  0.00  0.00     0.068 A 
ATOM     15  C   UNL d   1      55.037   0.681  36.138  0.00  0.00     0.029 C 
ENDBRANCH   8  10
ENDBRANCH   1   7
BRANCH   4  16
ATOM     16  N   UNL d   1      57.985   0.467  30.463  0.00  0.00    -0.220 NA
BRANCH  16  17
ATOM     17  C   UNL d   1      58.763   0.286  30.256  0.00  0.00     0.101 C 
BRANCH  17  18
ATOM     18  C   UNL d   1      59.091   0.610  29.581  0.00  0.00     0.021 C 
ATOM     19  C   UNL d   1      59.879   0.455  29.392  0.00  0.00     0.002 C 
ENDBRANCH  17  18
ENDBRANCH  16  17
ENDBRANCH   4  16
TORSDOF 5
ENDMDL
MODEL 4
REMARK VINA RESULT:      -0.8      1.949      5.353
REMARK  5 active torsions:
REMARK  status: ('A' for Active; 'I' for Inactive)
REMARK    1  A    between atoms: C_5  and  C_1 
REMARK    2  A    between atoms: N_15  and  C_4 
REMARK       I    between atoms: N_9  and  C_5 
REMARK    3  A    between atoms: C_7  and  N_9 
REMARK    4  A    between atoms: C_18  and  N_15 
REMARK    5  A    between atoms: C_16  and  C_18 
ROOT
ATOM      1  C   UNL d   1      56.289  -0.244  32.510  0.00  0.00     0.128 A 
ATOM      2  N   UNL d   1      55.489  -0.679  33.872  0.00  0.00    -0.200 NA
ATOM      3  C   UNL d   1      56.111  -1.033  32.648  0.00  0.00     0.196 A 
ATOM      4  C   UNL d   1      55.668   0.110  33.734  0.00  0.00     0.196 A 
ATOM      5  S   UNL d   1      56.062   0.325  33.064  0.00  0.00    -0.041 SA
ATOM      6  N   UNL d   1      56.334  -1.606  32.102  0.00  0.00    -0.126 N 
ENDROOT
BRANCH   1   7
ATOM      7  C   UNL d   1      56.694  -0.031  31.820  0.00  0.00     0.290 C 
ATOM      8  N   UNL d   1      57.475  -0.303  31.700  0.00  0.00    -0.186 NA
ATOM      9  O   UNL d   1      56.335   0.447  31.247  0.00  0.00    -0.264 OA
BRANCH   8  10
ATOM     10  C   UNL d   1      57.887  -0.093  31.008  0.00  0.00     0.194 A 
ATOM     11  N   UNL d   1      58.290   0.584  30.746  0.00  0.00    -0.107 NA
ATOM     12  O   UNL d   1      58.644   0.599  30.006  0.00  0.00    -0.210 OA
ATOM     13  C   UNL d   1      58.598  -0.081  29.506  0.00  0.00     0.128 A 
ATOM     14  C   UNL d   1      58.197  -0.753  29.768  0.00  0.00     0.068 A 
ATOM     15  C   UNL d   1      58.878  -0.277  28.738  0.00  0.00     0.029 C 
ENDBRANCH   8  10
ENDBRANCH   1   7
BRANCH   4  16
ATOM     16  N   UNL d   1      55.443   0.678  34.283  0.00  0.00    -0.220 NA
BRANCH  16  17
ATOM     17  C   UNL d   1      54.818   0.521  34.799  0.00  0.00     0.101 C 
BRANCH  17  18
ATOM     18  C   UNL d   1      54.900   0.679  35.597  0.00  0.00     0.021 C 
ATOM     19  C   UNL d   1      54.279   0.512  36.114  0.00  0.00     0.002 C 
ENDBRANCH  17  18
ENDBRANCH  16  17
ENDBRANCH   4  16
TORSDOF 5
ENDMDL
