MODEL 1
REMARK VINA RESULT:       9.1      0.000      0.000
REMARK  3 active torsions:
REMARK  status: ('A' for Active; 'I' for Inactive)
REMARK    1  A    between atoms: N_9  and  C_2 
REMARK    2  A    between atoms: C_15  and  C_7 
REMARK    3  A    between atoms: C_11  and  C_14 
ROOT
ATOM      1  C   UNL d   1     -41.698-122.158 -52.022  0.00  0.00     0.152 A 
ATOM      2  C   UNL d   1     -41.723-121.597 -51.410  0.00  0.00     0.174 A 
ATOM      3  C   UNL d   1     -41.833-122.961 -51.857  0.00  0.00     0.111 A 
ATOM      4  N   UNL d   1     -41.885-121.849 -50.629  0.00  0.00    -0.207 NA
ATOM      5  N   UNL d   1     -41.993-123.209 -51.089  0.00  0.00    -0.225 NA
ATOM      6  O   UNL d   1     -41.538-121.908 -52.799  0.00  0.00    -0.302 OA
ATOM      7  C   UNL d   1     -42.020-122.658 -50.471  0.00  0.00     0.164 A 
ATOM      8  C   UNL d   1     -41.646-123.266 -53.251  0.00  0.00     0.043 A 
ATOM      9  C   UNL d   1     -41.511-122.463 -53.416  0.00  0.00     0.102 A 
ATOM     10  C   UNL d   1     -41.619-123.816 -53.865  0.00  0.00     0.004 A 
ATOM     11  C   UNL d   1     -41.353-122.214 -54.179  0.00  0.00     0.025 A 
ATOM     12  C   UNL d   1     -41.460-123.568 -54.632  0.00  0.00     0.000 A 
ATOM     13  C   UNL d   1     -41.326-122.763 -54.790  0.00  0.00     0.002 A 
ENDROOT
BRANCH   2  14
ATOM     14  N   UNL d   1     -41.590-120.800 -51.567  0.00  0.00    -0.287 N 
ATOM     15  C   UNL d   1     -41.254-120.327 -50.991  0.00  0.00     0.082 A 
ATOM     16  C   UNL d   1     -41.123-119.531 -51.151  0.00  0.00     0.025 A 
ATOM     17  C   UNL d   1     -41.329-119.216 -51.885  0.00  0.00     0.067 A 
ATOM     18  C   UNL d   1     -41.666-119.697 -52.455  0.00  0.00     0.025 A 
ATOM     19  C   UNL d   1     -41.798-120.493 -52.299  0.00  0.00     0.082 A 
BRANCH  17  20
ATOM     20  C   UNL d   1     -41.193-118.395 -52.046  0.00  0.00     0.211 C 
ATOM     21  O   UNL d   1     -41.124-118.126 -52.845  0.00  0.00    -0.644 OA
ATOM     22  O   UNL d   1     -41.125-117.847 -51.407  0.00  0.00    -0.644 OA
ENDBRANCH  17  20
ENDBRANCH   2  14
BRANCH   7  23
ATOM     23  C   UNL d   1     -42.178-122.907 -49.708  0.00  0.00     0.036 A 
ATOM     24  C   UNL d   1     -42.917-122.799 -49.387  0.00  0.00     0.003 A 
ATOM     25  C   UNL d   1     -43.081-123.050 -48.614  0.00  0.00     0.000 A 
ATOM     26  C   UNL d   1     -42.490-123.411 -48.172  0.00  0.00     0.000 A 
ATOM     27  C   UNL d   1     -41.734-123.522 -48.500  0.00  0.00     0.000 A 
ATOM     28  C   UNL d   1     -41.584-123.271 -49.259  0.00  0.00     0.003 A 
ENDBRANCH   7  23
TORSDOF 3
ENDMDL
MODEL 2
REMARK VINA RESULT:       9.6      1.522      4.525
REMARK  3 active torsions:
REMARK  status: ('A' for Active; 'I' for Inactive)
REMARK    1  A    between atoms: N_9  and  C_2 
REMARK    2  A    between atoms: C_15  and  C_7 
REMARK    3  A    between atoms: C_11  and  C_14 
ROOT
ATOM      1  C   UNL d   1     -41.552-121.333 -52.005  0.00  0.00     0.152 A 
ATOM      2  C   UNL d   1     -41.674-122.149 -51.910  0.00  0.00     0.174 A 
ATOM      3  C   UNL d   1     -41.496-121.006 -52.767  0.00  0.00     0.111 A 
ATOM      4  N   UNL d   1     -41.740-122.635 -52.588  0.00  0.00    -0.207 NA
ATOM      5  N   UNL d   1     -41.561-121.484 -53.433  0.00  0.00    -0.225 NA
ATOM      6  O   UNL d   1     -41.487-120.849 -51.332  0.00  0.00    -0.302 OA
ATOM      7  C   UNL d   1     -41.683-122.300 -53.350  0.00  0.00     0.164 A 
ATOM      8  C   UNL d   1     -41.309-119.706 -52.180  0.00  0.00     0.043 A 
ATOM      9  C   UNL d   1     -41.365-120.032 -51.418  0.00  0.00     0.102 A 
ATOM     10  C   UNL d   1     -41.188-118.894 -52.265  0.00  0.00     0.004 A 
ATOM     11  C   UNL d   1     -41.301-119.559 -50.755  0.00  0.00     0.025 A 
ATOM     12  C   UNL d   1     -41.124-118.417 -51.599  0.00  0.00     0.000 A 
ATOM     13  C   UNL d   1     -41.180-118.751 -50.840  0.00  0.00     0.002 A 
ENDROOT
BRANCH   2  14
ATOM     14  N   UNL d   1     -41.731-122.480 -51.158  0.00  0.00    -0.287 N 
ATOM     15  C   UNL d   1     -42.385-122.320 -50.696  0.00  0.00     0.082 A 
ATOM     16  C   UNL d   1     -42.438-122.652 -49.946  0.00  0.00     0.025 A 
ATOM     17  C   UNL d   1     -41.836-123.141 -49.666  0.00  0.00     0.067 A 
ATOM     18  C   UNL d   1     -41.184-123.296 -50.135  0.00  0.00     0.025 A 
ATOM     19  C   UNL d   1     -41.128-122.966 -50.885  0.00  0.00     0.082 A 
BRANCH  17  20
ATOM     20  C   UNL d   1     -41.894-123.482 -48.891  0.00  0.00     0.211 C 
ATOM     21  O   UNL d   1     -41.195-123.723 -48.481  0.00  0.00    -0.644 OA
ATOM     22  O   UNL d   1     -42.652-123.580 -48.531  0.00  0.00    -0.644 OA
ENDBRANCH  17  20
ENDBRANCH   2  14
BRANCH   7  23
ATOM     23  C   UNL d   1     -41.746-122.773 -54.014  0.00  0.00     0.036 A 
ATOM     24  C   UNL d   1     -42.378-122.687 -54.519  0.00  0.00     0.003 A 
ATOM     25  C   UNL d   1     -42.445-123.166 -55.193  0.00  0.00     0.000 A 
ATOM     26  C   UNL d   1     -41.868-123.729 -55.349  0.00  0.00     0.000 A 
ATOM     27  C   UNL d   1     -41.223-123.817 -54.833  0.00  0.00     0.000 A 
ATOM     28  C   UNL d   1     -41.166-123.343 -54.174  0.00  0.00     0.003 A 
ENDBRANCH   7  23
TORSDOF 3
ENDMDL
MODEL 3
REMARK VINA RESULT:      11.9      1.179      3.434
REMARK  3 active torsions:
REMARK  status: ('A' for Active; 'I' for Inactive)
REMARK    1  A    between atoms: N_9  and  C_2 
REMARK    2  A    between atoms: C_15  and  C_7 
REMARK    3  A    between atoms: C_11  and  C_14 
ROOT
ATOM      1  C   UNL d   1     -41.536-120.773 -52.033  0.00  0.00     0.152 A 
ATOM      2  C   UNL d   1     -41.650-121.569 -52.243  0.00  0.00     0.174 A 
ATOM      3  C   UNL d   1     -41.490-120.557 -51.232  0.00  0.00     0.111 A 
ATOM      4  N   UNL d   1     -41.719-122.146 -51.642  0.00  0.00    -0.207 NA
ATOM      5  N   UNL d   1     -41.558-121.124 -50.641  0.00  0.00    -0.225 NA
ATOM      6  O   UNL d   1     -41.467-120.199 -52.630  0.00  0.00    -0.302 OA
ATOM      7  C   UNL d   1     -41.672-121.921 -50.839  0.00  0.00     0.164 A 
ATOM      8  C   UNL d   1     -41.308-119.185 -51.628  0.00  0.00     0.043 A 
ATOM      9  C   UNL d   1     -41.353-119.402 -52.429  0.00  0.00     0.102 A 
ATOM     10  C   UNL d   1     -41.194-118.393 -51.428  0.00  0.00     0.004 A 
ATOM     11  C   UNL d   1     -41.286-118.839 -53.018  0.00  0.00     0.025 A 
ATOM     12  C   UNL d   1     -41.126-117.826 -52.020  0.00  0.00     0.000 A 
ATOM     13  C   UNL d   1     -41.173-118.051 -52.819  0.00  0.00     0.002 A 
ENDROOT
BRANCH   2  14
ATOM     14  N   UNL d   1     -41.696-121.791 -53.035  0.00  0.00    -0.287 N 
ATOM     15  C   UNL d   1     -42.298-121.496 -53.502  0.00  0.00     0.082 A 
ATOM     16  C   UNL d   1     -42.341-121.720 -54.291  0.00  0.00     0.025 A 
ATOM     17  C   UNL d   1     -41.781-122.237 -54.606  0.00  0.00     0.067 A 
ATOM     18  C   UNL d   1     -41.182-122.528 -54.132  0.00  0.00     0.025 A 
ATOM     19  C   UNL d   1     -41.136-122.306 -53.342  0.00  0.00     0.082 A 
BRANCH  17  20
ATOM     20  C   UNL d   1     -41.828-122.466 -55.422  0.00  0.00     0.211 C 
ATOM     21  O   UNL d   1     -42.066-123.251 -55.628  0.00  0.00    -0.644 OA
ATOM     22  O   UNL d   1     -41.637-121.908 -56.026  0.00  0.00    -0.644 OA
ENDBRANCH  17  20
ENDBRANCH   2  14
BRANCH   7  23
ATOM     23  C   UNL d   1     -41.739-122.483 -50.249  0.00  0.00     0.036 A 
ATOM     24  C   UNL d   1     -42.399-122.502 -49.774  0.00  0.00     0.003 A 
ATOM     25  C   UNL d   1     -42.469-123.071 -49.175  0.00  0.00     0.000 A 
ATOM     26  C   UNL d   1     -41.867-123.618 -49.063  0.00  0.00     0.000 A 
ATOM     27  C   UNL d   1     -41.193-123.599 -49.548  0.00  0.00     0.000 A 
ATOM     28  C   UNL d   1     -41.133-123.036 -50.133  0.00  0.00     0.003 A 
ENDBRANCH   7  23
TORSDOF 3
ENDMDL
