MODEL 1
REMARK VINA RESULT:      28.8      0.000      0.000
REMARK  5 active torsions:
REMARK  status: ('A' for Active; 'I' for Inactive)
REMARK       I    between atoms: N_2  and  C_1 
REMARK    1  A    between atoms: C_11  and  C_1 
REMARK    2  A    between atoms: C_4  and  N_2 
REMARK    3  A    between atoms: C_3  and  C_4 
REMARK    4  A    between atoms: C_5  and  C_3 
REMARK    5  A    between atoms: N_6  and  C_3 
ROOT
ATOM      1  C   UNL d   1      13.409  12.855  -3.935  0.00  0.00     0.088 C 
ENDROOT
BRANCH   1   2
ATOM      2  C   UNL d   1      13.360  12.363  -3.275  0.00  0.00     0.101 C 
ATOM      3  C   UNL d   1      12.771  11.795  -3.231  0.00  0.00     0.022 C 
BRANCH   2   4
ATOM      4  N   UNL d   1      13.906  12.450  -2.664  0.00  0.00    -0.206 NA
ATOM      5  C   UNL d   1      13.728  12.159  -1.907  0.00  0.00     0.279 C 
ATOM      6  O   UNL d   1      13.005  11.787  -1.773  0.00  0.00    -0.265 OA
BRANCH   5   7
ATOM      7  C   UNL d   1      14.274  12.245  -1.296  0.00  0.00     0.058 A 
ATOM      8  C   UNL d   1      14.138  12.789  -0.681  0.00  0.00     0.005 A 
ATOM      9  C   UNL d   1      14.688  12.866  -0.078  0.00  0.00     0.000 A 
ATOM     10  C   UNL d   1      15.380  12.407  -0.076  0.00  0.00     0.000 A 
ATOM     11  C   UNL d   1      15.511  11.871  -0.687  0.00  0.00     0.000 A 
ATOM     12  C   UNL d   1      14.960  11.788  -1.297  0.00  0.00     0.005 A 
ENDBRANCH   5   7
ENDBRANCH   2   4
ENDBRANCH   1   2
BRANCH   1  13
ATOM     13  C   UNL d   1      13.412  12.530  -4.694  0.00  0.00     0.047 A 
ATOM     14  S   UNL d   1      12.915  11.930  -4.977  0.00  0.00    -0.085 SA
ATOM     15  C   UNL d   1      13.112  11.779  -5.763  0.00  0.00     0.035 A 
ATOM     16  C   UNL d   1      13.732  12.282  -5.981  0.00  0.00     0.007 A 
ATOM     17  C   UNL d   1      13.923  12.752  -5.318  0.00  0.00     0.009 A 
ENDBRANCH   1  13
BRANCH   1  18
ATOM     18  N   UNL d   1      13.456  13.680  -3.842  0.00  0.00    -0.299 N 
ATOM     19  C   UNL d   1      12.840  14.156  -4.093  0.00  0.00     0.107 A 
ATOM     20  C   UNL d   1      12.877  14.974  -4.005  0.00  0.00     0.142 A 
ATOM     21  O   UNL d   1      13.546  15.329  -3.657  0.00  0.00    -0.300 OA
ATOM     22  C   UNL d   1      14.171  14.842  -3.402  0.00  0.00     0.142 A 
ATOM     23  C   UNL d   1      14.125  14.021  -3.494  0.00  0.00     0.107 A 
ENDBRANCH   1  18
TORSDOF 5
ENDMDL
